# MOL2 file generated by ConQuest
# Please check atom types

@<TRIPOS>MOLECULE
MUWZUB
    46    49     1
SMALL
NO_CHARGES
****
Generated from CSD

@<TRIPOS>ATOM
      1 O1         8.2489    6.8618    4.0468 O.3       1 RES1    0.0000
      2 H1         8.7332    7.4748    4.2969 H         1 RES1    0.0000
      3 O2         4.7009    7.1356    7.3578 O.3       1 RES1    0.0000
      4 C1         4.1888    5.4884   10.1291 C.3       1 RES1    0.0000
      5 H2         3.4539    6.0304   10.4575 H         1 RES1    0.0000
      6 H3         4.1995    4.6463   10.6103 H         1 RES1    0.0000
      7 C2         4.9402    5.2981    2.6925 C.ar      1 RES1    0.0000
      8 H4         4.2336    5.7320    3.1137 H         1 RES1    0.0000
      9 C3         5.5078    6.2156   10.2774 C.3       1 RES1    0.0000
     10 H5         5.8391    6.1628   11.1878 H         1 RES1    0.0000
     11 H6         5.4277    7.1487   10.0227 H         1 RES1    0.0000
     12 C4         5.3701    2.5244    8.1126 C.3       1 RES1    0.0000
     13 H7         4.4133    2.5515    8.1805 H         1 RES1    0.0000
     14 H8         5.7524    2.4946    8.9935 H         1 RES1    0.0000
     15 H9         5.6346    1.7430    7.6234 H         1 RES1    0.0000
     16 C5         4.7559    4.7390    1.4300 C.ar      1 RES1    0.0000
     17 H10        3.9305    4.8094    1.0077 H         1 RES1    0.0000
     18 C6         7.1940    4.5334    2.6800 C.ar      1 RES1    0.0000
     19 H11        8.0226    4.4500    3.0944 H         1 RES1    0.0000
     20 N1         5.6689    6.1156    7.0340 N.3       1 RES1    0.0000
     21 N2         7.3254    6.5562    5.0545 N.2       1 RES1    0.0000
     22 C7         6.1753    5.2110    3.3254 C.ar      1 RES1    0.0000
     23 C8         6.4085    5.4562    9.3173 C.3       1 RES1    0.0000
     24 H12        6.7544    4.6530    9.7385 H         1 RES1    0.0000
     25 H13        7.1567    6.0093    9.0421 H         1 RES1    0.0000
     26 C9         5.7864    4.0872    0.8118 C.ar      1 RES1    0.0000
     27 H14        5.6618    3.7163   -0.0306 H         1 RES1    0.0000
     28 C10        6.9986    3.9805    1.4312 C.ar      1 RES1    0.0000
     29 H15        7.6962    3.5329    1.0088 H         1 RES1    0.0000
     30 C11        5.1571    3.9817    6.0372 C.3       1 RES1    0.0000
     31 H16        4.2177    3.7488    6.1040 H         1 RES1    0.0000
     32 H17        5.5668    3.4398    5.3453 H         1 RES1    0.0000
     33 C12        7.3783    3.6446    7.1717 C.3       1 RES1    0.0000
     34 H18        7.8163    3.5793    8.0231 H         1 RES1    0.0000
     35 H19        7.7037    4.4164    6.7029 H         1 RES1    0.0000
     36 H20        7.5614    2.8562    6.6554 H         1 RES1    0.0000
     37 C13        6.3702    5.7818    4.6819 C.2       1 RES1    0.0000
     38 C14        5.8656    3.7753    7.3834 C.3       1 RES1    0.0000
     39 C15        4.0670    5.2569    8.6289 C.3       1 RES1    0.0000
     40 H21        3.5346    4.4551    8.4387 H         1 RES1    0.0000
     41 C16        5.3267    5.4803    5.7303 C.3       1 RES1    0.0000
     42 H22        4.4661    5.8366    5.4257 H         1 RES1    0.0000
     43 C17        5.5286    5.0940    8.1046 C.3       1 RES1    0.0000
     44 C18        3.5444    6.4517    7.8567 C.3       1 RES1    0.0000
     45 H23        2.9780    6.1626    7.1241 H         1 RES1    0.0000
     46 H24        3.0282    7.0335    8.4364 H         1 RES1    0.0000
@<TRIPOS>BOND
     1    1    2 1
     2    3   20 1
     3    4    5 1
     4    6    4 1
     5    7    8 1
     6    9    4 1
     7   10    9 1
     8   11    9 1
     9   12   13 1
    10   14   12 1
    11   15   12 1
    12   16    7 ar
    13   17   16 1
    14   18   19 1
    15   20   41 1
    16   21    1 1
    17   22    7 ar
    18   23    9 1
    19   24   23 1
    20   25   23 1
    21   26   16 ar
    22   27   26 1
    23   28   18 ar
    24   29   28 1
    25   30   31 1
    26   32   30 1
    27   33   34 1
    28   35   33 1
    29   36   33 1
    30   37   21 2
    31   38   12 1
    32   39    4 1
    33   40   39 1
    34   41   30 1
    35   42   41 1
    36   43   20 1
    37   44    3 1
    38   45   44 1
    39   46   44 1
    40   18   22 ar
    41   22   37 1
    42   23   43 1
    43   26   28 ar
    44   30   38 1
    45   33   38 1
    46   37   41 1
    47   38   43 1
    48   39   43 1
    49   39   44 1
@<TRIPOS>SUBSTRUCTURE
     1 RES1 1

@<TRIPOS>CRYSIN
   6.4874   11.0480   12.3970  69.3100  77.9220  88.9010   2 1

