# MOL2 file generated by ConQuest
# Please check atom types

@<TRIPOS>MOLECULE
MUXBOX
    65    67     2
SMALL
NO_CHARGES
****
Generated from CSD

@<TRIPOS>ATOM
      1 C1         8.6071    2.0698    0.2446 C.ar      1 RES1    0.0000
      2 C2         9.1841    2.4974    1.5538 C.2       1 RES1    0.0000
      3 C3         7.5261    0.3694   -1.0288 C.ar      1 RES1    0.0000
      4 C4         8.5508    2.9013   -0.8573 C.ar      1 RES1    0.0000
      5 H1         8.9153    3.7557   -0.8241 H         1 RES1    0.0000
      6 C5         8.0975    0.7847    0.1568 C.ar      1 RES1    0.0000
      7 H2         8.1406    0.2100    0.8866 H         1 RES1    0.0000
      8 C6         7.4176    1.1686   -2.1347 C.ar      1 RES1    0.0000
      9 H3         7.0159    0.8751   -2.9202 H         1 RES1    0.0000
     10 C7         7.9442    2.4438   -2.0058 C.ar      1 RES1    0.0000
     11 C8        11.2515    5.1949    2.5428 C.3       1 RES1    0.0000
     12 C9         8.9461    4.9458    3.5290 C.3       1 RES1    0.0000
     13 H4         8.2578    4.2891    3.7191 H         1 RES1    0.0000
     14 H5         8.5626    5.6386    2.9694 H         1 RES1    0.0000
     15 C10       10.0986    4.2929    2.8245 C.3       1 RES1    0.0000
     16 H6        10.4176    3.5511    3.3801 H         1 RES1    0.0000
     17 C11       10.4136    6.7091    4.5631 C.3       1 RES1    0.0000
     18 H7         9.8622    7.4532    4.2428 H         1 RES1    0.0000
     19 C12        8.7514    6.8333    6.8999 C.2       1 RES1    0.0000
     20 C13        9.4628    5.5489    4.8237 C.3       1 RES1    0.0000
     21 H8         9.9757    4.8516    5.2836 H         1 RES1    0.0000
     22 C14       11.4572    6.4287    3.4546 C.3       1 RES1    0.0000
     23 C15       11.0153    7.1590    5.9043 C.3       1 RES1    0.0000
     24 H9        11.6648    6.5022    6.2007 H         1 RES1    0.0000
     25 H10       11.4774    8.0027    5.7807 H         1 RES1    0.0000
     26 C16       12.9093    6.8325    3.7776 C.3       1 RES1    0.0000
     27 H11       13.4109    6.9022    2.9615 H         1 RES1    0.0000
     28 H12       13.3079    6.1666    4.3425 H         1 RES1    0.0000
     29 H13       12.9127    7.6793    4.2295 H         1 RES1    0.0000
     30 O1         7.8429    4.6707    6.3855 O.3       1 RES1    0.0000
     31 C17       12.4579    4.5152    1.9592 C.2       1 RES1    0.0000
     32 C18        9.9645    7.3230    6.9557 C.2       1 RES1    0.0000
     33 H14       10.1912    7.8134    7.7133 H         1 RES1    0.0000
     34 C19       11.0148    6.6133    2.0430 C.3       1 RES1    0.0000
     35 H15       11.6570    6.9819    1.4156 H         1 RES1    0.0000
     36 H16       10.0975    6.8885    1.8914 H         1 RES1    0.0000
     37 C20        8.3182    5.9566    5.7581 C.3       1 RES1    0.0000
     38 H17        7.5949    6.3819    5.2530 H         1 RES1    0.0000
     39 C21       13.5993    2.4538    1.7771 C.3       1 RES1    0.0000
     40 H18       13.7280    2.6898    0.8547 H         1 RES1    0.0000
     41 H19       13.3749    1.5227    1.8396 H         1 RES1    0.0000
     42 H20       14.4087    2.6216    2.2650 H         1 RES1    0.0000
     43 C22        7.7051    7.1183    7.9619 C.3       1 RES1    0.0000
     44 H21        7.5607    6.3290    8.4896 H         1 RES1    0.0000
     45 H22        6.8821    7.3758    7.5392 H         1 RES1    0.0000
     46 H23        8.0100    7.8310    8.5295 H         1 RES1    0.0000
     47 O2         9.6372    3.7419    1.5373 O.3       1 RES1    0.0000
     48 O3        12.5326    3.2431    2.3301 O.3       1 RES1    0.0000
     49 O4         9.2028    1.7564    2.5082 O.2       1 RES1    0.0000
     50 O5         8.4713    4.3902   -3.1409 O.2       1 RES1    0.0000
     51 O6         7.2667   -1.7717   -0.1914 O.2       1 RES1    0.0000
     52 H24        8.0810   -1.8560   -0.1449 Du        2 SUP2    0.0000
     53 O7         6.2943   -1.3066   -2.0310 O.2       1 RES1    0.0000
     54 O8        13.2524    5.0071    1.2029 O.2       1 RES1    0.0000
     55 O9         7.1523    3.0224   -4.0939 O.2       1 RES1    0.0000
     56 N1         7.8535    3.3519   -3.1555 N.pl3     1 RES1    0.0000
     57 N2         6.9899   -1.0054   -1.0873 N.pl3     1 RES1    0.0000
     58 O10        6.2158    3.6477    5.1108 O.3       1 RES1    0.0000
     59 C23        6.8333    2.2813    5.2397 C.3       1 RES1    0.0000
     60 H25        7.7029    2.3595    5.6385 H         1 RES1    0.0000
     61 H26        6.9148    1.8836    4.3691 H         1 RES1    0.0000
     62 H27        6.2761    1.7288    5.7926 H         1 RES1    0.0000
     63 C24        6.5575    4.4876    6.1848 C.3       1 RES1    0.0000
     64 H28        6.1454    5.3535    6.0372 H         1 RES1    0.0000
     65 H29        6.1723    4.1182    6.9942 H         1 RES1    0.0000
@<TRIPOS>BOND
     1    1    2 1
     2    2   47 1
     3    3    6 ar
     4    4    1 ar
     5    5    4 1
     6    6    1 ar
     7    7    6 1
     8    8    3 ar
     9    9    8 1
    10   10    4 ar
    11   11   15 1
    12   12   13 1
    13   14   12 1
    14   15   12 1
    15   16   15 1
    16   17   18 1
    17   19   32 2
    18   20   12 1
    19   21   20 1
    20   22   11 1
    21   23   17 1
    22   24   23 1
    23   25   23 1
    24   26   22 1
    25   27   26 1
    26   28   26 1
    27   29   26 1
    28   30   37 1
    29   31   11 1
    30   32   23 1
    31   33   32 1
    32   34   11 1
    33   35   34 1
    34   36   34 1
    35   37   19 1
    36   38   37 1
    37   39   40 1
    38   41   39 1
    39   42   39 1
    40   43   19 1
    41   44   43 1
    42   45   43 1
    43   46   43 1
    44   47   15 1
    45   48   31 1
    46   49    2 2
    47   50   56 2
    48   51   57 2
    49   53   57 2
    50   54   31 2
    51   55   56 2
    52   56   10 1
    53   57    3 1
    54   58   59 1
    55   59   60 1
    56   61   59 1
    57   62   59 1
    58   63   30 1
    59   64   63 1
    60   65   63 1
    61    8   10 ar
    62   17   20 1
    63   17   22 1
    64   20   37 1
    65   22   34 1
    66   39   48 1
    67   58   63 1
@<TRIPOS>SUBSTRUCTURE
     1 RES1 1
     2 SUP2 52

@<TRIPOS>CRYSIN
  12.2773    7.6632   13.4463  90.0000  98.6890  90.0000   4 1

