# MOL2 file generated by ConQuest
# Please check atom types

@<TRIPOS>MOLECULE
MUXGIX
    16    17     1
SMALL
NO_CHARGES
****
Generated from CSD

@<TRIPOS>ATOM
      1 N1         3.8368    0.9397   -1.7562 N.pl3     1 RES1    0.0000
      2 H1         3.5017    0.1810   -1.5049 H         1 RES1    0.0000
      3 H2         3.6539    1.2675   -2.5226 H         1 RES1    0.0000
      4 C1         4.3056    1.7321   -0.8070 C.2       1 RES1    0.0000
      5 N2         4.5189    1.4559    0.4552 N.2       1 RES1    0.0000
      6 N3         5.0216    2.6324    1.0201 N.2       1 RES1    0.0000
      7 C2         5.0733    3.5027    0.0771 C.2       1 RES1    0.0000
      8 O1         4.6293    3.0208   -1.1237 O.3       1 RES1    0.0000
      9 C3         5.5465    4.8615    0.1933 C.2       1 RES1    0.0000
     10 N4         5.5060    5.7315   -0.7757 N.2       1 RES1    0.0000
     11 O2         6.0693    6.8758   -0.2745 O.3       1 RES1    0.0000
     12 N5         6.4753    6.6943    1.0523 N.2       1 RES1    0.0000
     13 C4         6.1480    5.4595    1.3526 C.2       1 RES1    0.0000
     14 N6         6.3906    4.8777    2.5307 N.3       1 RES1    0.0000
     15 H3         6.0315    4.1188    2.6861 H         1 RES1    0.0000
     16 H4         6.7060    5.3337    3.1376 H         1 RES1    0.0000
@<TRIPOS>BOND
     1    1    2 1
     2    3    1 1
     3    4    1 1
     4    5    4 2
     5    6    5 1
     6    7    6 2
     7    8    4 1
     8    9    7 1
     9   10    9 2
    10   11   10 1
    11   12   11 1
    12   13    9 1
    13   14   13 1
    14   15   14 1
    15   16   14 1
    16    7    8 1
    17   12   13 2
@<TRIPOS>SUBSTRUCTURE
     1 RES1 1

@<TRIPOS>CRYSIN
   7.0958    8.6167   11.0839  90.0000 102.3650  90.0000  14 1

