# MOL2 file generated by ConQuest
# Please check atom types

@<TRIPOS>MOLECULE
MUXJEV
    66    73     1
SMALL
NO_CHARGES
****
Generated from CSD

@<TRIPOS>ATOM
      1 O1         5.8556    7.3792   11.2624 O.2       1 RES1    0.0000
      2 O2         6.5797    6.1176   12.8977 O.3       1 RES1    0.0000
      3 O3         8.0364   10.5922   10.9275 O.2       1 RES1    0.0000
      4 O4         7.2105    9.5033   12.5762 O.2       1 RES1    0.0000
      5 N1         7.9235    9.5899   11.5824 N.pl3     1 RES1    0.0000
      6 C1         5.1985    5.8742   13.2810 C.3       1 RES1    0.0000
      7 H1         4.7903    6.7066   13.5652 H         1 RES1    0.0000
      8 H2         5.1731    5.2357   14.0101 H         1 RES1    0.0000
      9 H3         4.7109    5.5163   12.5216 H         1 RES1    0.0000
     10 C2         6.7483    6.9034   11.8793 C.2       1 RES1    0.0000
     11 C3         8.1781    7.1056   11.5046 C.ar      1 RES1    0.0000
     12 C4         8.6880    8.3897   11.2050 C.ar      1 RES1    0.0000
     13 C5         9.8817    8.5639   10.6004 C.ar      1 RES1    0.0000
     14 H4        10.1918    9.4342   10.4289 H         1 RES1    0.0000
     15 C6        10.6748    7.4515   10.2199 C.ar      1 RES1    0.0000
     16 C7        10.2532    6.1642   10.6420 C.ar      1 RES1    0.0000
     17 C8         8.9782    6.0292   11.2486 C.ar      1 RES1    0.0000
     18 H5         8.6745    5.1703   11.4818 H         1 RES1    0.0000
     19 C9        11.0960    5.0434   10.4022 C.ar      1 RES1    0.0000
     20 C10       12.2665    5.2071    9.6660 C.ar      1 RES1    0.0000
     21 C11       12.5047    6.4414    8.9628 C.ar      1 RES1    0.0000
     22 C12       11.7947    7.5844    9.3635 C.ar      1 RES1    0.0000
     23 C13       12.1698    8.9652    8.9345 C.ar      1 RES1    0.0000
     24 C14       11.3503    9.7211    8.1049 C.ar      1 RES1    0.0000
     25 H6        10.5296    9.3715    7.8059 H         1 RES1    0.0000
     26 C15       11.7448   10.9883    7.7204 C.ar      1 RES1    0.0000
     27 H7        11.2012   11.4900    7.1399 H         1 RES1    0.0000
     28 C16       12.9271   11.5251    8.1797 C.ar      1 RES1    0.0000
     29 H8        13.1875   12.3883    7.9151 H         1 RES1    0.0000
     30 C17       13.7150   10.8011    9.0161 C.ar      1 RES1    0.0000
     31 H9        14.5137   11.1740    9.3444 H         1 RES1    0.0000
     32 C18       13.3512    9.5217    9.3881 C.ar      1 RES1    0.0000
     33 H10       13.9123    9.0249    9.9551 H         1 RES1    0.0000
     34 C19       10.6100    3.7128   10.8750 C.ar      1 RES1    0.0000
     35 C20       10.1608    2.7825    9.9637 C.ar      1 RES1    0.0000
     36 H11       10.1805    2.9803    9.0444 H         1 RES1    0.0000
     37 C21        9.6807    1.5555   10.3973 C.ar      1 RES1    0.0000
     38 H12        9.3518    0.9350    9.7722 H         1 RES1    0.0000
     39 C22        9.6831    1.2410   11.7279 C.ar      1 RES1    0.0000
     40 H13        9.3829    0.3979   12.0149 H         1 RES1    0.0000
     41 C23       10.1244    2.1599   12.6440 C.ar      1 RES1    0.0000
     42 H14       10.1286    1.9450   13.5600 H         1 RES1    0.0000
     43 C24       10.5628    3.4000   12.2282 C.ar      1 RES1    0.0000
     44 H15       10.8317    4.0374   12.8638 H         1 RES1    0.0000
     45 C25       13.4238    6.4160    7.8070 C.ar      1 RES1    0.0000
     46 C26       13.4418    7.3981    6.8249 C.ar      1 RES1    0.0000
     47 H16       12.8686    8.1377    6.9123 H         1 RES1    0.0000
     48 C27       14.2762    7.3232    5.7174 C.ar      1 RES1    0.0000
     49 H17       14.2678    8.0150    5.0802 H         1 RES1    0.0000
     50 C28       15.1053    6.2570    5.5481 C.ar      1 RES1    0.0000
     51 H18       15.6833    6.2259    4.8078 H         1 RES1    0.0000
     52 C29       15.1000    5.2108    6.4687 C.ar      1 RES1    0.0000
     53 C30       14.2432    5.2703    7.5910 C.ar      1 RES1    0.0000
     54 C31       14.2267    4.1785    8.5090 C.ar      1 RES1    0.0000
     55 C32       13.3012    4.1409    9.5750 C.ar      1 RES1    0.0000
     56 C33       13.4418    3.1500   10.5336 C.ar      1 RES1    0.0000
     57 H19       12.8800    3.1557   11.2870 H         1 RES1    0.0000
     58 C34       14.3971    2.1460   10.4039 C.ar      1 RES1    0.0000
     59 H20       14.4802    1.4923   11.0738 H         1 RES1    0.0000
     60 C35       15.2081    2.1006    9.3194 C.ar      1 RES1    0.0000
     61 H21       15.8095    1.3856    9.2155 H         1 RES1    0.0000
     62 C36       15.1570    3.1067    8.3547 C.ar      1 RES1    0.0000
     63 C37       16.0017    3.1004    7.2058 C.ar      1 RES1    0.0000
     64 H22       16.5987    2.3846    7.0781 H         1 RES1    0.0000
     65 C38       15.9632    4.0837    6.3068 C.ar      1 RES1    0.0000
     66 H23       16.5172    4.0356    5.5488 H         1 RES1    0.0000
@<TRIPOS>BOND
     1    1   10 2
     2    2    6 1
     3    3    5 2
     4    4    5 2
     5    5   12 1
     6    6    7 1
     7    8    6 1
     8    9    6 1
     9   10    2 1
    10   11   10 1
    11   12   11 ar
    12   13   12 ar
    13   14   13 1
    14   15   13 ar
    15   16   15 ar
    16   17   11 ar
    17   18   17 1
    18   19   16 ar
    19   20   19 ar
    20   21   20 ar
    21   22   15 ar
    22   23   22 1
    23   24   23 ar
    24   25   24 1
    25   26   24 ar
    26   27   26 1
    27   28   26 ar
    28   29   28 1
    29   30   28 ar
    30   31   30 1
    31   32   23 ar
    32   33   32 1
    33   34   19 1
    34   35   34 ar
    35   36   35 1
    36   37   35 ar
    37   38   37 1
    38   39   37 ar
    39   40   39 1
    40   41   39 ar
    41   42   41 1
    42   43   34 ar
    43   44   43 1
    44   45   21 ar
    45   46   45 ar
    46   47   46 1
    47   48   46 ar
    48   49   48 1
    49   50   48 ar
    50   51   50 1
    51   52   50 ar
    52   53   45 ar
    53   54   53 ar
    54   55   20 ar
    55   56   55 ar
    56   57   56 1
    57   58   56 ar
    58   59   58 1
    59   60   58 ar
    60   61   60 1
    61   62   54 ar
    62   63   62 ar
    63   64   63 1
    64   65   52 ar
    65   66   65 1
    66   16   17 ar
    67   21   22 ar
    68   30   32 ar
    69   41   43 ar
    70   52   53 ar
    71   54   55 ar
    72   60   62 ar
    73   63   65 ar
@<TRIPOS>SUBSTRUCTURE
     1 RES1 1

@<TRIPOS>CRYSIN
   9.0847   11.5552   13.9742  78.8500  73.0900  84.9500   2 1

