# MOL2 file generated by ConQuest
# Please check atom types

@<TRIPOS>MOLECULE
MUXKUM
    39    41     1
SMALL
NO_CHARGES
****
Generated from CSD

@<TRIPOS>ATOM
      1 O1        -1.6148    3.5836    9.7415 O.2       1 RES1    0.0000
      2 O2        -2.3353    5.3716    8.6670 O.3       1 RES1    0.0000
      3 O3         0.6054    5.5190   11.0685 O.2       1 RES1    0.0000
      4 O4         0.1594    9.0064   16.8388 O.2       1 RES1    0.0000
      5 O5         1.7286    9.8378   15.6316 O.2       1 RES1    0.0000
      6 N1         0.6483    9.3120   15.7590 N.pl3     1 RES1    0.0000
      7 C1        -1.8665    4.7484    9.7478 C.2       1 RES1    0.0000
      8 C2        -2.6426    6.7415    8.9891 C.3       1 RES1    0.0000
      9 H1        -3.5881    6.8431    9.1780 H         1 RES1    0.0000
     10 H2        -2.4091    7.3258    8.2526 H         1 RES1    0.0000
     11 C3        -1.8087    7.0756   10.2215 C.3       1 RES1    0.0000
     12 H3        -0.9079    7.3343    9.9342 H         1 RES1    0.0000
     13 C4        -1.7366    5.7153   10.8962 C.3       1 RES1    0.0000
     14 H4        -2.5014    5.6098   11.4984 H         1 RES1    0.0000
     15 C5        -0.4489    5.4705   11.6642 C.2       1 RES1    0.0000
     16 C6        -0.4975    5.2318   13.1185 C.ar      1 RES1    0.0000
     17 C7        -1.5914    4.6960   13.7611 C.ar      1 RES1    0.0000
     18 H5        -2.3363    4.4350   13.2698 H         1 RES1    0.0000
     19 C8        -1.5879    4.5436   15.1444 C.ar      1 RES1    0.0000
     20 H6        -2.3190    4.1633   15.5764 H         1 RES1    0.0000
     21 C9        -0.4986    4.9593   15.8681 C.ar      1 RES1    0.0000
     22 H7        -0.5091    4.8893   16.7953 H         1 RES1    0.0000
     23 C10        0.5868    5.4666   15.2511 C.ar      1 RES1    0.0000
     24 H8         1.3206    5.7345   15.7559 H         1 RES1    0.0000
     25 C11        0.6157    5.5921   13.8806 C.ar      1 RES1    0.0000
     26 H9         1.3794    5.9178   13.4597 H         1 RES1    0.0000
     27 C12       -2.4044    8.2057   11.0402 C.3       1 RES1    0.0000
     28 H10       -2.4588    9.0002   10.4867 H         1 RES1    0.0000
     29 H11       -3.3075    7.9640   11.2981 H         1 RES1    0.0000
     30 C13       -1.6120    8.5260   12.2774 C.ar      1 RES1    0.0000
     31 C14       -2.0872    8.1919   13.5346 C.ar      1 RES1    0.0000
     32 H12       -2.9192    7.7839   13.6116 H         1 RES1    0.0000
     33 C15       -1.3535    8.4521   14.6783 C.ar      1 RES1    0.0000
     34 H13       -1.6786    8.2188   15.5177 H         1 RES1    0.0000
     35 C16       -0.1470    9.0556   14.5429 C.ar      1 RES1    0.0000
     36 C17        0.3534    9.4190   13.3219 C.ar      1 RES1    0.0000
     37 H14        1.1796    9.8409   13.2594 H         1 RES1    0.0000
     38 C18       -0.3835    9.1503   12.1893 C.ar      1 RES1    0.0000
     39 H15       -0.0495    9.3928   11.3568 H         1 RES1    0.0000
@<TRIPOS>BOND
     1    1    7 2
     2    2    7 1
     3    3   15 2
     4    4    6 2
     5    5    6 2
     6    6   35 1
     7    7   13 1
     8    8    2 1
     9    9    8 1
    10   10    8 1
    11   11    8 1
    12   12   11 1
    13   13   11 1
    14   14   13 1
    15   15   13 1
    16   16   15 1
    17   17   16 ar
    18   18   17 1
    19   19   17 ar
    20   20   19 1
    21   21   19 ar
    22   22   21 1
    23   23   21 ar
    24   24   23 1
    25   25   16 ar
    26   26   25 1
    27   27   11 1
    28   28   27 1
    29   29   27 1
    30   30   27 1
    31   31   30 ar
    32   32   31 1
    33   33   31 ar
    34   34   33 1
    35   35   33 ar
    36   36   35 ar
    37   37   36 1
    38   38   30 ar
    39   39   38 1
    40   23   25 ar
    41   36   38 ar
@<TRIPOS>SUBSTRUCTURE
     1 RES1 1

@<TRIPOS>CRYSIN
   5.8692    7.6984   34.6430  90.0000  94.6340  90.0000  14 1

