# MOL2 file generated by ConQuest
# Please check atom types

@<TRIPOS>MOLECULE
MUXLAT
    36    38     1
SMALL
NO_CHARGES
****
Generated from CSD

@<TRIPOS>ATOM
      1 N1         1.9020    4.8485   -1.4372 N.pl3     1 RES1    0.0000
      2 O1         1.9523   -2.3823    2.9671 O.2       1 RES1    0.0000
      3 O2         3.8216   -1.2101    5.8905 O.2       1 RES1    0.0000
      4 O3         4.2329   -0.2930    3.9117 O.3       1 RES1    0.0000
      5 O4         1.9805    5.9959   -1.0281 O.2       1 RES1    0.0000
      6 O5         1.9532    4.5545   -2.6063 O.2       1 RES1    0.0000
      7 C1         1.4672   -1.8465    3.9108 C.2       1 RES1    0.0000
      8 C2         0.3421   -2.3390    4.7351 C.3       1 RES1    0.0000
      9 H1         0.4134   -3.2959    4.8786 H         1 RES1    0.0000
     10 H2        -0.5072   -2.1484    4.3082 H         1 RES1    0.0000
     11 C3         0.4629   -1.5914    6.0450 C.3       1 RES1    0.0000
     12 H3        -0.4032   -1.4935    6.4693 H         1 RES1    0.0000
     13 H4         1.0624   -2.0513    6.6525 H         1 RES1    0.0000
     14 C4         1.0243   -0.2454    5.6461 C.3       1 RES1    0.0000
     15 H5         1.5080    0.1536    6.3858 H         1 RES1    0.0000
     16 H6         0.3103    0.3557    5.3818 H         1 RES1    0.0000
     17 C5         1.9617   -0.5031    4.4768 C.3       1 RES1    0.0000
     18 C6         3.4049   -0.7300    4.8749 C.2       1 RES1    0.0000
     19 C7         3.4711    0.3028    2.8354 C.3       1 RES1    0.0000
     20 H7         3.3980   -0.3107    2.0869 H         1 RES1    0.0000
     21 H8         3.8941    1.1192    2.5274 H         1 RES1    0.0000
     22 C8         2.1047    0.5967    3.4213 C.3       1 RES1    0.0000
     23 H9         2.1574    1.4555    3.8885 H         1 RES1    0.0000
     24 C9         1.0076    0.6999    2.3867 C.3       1 RES1    0.0000
     25 H10        0.9291   -0.1492    1.9246 H         1 RES1    0.0000
     26 H11        0.1652    0.8712    2.8358 H         1 RES1    0.0000
     27 C10        1.2573    1.7883    1.3769 C.ar      1 RES1    0.0000
     28 C11        1.3478    3.1114    1.7706 C.ar      1 RES1    0.0000
     29 H12        1.2549    3.3267    2.6712 H         1 RES1    0.0000
     30 C12        1.5722    4.1070    0.8609 C.ar      1 RES1    0.0000
     31 H13        1.6363    4.9932    1.1362 H         1 RES1    0.0000
     32 C13        1.6997    3.7743   -0.4649 C.ar      1 RES1    0.0000
     33 C14        1.6379    2.4812   -0.8888 C.ar      1 RES1    0.0000
     34 H14        1.7443    2.2720   -1.7877 H         1 RES1    0.0000
     35 C15        1.4143    1.4926    0.0376 C.ar      1 RES1    0.0000
     36 H15        1.3680    0.6073   -0.2435 H         1 RES1    0.0000
@<TRIPOS>BOND
     1    1    5 2
     2    2    7 2
     3    3   18 2
     4    4   18 1
     5    6    1 2
     6    7    8 1
     7    8    9 1
     8   10    8 1
     9   11    8 1
    10   12   11 1
    11   13   11 1
    12   14   11 1
    13   15   14 1
    14   16   14 1
    15   17    7 1
    16   18   17 1
    17   19    4 1
    18   20   19 1
    19   21   19 1
    20   22   17 1
    21   23   22 1
    22   24   22 1
    23   25   24 1
    24   26   24 1
    25   27   24 1
    26   28   27 ar
    27   29   28 1
    28   30   28 ar
    29   31   30 1
    30   32    1 1
    31   33   32 ar
    32   34   33 1
    33   35   27 ar
    34   36   35 1
    35   14   17 1
    36   19   22 1
    37   30   32 ar
    38   33   35 ar
@<TRIPOS>SUBSTRUCTURE
     1 RES1 1

@<TRIPOS>CRYSIN
   6.8274    8.8266   23.3450  90.0000  96.6610  90.0000  14 1

