# MOL2 file generated by ConQuest
# Please check atom types

@<TRIPOS>MOLECULE
MUZNEC
    13    13     1
SMALL
NO_CHARGES
****
Generated from CSD

@<TRIPOS>ATOM
      1 N1         4.9617    4.7946   11.4381 N.pl3     1 RES1    0.0000
      2 N2         2.7074    4.5165   10.6440 N.2       1 RES1    0.0000
      3 N3         1.8613    3.5568   10.4656 N.pl3     1 RES1    0.0000
      4 H1         1.0605    3.6363   10.1643 H         1 RES1    0.0000
      5 N4         2.4588    2.4129   10.8355 N.2       1 RES1    0.0000
      6 O1         4.9033    5.9826   11.1268 O.2       1 RES1    0.0000
      7 O2         5.9045    4.2788   12.0086 O.2       1 RES1    0.0000
      8 C1         3.8402    3.9714   11.1273 C.2       1 RES1    0.0000
      9 C2         3.7086    2.6161   11.2638 C.2       1 RES1    0.0000
     10 C3         4.5992    1.5378   11.7483 C.3       1 RES1    0.0000
     11 H2         4.5940    1.5260   12.7086 H         1 RES1    0.0000
     12 H3         5.4932    1.6949   11.4351 H         1 RES1    0.0000
     13 H4         4.2881    0.6923   11.4171 H         1 RES1    0.0000
@<TRIPOS>BOND
     1    1    6 2
     2    2    3 1
     3    3    4 1
     4    5    3 1
     5    7    1 2
     6    8    1 1
     7    9    5 2
     8   10    9 1
     9   11   10 1
    10   12   10 1
    11   13   10 1
    12    2    8 2
    13    8    9 1
@<TRIPOS>SUBSTRUCTURE
     1 RES1 1

@<TRIPOS>CRYSIN
   8.7139    9.8198   12.8890  90.0000  90.0000  90.0000  61 1

