# MOL2 file generated by ConQuest
# Please check atom types

@<TRIPOS>MOLECULE
MXBPOX
    36    38     1
SMALL
NO_CHARGES
****
Generated from CSD

@<TRIPOS>ATOM
      1 O1        -1.7834   -0.3312   -0.2507 O.3       1 RES1    0.0000
      2 C2        -1.4822    0.9245   -0.7805 C.2       1 RES1    0.0000
      3 C3        -0.8903    0.8347   -1.9607 C.2       1 RES1    0.0000
      4 C31       -0.7560   -0.5800   -2.2611 C.ar      1 RES1    0.0000
      5 C4        -0.2092   -1.2793   -3.3124 C.ar      1 RES1    0.0000
      6 O40        0.4083   -0.5742   -4.3188 O.3       1 RES1    0.0000
      7 C41       -0.4682   -0.2341   -5.4020 C.3       1 RES1    0.0000
      8 C42       -0.2294   -2.6941   -3.2816 C.ar      1 RES1    0.0000
      9 C5         0.3314   -3.5701   -4.3140 C.2       1 RES1    0.0000
     10 N50        0.8526   -3.0504   -5.3854 N.2       1 RES1    0.0000
     11 O51        1.2906   -4.0927   -6.2523 O.3       1 RES1    0.0000
     12 C52        1.9227   -3.4803   -7.3781 C.3       1 RES1    0.0000
     13 C6         0.2343   -4.9966   -4.0574 C.2       1 RES1    0.0000
     14 C7        -0.3603   -5.4781   -2.9825 C.2       1 RES1    0.0000
     15 C70       -0.5494   -6.9252   -2.6383 C.3       1 RES1    0.0000
     16 O8        -0.9123   -4.6816   -2.0187 O.3       1 RES1    0.0000
     17 C81       -0.8275   -3.2963   -2.1558 C.ar      1 RES1    0.0000
     18 C9        -1.3872   -2.6146   -1.0892 C.ar      1 RES1    0.0000
     19 O90       -1.8958   -3.3507   -0.0639 O.3       1 RES1    0.0000
     20 C91       -2.7265   -2.7560    0.8881 C.3       1 RES1    0.0000
     21 C92       -1.3257   -1.2366   -1.1778 C.ar      1 RES1    0.0000
     22 H2        -1.6913    1.6930   -0.1419 H         1 RES1    0.0000
     23 H3        -0.6392    1.6489   -2.5071 H         1 RES1    0.0000
     24 H4         1.1792   -3.0033   -7.9114 H         1 RES1    0.0000
     25 H5         2.8587   -2.9150   -7.0008 H         1 RES1    0.0000
     26 H6         1.8714   -4.1958   -8.2189 H         1 RES1    0.0000
     27 H7        -3.5342   -2.2083    0.3666 H         1 RES1    0.0000
     28 H8        -2.0781   -2.0611    1.5373 H         1 RES1    0.0000
     29 H9        -3.3217   -3.4155    1.3718 H         1 RES1    0.0000
     30 H10        0.6317   -5.6680   -4.7185 H         1 RES1    0.0000
     31 H11       -1.5852   -7.0813   -2.6963 H         1 RES1    0.0000
     32 H12       -0.1266   -7.0518   -1.6083 H         1 RES1    0.0000
     33 H13        0.0784   -7.5524   -3.3230 H         1 RES1    0.0000
     34 H14       -0.0607    0.3386   -6.0193 H         1 RES1    0.0000
     35 H15       -1.2177    0.4417   -4.8959 H         1 RES1    0.0000
     36 H16       -0.9454   -1.0600   -5.8064 H         1 RES1    0.0000
@<TRIPOS>BOND
     1    1    2 1
     2    2    3 2
     3    3    4 1
     4    4    5 ar
     5    5    6 1
     6    6    7 1
     7    7   34 1
     8    8    5 ar
     9    9    8 1
    10   10    9 2
    11   11   10 1
    12   12   11 1
    13   13    9 1
    14   14   13 2
    15   15   14 1
    16   16   14 1
    17   17    8 ar
    18   18   17 ar
    19   19   18 1
    20   20   19 1
    21   21    1 1
    22   22    2 1
    23   23    3 1
    24   24   12 1
    25   25   12 1
    26   26   12 1
    27   27   20 1
    28   28   20 1
    29   29   20 1
    30   30   13 1
    31   31   15 1
    32   32   15 1
    33   33   15 1
    34   35    7 1
    35   36    7 1
    36    4   21 ar
    37   16   17 1
    38   18   21 ar
@<TRIPOS>SUBSTRUCTURE
     1 RES1 1

@<TRIPOS>CRYSIN
   7.9020   14.7220   12.1110  90.0000 102.4600  90.0000  14 2

