# MOL2 file generated by ConQuest
# Please check atom types

@<TRIPOS>MOLECULE
MXNSAC20
    24    24     1
SMALL
NO_CHARGES
****
Generated from CSD

@<TRIPOS>ATOM
      1 C1         4.8123   -1.1800   -3.8659 C.ar      1 RES1    0.0000
      2 C2         6.8275   -3.1322   -4.2400 C.3       1 RES1    0.0000
      3 C3         4.5298   -1.1398   -6.2380 C.ar      1 RES1    0.0000
      4 C4         0.5091    2.8118   -4.1724 C.2       1 RES1    0.0000
      5 C5         1.4907    1.7719   -3.7701 C.2       1 RES1    0.0000
      6 C6         3.5226   -0.2137   -6.1052 C.ar      1 RES1    0.0000
      7 C7         3.1308    0.2332   -4.8509 C.ar      1 RES1    0.0000
      8 C8         3.7896   -0.2470   -3.7286 C.ar      1 RES1    0.0000
      9 C9         5.1799   -1.6525   -5.1125 C.ar      1 RES1    0.0000
     10 H1         5.2487   -1.4608   -3.0463 H         1 RES1    0.0000
     11 H2         3.5792    0.0839   -2.8331 H         1 RES1    0.0000
     12 H3         3.0801    0.1677   -6.8891 H         1 RES1    0.0000
     13 H4         4.8145   -1.4309   -7.1335 H         1 RES1    0.0000
     14 H5         1.8242    1.4299   -5.6510 H         1 RES1    0.0000
     15 H6         0.2346    2.9346   -5.1193 H         1 RES1    0.0000
     16 H7        -0.8861    5.1413   -3.0775 H         1 RES1    0.0000
     17 H8         6.2524   -3.5347   -3.5949 H         1 RES1    0.0000
     18 H9         7.3518   -2.4753   -3.7001 H         1 RES1    0.0000
     19 H10        7.4054   -3.7913   -4.5591 H         1 RES1    0.0000
     20 N1         2.0914    1.1945   -4.8249 N.am      1 RES1    0.0000
     21 N2         0.0877    3.5875   -3.2649 N.2       1 RES1    0.0000
     22 O1         6.1745   -2.5399   -5.3494 O.3       1 RES1    0.0000
     23 O2        -0.7778    4.5551   -3.7635 O.3       1 RES1    0.0000
     24 O3         1.7214    1.5205   -2.5865 O.2       1 RES1    0.0000
@<TRIPOS>BOND
     1    1    8 ar
     2    2   17 1
     3    3    6 ar
     4    4    5 1
     5    5   20 1
     6    6    7 ar
     7    7    8 ar
     8    8   11 1
     9    9    1 ar
    10   10    1 1
    11   12    6 1
    12   13    3 1
    13   14   20 1
    14   15    4 1
    15   16   23 1
    16   18    2 1
    17   19    2 1
    18   20    7 1
    19   21    4 2
    20   22    2 1
    21   23   21 1
    22   24    5 2
    23    3    9 ar
    24    9   22 1
@<TRIPOS>SUBSTRUCTURE
     1 RES1 1

@<TRIPOS>CRYSIN
  10.2660    9.9850    9.1030  90.0000 101.5000  90.0000  14 1

