# MOL2 file generated by ConQuest
# Please check atom types

@<TRIPOS>MOLECULE
MXPACX
    25    26     1
SMALL
NO_CHARGES
****
Generated from CSD

@<TRIPOS>ATOM
      1 C1        -2.3276    2.9843    7.0841 C.2       1 RES1    0.0000
      2 C2        -1.8601    4.1057    7.9952 C.3       1 RES1    0.0000
      3 C3        -2.9720    4.6252    8.8791 C.ar      1 RES1    0.0000
      4 C4        -3.3440    3.8663    9.9685 C.ar      1 RES1    0.0000
      5 C5        -4.3459    4.2961   10.8395 C.ar      1 RES1    0.0000
      6 C6        -4.9485    5.4889   10.5477 C.ar      1 RES1    0.0000
      7 C7        -4.5928    6.2329    9.4540 C.ar      1 RES1    0.0000
      8 C8        -3.6133    5.8370    8.5960 C.ar      1 RES1    0.0000
      9 C9        -6.1906    7.3452   10.5262 C.3       1 RES1    0.0000
     10 H1        -1.1482    3.7099    8.5658 H         1 RES1    0.0000
     11 H2        -0.5160    4.8745    6.9993 H         1 RES1    0.0000
     12 H3        -2.9175    2.9705   10.1180 H         1 RES1    0.0000
     13 H4        -4.5507    3.7491   11.5984 H         1 RES1    0.0000
     14 H5        -3.4214    6.4383    7.8616 H         1 RES1    0.0000
     15 H6        -6.0462    8.1002   11.0810 H         1 RES1    0.0000
     16 H7        -7.1889    7.2693   10.2043 H         1 RES1    0.0000
     17 H8        -3.8904    3.8604    6.4387 H         1 RES1    0.0000
     18 H9        -3.6777    2.4602    5.7920 H         1 RES1    0.0000
     19 H10       -1.7992    0.1897    6.4675 H         1 RES1    0.0000
     20 N1        -1.5969    1.9289    7.0812 N.2       1 RES1    0.0000
     21 N2        -3.4550    3.1622    6.3367 N.pl3     1 RES1    0.0000
     22 O1        -2.1107    0.9893    6.1154 O.3       1 RES1    0.0000
     23 O2        -1.3080    5.1631    7.2206 O.3       1 RES1    0.0000
     24 O3        -5.3245    7.3949    9.4023 O.3       1 RES1    0.0000
     25 O4        -5.9197    6.1445   11.2505 O.3       1 RES1    0.0000
@<TRIPOS>BOND
     1    1    2 1
     2    2    3 1
     3    3    4 ar
     4    4    5 ar
     5    5    6 ar
     6    6    7 ar
     7    7    8 ar
     8    8    3 ar
     9    9   15 1
    10   10    2 1
    11   11   23 1
    12   12    4 1
    13   13    5 1
    14   14    8 1
    15   16    9 1
    16   17   21 1
    17   18   21 1
    18   19   22 1
    19   20    1 2
    20   21    1 1
    21   22   20 1
    22   23    2 1
    23   24    7 1
    24   25    6 1
    25    9   24 1
    26    9   25 1
@<TRIPOS>SUBSTRUCTURE
     1 RES1 1

@<TRIPOS>CRYSIN
   9.6390    6.5430   14.3740  90.0000  90.9100  90.0000 231 1

