# MOL2 file generated by ConQuest
# Please check atom types

@<TRIPOS>MOLECULE
NABLIO
    53    56     1
SMALL
NO_CHARGES
****
Generated from CSD

@<TRIPOS>ATOM
      1 N1        13.8313    0.8750    3.4760 N.am      1 RES1    0.0000
      2 O1        15.0434    0.1384    1.7601 O.2       1 RES1    0.0000
      3 N2        12.6645    1.4564    3.9722 N.2       1 RES1    0.0000
      4 O2        11.6471   -0.9745    2.8809 O.2       1 RES1    0.0000
      5 O3         8.6639    3.6787    8.3686 O.3       1 RES1    0.0000
      6 O4        16.6336   -4.6735    5.1685 O.3       1 RES1    0.0000
      7 C1        11.7792    2.2212    6.0595 C.ar      1 RES1    0.0000
      8 C2         9.7418    3.2302    7.6667 C.ar      1 RES1    0.0000
      9 C3        11.0405    3.2638    8.1085 C.ar      1 RES1    0.0000
     10 C4        13.9800    0.5852    2.1673 C.2       1 RES1    0.0000
     11 C5        15.3491   -0.7500    4.6652 C.ar      1 RES1    0.0000
     12 C6        16.2712   -3.3580    5.0289 C.ar      1 RES1    0.0000
     13 C7        12.8489    1.6688    5.2317 C.2       1 RES1    0.0000
     14 C8        16.6498   -1.0065    5.0705 C.ar      1 RES1    0.0000
     15 C9        10.4511    2.1933    5.6310 C.ar      1 RES1    0.0000
     16 N3        10.9524   -0.1238    2.3445 N.pl3     1 RES1    0.0000
     17 C10        9.4467    2.6851    6.4192 C.ar      1 RES1    0.0000
     18 C11       12.0494    2.7499    7.3119 C.ar      1 RES1    0.0000
     19 C12       12.8899    0.9270    1.1858 C.ar      1 RES1    0.0000
     20 O5         9.7969    0.1115    2.6682 O.2       1 RES1    0.0000
     21 C13       14.8947    0.6836    4.4969 C.3       1 RES1    0.0000
     22 C14       17.1229   -2.2941    5.2643 C.ar      1 RES1    0.0000
     23 C15       14.2063    1.2778    5.7372 C.3       1 RES1    0.0000
     24 C16       14.9642   -3.1252    4.6246 C.ar      1 RES1    0.0000
     25 C17        8.8764    4.1629    9.6968 C.3       1 RES1    0.0000
     26 C18       13.3254    1.6073    0.0530 C.ar      1 RES1    0.0000
     27 C19       11.5268    0.6500    1.2466 C.ar      1 RES1    0.0000
     28 C20       12.4511    1.9769   -0.9496 C.ar      1 RES1    0.0000
     29 C21       14.5103   -1.8392    4.4364 C.ar      1 RES1    0.0000
     30 C22       10.6459    1.0131    0.2345 C.ar      1 RES1    0.0000
     31 C23       17.9718   -4.9760    5.5366 C.3       1 RES1    0.0000
     32 C24       11.1232    1.6778   -0.8635 C.ar      1 RES1    0.0000
     33 H1        15.7029    1.2868    4.2186 H         1 RES1    0.0000
     34 H2        11.2771    3.6637    8.9251 H         1 RES1    0.0000
     35 H3        14.6748    2.0737    6.0627 H         1 RES1    0.0000
     36 H4        10.5207    1.9179   -1.5726 H         1 RES1    0.0000
     37 H5        18.0575   -2.4671    5.5267 H         1 RES1    0.0000
     38 H6        10.2177    1.7704    4.8111 H         1 RES1    0.0000
     39 H7        14.1458    0.6475    6.4672 H         1 RES1    0.0000
     40 H8        12.9731    2.7540    7.6693 H         1 RES1    0.0000
     41 H9        14.2973    1.8032    0.0071 H         1 RES1    0.0000
     42 H10        8.5467    2.6802    6.1631 H         1 RES1    0.0000
     43 H11        9.7427    0.7295    0.3804 H         1 RES1    0.0000
     44 H12       17.2762   -0.3279    5.2297 H         1 RES1    0.0000
     45 H13       13.5938   -1.6475    4.1210 H         1 RES1    0.0000
     46 H14       14.3943   -3.9342    4.4123 H         1 RES1    0.0000
     47 H15       18.2099   -4.5653    6.4488 H         1 RES1    0.0000
     48 H16       18.6102   -4.5653    4.8847 H         1 RES1    0.0000
     49 H17        8.0015    4.3195    9.9589 H         1 RES1    0.0000
     50 H18       12.8049    2.4507   -1.7098 H         1 RES1    0.0000
     51 H19       17.9681   -5.9833    5.5974 H         1 RES1    0.0000
     52 H20        9.5019    4.9670    9.7071 H         1 RES1    0.0000
     53 H21        9.2895    3.4588   10.2700 H         1 RES1    0.0000
@<TRIPOS>BOND
     1    1    3 1
     2    2   10 2
     3    3   13 2
     4    4   16 2
     5    5    8 1
     6    6   12 1
     7    7   13 1
     8    8    9 ar
     9    9   18 ar
    10   10    1 1
    11   11   14 ar
    12   12   22 ar
    13   13   23 1
    14   14   22 ar
    15   15    7 ar
    16   16   20 2
    17   17    8 ar
    18   18    7 ar
    19   19   10 1
    20   21    1 1
    21   22   37 1
    22   23   21 1
    23   24   12 ar
    24   25    5 1
    25   26   19 ar
    26   27   16 1
    27   28   26 ar
    28   29   11 ar
    29   30   27 ar
    30   31    6 1
    31   32   28 ar
    32   33   21 1
    33   34    9 1
    34   35   23 1
    35   36   32 1
    36   38   15 1
    37   39   23 1
    38   40   18 1
    39   41   26 1
    40   42   17 1
    41   43   30 1
    42   44   14 1
    43   45   29 1
    44   46   24 1
    45   47   31 1
    46   48   31 1
    47   49   25 1
    48   50   28 1
    49   51   31 1
    50   52   25 1
    51   53   25 1
    52   11   21 1
    53   15   17 ar
    54   19   27 ar
    55   24   29 ar
    56   30   32 ar
@<TRIPOS>SUBSTRUCTURE
     1 RES1 1

@<TRIPOS>CRYSIN
  36.1260    8.1963   14.3983  90.0000 100.8250  90.0000  15 1

