# MOL2 file generated by ConQuest
# Please check atom types

@<TRIPOS>MOLECULE
NABMIM
    20    19     1
SMALL
NO_CHARGES
****
Generated from CSD

@<TRIPOS>ATOM
      1 O1         2.0453    9.0752   -3.5802 O.3       1 RES1    0.0000
      2 O2         3.3974    7.3230   -3.2957 O.2       1 RES1    0.0000
      3 O3         2.6029    7.3903    0.9512 O.2       1 RES1    0.0000
      4 O4         0.6651    7.1866    1.8190 O.2       1 RES1    0.0000
      5 O5         2.0143    3.6753   -0.2129 O.2       1 RES1    0.0000
      6 O6         1.9802    4.5333    1.7305 O.2       1 RES1    0.0000
      7 O7        -0.7736    4.6679    0.4215 O.2       1 RES1    0.0000
      8 O8        -0.9308    6.6048   -0.4854 O.2       1 RES1    0.0000
      9 N1         1.5011    6.9207    1.0160 N.pl3     1 RES1    0.0000
     10 N2         1.7846    4.5540    0.5331 N.pl3     1 RES1    0.0000
     11 N3        -0.3175    5.6795   -0.0307 N.pl3     1 RES1    0.0000
     12 C1         2.3762    7.9358   -3.0445 C.2       1 RES1    0.0000
     13 C2         1.3784    7.4732   -2.0132 C.3       1 RES1    0.0000
     14 C3         1.8007    6.1525   -1.3779 C.3       1 RES1    0.0000
     15 C4         1.2036    5.8487   -0.0298 C.3       1 RES1    0.0000
     16 H1         2.6325    9.3859   -4.1261 H         1 RES1    0.0000
     17 H2         1.2942    8.2241   -1.2757 H         1 RES1    0.0000
     18 H3         0.5433    7.4058   -2.4646 H         1 RES1    0.0000
     19 H4         2.8092    6.0748   -1.1718 H         1 RES1    0.0000
     20 H5         1.6155    5.4534   -1.9672 H         1 RES1    0.0000
@<TRIPOS>BOND
     1    1   12 1
     2    2   12 2
     3    3    9 2
     4    4    9 2
     5    5   10 2
     6    6   10 2
     7    7   11 2
     8    8   11 2
     9    9   15 1
    10   10   15 1
    11   11   15 1
    12   12   13 1
    13   13   14 1
    14   14   15 1
    15   16    1 1
    16   17   13 1
    17   18   13 1
    18   19   14 1
    19   20   14 1
@<TRIPOS>SUBSTRUCTURE
     1 RES1 1

@<TRIPOS>CRYSIN
   6.2190   17.2630    8.5890  90.0000  97.4700  90.0000 231 1

