# MOL2 file generated by ConQuest
# Please check atom types

@<TRIPOS>MOLECULE
NABMIM01
    20    19     1
SMALL
NO_CHARGES
****
Generated from CSD

@<TRIPOS>ATOM
      1 C1         0.5453    2.6797    4.2443 C.3       1 RES1    0.0000
      2 C2         1.1737    2.4175    2.9035 C.3       1 RES1    0.0000
      3 C3         0.7532    1.1121    2.2303 C.3       1 RES1    0.0000
      4 C4         1.7719    0.6782    1.2056 C.2       1 RES1    0.0000
      5 N1        -0.9736    2.7849    4.2392 N.pl3     1 RES1    0.0000
      6 N2         1.0658    3.9906    4.8493 N.pl3     1 RES1    0.0000
      7 N3         0.8748    1.5990    5.2843 N.pl3     1 RES1    0.0000
      8 O1        -1.5507    1.8220    3.7707 O.2       1 RES1    0.0000
      9 O2        -1.4792    3.7951    4.6919 O.2       1 RES1    0.0000
     10 O3         1.2699    4.8960    4.0807 O.2       1 RES1    0.0000
     11 O4         1.2336    4.0046    6.0497 O.2       1 RES1    0.0000
     12 O5         0.0295    1.3320    6.1085 O.2       1 RES1    0.0000
     13 O6         1.9844    1.1296    5.1905 O.2       1 RES1    0.0000
     14 O7         2.7868    1.3101    0.9712 O.2       1 RES1    0.0000
     15 O8         1.4399   -0.4515    0.6301 O.3       1 RES1    0.0000
     16 H1         2.1125    2.4160    3.0869 H         1 RES1    0.0000
     17 H2         0.9713    3.1645    2.3785 H         1 RES1    0.0000
     18 H3         0.6756    0.3793    2.8926 H         1 RES1    0.0000
     19 H4        -0.1011    1.1829    1.7862 H         1 RES1    0.0000
     20 H5         2.0758   -0.7001    0.1010 H         1 RES1    0.0000
@<TRIPOS>BOND
     1    1    2 1
     2    2    3 1
     3    3    4 1
     4    4   14 2
     5    5    1 1
     6    6    1 1
     7    7    1 1
     8    8    5 2
     9    9    5 2
    10   10    6 2
    11   11    6 2
    12   12    7 2
    13   13    7 2
    14   15    4 1
    15   16    2 1
    16   17    2 1
    17   18    3 1
    18   19    3 1
    19   20   15 1
@<TRIPOS>SUBSTRUCTURE
     1 RES1 1

@<TRIPOS>CRYSIN
   6.1307   16.7082    8.5025  90.0000  98.2960  90.0000 231 1

