# MOL2 file generated by ConQuest
# Please check atom types

@<TRIPOS>MOLECULE
NACXEU
    26    30     1
SMALL
NO_CHARGES
****
Generated from CSD

@<TRIPOS>ATOM
      1 C1         2.1936    9.1261    2.7472 C.3       1 RES1    0.0000
      2 N1         2.9034    9.5288    3.9847 N.pl3     1 RES1    0.0000
      3 O1         2.7781   10.6483    4.3899 O.2       1 RES1    0.0000
      4 O2         3.5227    8.6467    4.5510 O.2       1 RES1    0.0000
      5 C2         2.5789    7.9344    1.8594 C.3       1 RES1    0.0000
      6 N2         3.7706    7.1082    2.0118 N.pl3     1 RES1    0.0000
      7 O3         4.8377    7.6901    1.9425 O.2       1 RES1    0.0000
      8 O4         3.6435    5.9351    2.2387 O.2       1 RES1    0.0000
      9 C3         2.2486    8.8468    0.6408 C.3       1 RES1    0.0000
     10 N3         3.0569    9.0191   -0.6234 N.pl3     1 RES1    0.0000
     11 O5         4.0033    8.3045   -0.7874 O.2       1 RES1    0.0000
     12 O6         2.6912    9.8802   -1.3480 O.2       1 RES1    0.0000
     13 C4         0.7770    8.3348    0.6227 C.3       1 RES1    0.0000
     14 H1         0.2075    8.0229   -0.0506 H         1 RES1    0.0000
     15 C5         1.0835    7.4806    1.8551 C.3       1 RES1    0.0000
     16 N4         0.6810    6.0771    2.1513 N.pl3     1 RES1    0.0000
     17 O7         0.2236    5.4231    1.2570 O.2       1 RES1    0.0000
     18 O8         0.8580    5.6907    3.2832 O.2       1 RES1    0.0000
     19 C6         0.7012    8.6280    2.7884 C.3       1 RES1    0.0000
     20 H2         0.1879    8.4861    3.5397 H         1 RES1    0.0000
     21 C7         0.4019    9.5055    1.5654 C.3       1 RES1    0.0000
     22 N5        -0.8021   10.3038    1.4202 N.pl3     1 RES1    0.0000
     23 O9        -1.4572   10.5785    2.3860 O.2       1 RES1    0.0000
     24 O10       -1.0960   10.6716    0.2976 O.2       1 RES1    0.0000
     25 C8         1.8804   10.0315    1.5242 C.3       1 RES1    0.0000
     26 H3         2.1171   10.9486    1.4087 H         1 RES1    0.0000
@<TRIPOS>BOND
     1    1    2 1
     2    2    3 2
     3    4    2 2
     4    5    1 1
     5    6    5 1
     6    7    6 2
     7    8    6 2
     8    9    5 1
     9   10    9 1
    10   11   10 2
    11   12   10 2
    12   13    9 1
    13   14   13 1
    14   15    5 1
    15   16   15 1
    16   17   16 2
    17   18   16 2
    18   19    1 1
    19   20   19 1
    20   21   13 1
    21   22   21 1
    22   23   22 2
    23   24   22 2
    24   25    1 1
    25   26   25 1
    26    9   25 1
    27   13   15 1
    28   15   19 1
    29   19   21 1
    30   21   25 1
@<TRIPOS>SUBSTRUCTURE
     1 RES1 1

@<TRIPOS>CRYSIN
   6.6370   23.2750    7.8600  90.0000 113.2100  90.0000  14 1

