# MOL2 file generated by ConQuest
# Please check atom types

@<TRIPOS>MOLECULE
NADDAY
    30    31     1
SMALL
NO_CHARGES
****
Generated from CSD

@<TRIPOS>ATOM
      1 O1         0.8154    5.3521    5.7438 O.2       1 RES1    0.0000
      2 O2         3.1852    5.4489    7.8839 O.3       1 RES1    0.0000
      3 H1         3.9098    5.7065    7.5973 H         1 RES1    0.0000
      4 O3         4.2643    9.4590   13.3641 O.2       1 RES1    0.0000
      5 O4         3.3587   11.1025   12.3651 O.2       1 RES1    0.0000
      6 N1         3.6425    9.9356   12.4371 N.pl3     1 RES1    0.0000
      7 C1         0.4993    5.1480    6.9011 C.2       1 RES1    0.0000
      8 C2        -0.3908    4.0446    7.3640 C.3       1 RES1    0.0000
      9 H2         0.0578    3.1880    7.2870 H         1 RES1    0.0000
     10 H3        -1.2056    4.0190    6.8378 H         1 RES1    0.0000
     11 C3        -0.7000    4.3587    8.8122 C.3       1 RES1    0.0000
     12 H4        -0.8034    3.5436    9.3297 H         1 RES1    0.0000
     13 H5        -1.5107    4.8853    8.8879 H         1 RES1    0.0000
     14 C4         0.5240    5.1590    9.2850 C.3       1 RES1    0.0000
     15 H6         0.3032    5.7065   10.0544 H         1 RES1    0.0000
     16 H7         1.2560    4.5676    9.5196 H         1 RES1    0.0000
     17 C5         0.8843    6.0193    8.0937 C.3       1 RES1    0.0000
     18 H8         0.2812    6.7915    8.0974 H         1 RES1    0.0000
     19 C6         2.3064    6.5533    8.0056 C.3       1 RES1    0.0000
     20 H9         2.3784    7.0885    7.1878 H         1 RES1    0.0000
     21 C7         2.6461    7.4441    9.1795 C.ar      1 RES1    0.0000
     22 C8         3.2073    6.8991   10.3398 C.ar      1 RES1    0.0000
     23 H10        3.3766    5.9863   10.3870 H         1 RES1    0.0000
     24 C9         3.5140    7.7129   11.4158 C.ar      1 RES1    0.0000
     25 H11        3.8833    7.3549   12.1901 H         1 RES1    0.0000
     26 C10        3.2622    9.0570   11.3190 C.ar      1 RES1    0.0000
     27 C11        2.7067    9.6264   10.1959 C.ar      1 RES1    0.0000
     28 H12        2.5402   10.5405   10.1587 H         1 RES1    0.0000
     29 C12        2.4011    8.8041    9.1237 C.ar      1 RES1    0.0000
     30 H13        2.0257    9.1719    8.3568 H         1 RES1    0.0000
@<TRIPOS>BOND
     1    1    7 2
     2    2    3 1
     3    4    6 2
     4    5    6 2
     5    6   26 1
     6    7    8 1
     7    8    9 1
     8   10    8 1
     9   11    8 1
    10   12   11 1
    11   13   11 1
    12   14   11 1
    13   15   14 1
    14   16   14 1
    15   17    7 1
    16   18   17 1
    17   19    2 1
    18   20   19 1
    19   21   19 1
    20   22   21 ar
    21   23   22 1
    22   24   22 ar
    23   25   24 1
    24   26   24 ar
    25   27   26 ar
    26   28   27 1
    27   29   21 ar
    28   30   29 1
    29   14   17 1
    30   17   19 1
    31   27   29 ar
@<TRIPOS>SUBSTRUCTURE
     1 RES1 1

@<TRIPOS>CRYSIN
   7.5141   12.2194   12.4822  90.0000  96.1740  90.0000  14 2

