# MOL2 file generated by ConQuest
# Please check atom types

@<TRIPOS>MOLECULE
NADDEC
    33    34     1
SMALL
NO_CHARGES
****
Generated from CSD

@<TRIPOS>ATOM
      1 O1         2.2665   13.6484    5.6166 O.2       1 RES1    0.0000
      2 O2         0.9413   14.1354    3.1644 O.3       1 RES1    0.0000
      3 H1         1.5060   13.6395    3.4924 H         1 RES1    0.0000
      4 O3        -2.5767   19.9640    1.1831 O.2       1 RES1    0.0000
      5 O4        -3.4897   18.2531    0.2860 O.2       1 RES1    0.0000
      6 N1        -2.6925   18.7657    1.0477 N.pl3     1 RES1    0.0000
      7 C1         1.2189   13.9993    6.1174 C.2       1 RES1    0.0000
      8 C2         0.8425   13.6305    7.5215 C.3       1 RES1    0.0000
      9 H2         1.5711   13.1430    7.9372 H         1 RES1    0.0000
     10 H3         0.0627   13.0535    7.5086 H         1 RES1    0.0000
     11 C3         0.5389   14.8788    8.3274 C.3       1 RES1    0.0000
     12 H4         0.2435   14.6272    9.2165 H         1 RES1    0.0000
     13 H5         1.3455   15.4103    8.4183 H         1 RES1    0.0000
     14 C4        -0.5312   15.7020    7.6583 C.3       1 RES1    0.0000
     15 H6        -0.6974   16.5004    8.1822 H         1 RES1    0.0000
     16 H7        -1.3545   15.1902    7.6209 H         1 RES1    0.0000
     17 C5        -0.1176   16.0987    6.2489 C.3       1 RES1    0.0000
     18 H8         0.6530   16.6847    6.2970 H         1 RES1    0.0000
     19 H9        -0.8418   16.5926    5.8319 H         1 RES1    0.0000
     20 C6         0.2296   14.8778    5.3786 C.3       1 RES1    0.0000
     21 H10       -0.5916   14.3611    5.2439 H         1 RES1    0.0000
     22 C7         0.7672   15.2752    4.0002 C.3       1 RES1    0.0000
     23 H11        1.6337   15.7174    4.1151 H         1 RES1    0.0000
     24 C8        -0.1641   16.2108    3.2579 C.ar      1 RES1    0.0000
     25 C9         0.0968   17.5688    3.2069 C.ar      1 RES1    0.0000
     26 H12        0.8383   17.9130    3.6510 H         1 RES1    0.0000
     27 C10       -0.7374   18.4217    2.4999 C.ar      1 RES1    0.0000
     28 H13       -0.5659   19.3358    2.4687 H         1 RES1    0.0000
     29 C11       -1.8221   17.8884    1.8474 C.ar      1 RES1    0.0000
     30 C12       -2.1216   16.5465    1.8964 C.ar      1 RES1    0.0000
     31 H14       -2.8704   16.2087    1.4593 H         1 RES1    0.0000
     32 C13       -1.2828   15.7102    2.6118 C.ar      1 RES1    0.0000
     33 H15       -1.4722   14.8013    2.6594 H         1 RES1    0.0000
@<TRIPOS>BOND
     1    1    7 2
     2    2    3 1
     3    4    6 2
     4    5    6 2
     5    6   29 1
     6    7    8 1
     7    8    9 1
     8   10    8 1
     9   11    8 1
    10   12   11 1
    11   13   11 1
    12   14   11 1
    13   15   14 1
    14   16   14 1
    15   17   14 1
    16   18   17 1
    17   19   17 1
    18   20    7 1
    19   21   20 1
    20   22    2 1
    21   23   22 1
    22   24   22 1
    23   25   24 ar
    24   26   25 1
    25   27   25 ar
    26   28   27 1
    27   29   27 ar
    28   30   29 ar
    29   31   30 1
    30   32   24 ar
    31   33   32 1
    32   17   20 1
    33   20   22 1
    34   30   32 ar
@<TRIPOS>SUBSTRUCTURE
     1 RES1 1

@<TRIPOS>CRYSIN
   5.4517   25.5900    8.9124  90.0000  91.5430  90.0000  14 1

