# MOL2 file generated by ConQuest
# Please check atom types

@<TRIPOS>MOLECULE
NADHOP01
    35    32     2
SMALL
NO_CHARGES
****
Generated from CSD

@<TRIPOS>ATOM
      1 C1         3.9912   -0.5053    9.2546 C.3       1 RES1    0.0000
      2 N1         5.3466   -1.0782    8.8576 N.pl3     1 RES1    0.0000
      3 O1         5.4601   -1.5755    7.7516 O.2       1 RES1    0.0000
      4 O2         6.2310   -0.9787    9.6531 O.2       1 RES1    0.0000
      5 O3         5.3444   -2.1245    8.2090 Du        2 SUP2    0.0000
      6 O4         6.3634   -0.5729    9.3249 Du        2 SUP2    0.0000
      7 O5         5.6213   -0.9946    7.6213 Du        2 SUP2    0.0000
      8 O6         6.0774   -1.5039    9.7923 Du        2 SUP2    0.0000
      9 C2         4.1999    1.0034    9.4023 C.3       1 RES1    0.0000
     10 H1         4.8380    1.1880   10.1083 H         1 RES1    0.0000
     11 H2         4.5378    1.3797    8.5747 H         1 RES1    0.0000
     12 N2         2.8990    1.5806    9.7300 N.3       1 RES1    0.0000
     13 N3         2.9415    2.8518   10.2528 N.pl3     1 RES1    0.0000
     14 O7         4.0132    3.2584   10.6651 O.2       1 RES1    0.0000
     15 O8         1.8952    3.4708   10.3171 O.2       1 RES1    0.0000
     16 C3         1.7280    1.2795    8.9013 C.3       1 RES1    0.0000
     17 H3         1.7986    1.7394    8.0499 H         1 RES1    0.0000
     18 H4         0.9212    1.5850    9.3459 H         1 RES1    0.0000
     19 C4         1.6545   -0.2323    8.6716 C.3       1 RES1    0.0000
     20 N4         0.5803   -0.4806    7.6183 N.pl3     1 RES1    0.0000
     21 O9        -0.1817    0.4130    7.3605 O.2       1 RES1    0.0000
     22 O10        0.5400   -1.5771    7.1156 O.2       1 RES1    0.0000
     23 C5         1.2169   -1.0320    9.9083 C.3       1 RES1    0.0000
     24 H5         0.3696   -0.6939   10.2364 H         1 RES1    0.0000
     25 H6         1.1025   -1.9662    9.6741 H         1 RES1    0.0000
     26 N5         2.2325   -0.9017   10.9383 N.3       1 RES1    0.0000
     27 N6         2.0099    0.0167   11.9357 N.pl3     1 RES1    0.0000
     28 O11        2.9314    0.2403   12.7067 O.2       1 RES1    0.0000
     29 O12        0.8981    0.5108   12.0151 O.2       1 RES1    0.0000
     30 C6         3.6105   -1.2055   10.5708 C.3       1 RES1    0.0000
     31 H7         3.7141   -2.1651   10.4685 H         1 RES1    0.0000
     32 H8         4.2058   -0.9127   11.2772 H         1 RES1    0.0000
     33 C7         2.9762   -0.7949    8.1599 C.3       1 RES1    0.0000
     34 H9         2.9037   -1.7489    8.0035 H         1 RES1    0.0000
     35 H10        3.2346   -0.3612    7.3307 H         1 RES1    0.0000
@<TRIPOS>BOND
     1    1    2 1
     2    2    3 2
     3    4    2 2
     4    9    1 1
     5   10    9 1
     6   11    9 1
     7   12    9 1
     8   13   12 1
     9   14   13 2
    10   15   13 2
    11   16   12 1
    12   17   16 1
    13   18   16 1
    14   19   16 1
    15   20   19 1
    16   21   20 2
    17   22   20 2
    18   23   19 1
    19   24   23 1
    20   25   23 1
    21   26   23 1
    22   27   26 1
    23   28   27 2
    24   29   27 2
    25   30    1 1
    26   31   30 1
    27   32   30 1
    28   33    1 1
    29   34   33 1
    30   35   33 1
    31   19   33 1
    32   26   30 1
@<TRIPOS>SUBSTRUCTURE
     1 RES1 1
     2 SUP2 5

@<TRIPOS>CRYSIN
  13.5750    7.9570   11.0684  90.0000  93.4360  90.0000  14 1

