# MOL2 file generated by ConQuest
# Please check atom types

@<TRIPOS>MOLECULE
NADJOR
    45    46     1
SMALL
NO_CHARGES
****
Generated from CSD

@<TRIPOS>ATOM
      1 O1         6.5910    0.7610    4.6023 O.3       1 RES1    0.0000
      2 O2         4.7893    0.1881    5.5372 O.2       1 RES1    0.0000
      3 O3         1.2886    2.7452    1.4713 O.2       1 RES1    0.0000
      4 N1         2.2405    2.2452    2.1907 N.3       1 RES1    0.0000
      5 N2         5.6980    1.9769    2.9174 N.2       1 RES1    0.0000
      6 C1         8.9480    0.7771    2.8133 C.3       1 RES1    0.0000
      7 C2         8.7926    2.5586    4.5423 C.3       1 RES1    0.0000
      8 C3         8.1648    3.1010    2.1518 C.3       1 RES1    0.0000
      9 C4         8.1654    2.0411    3.2477 C.3       1 RES1    0.0000
     10 C5         6.7463    1.6401    3.5211 C.2       1 RES1    0.0000
     11 C6         5.2498    0.5205    4.7064 C.2       1 RES1    0.0000
     12 C7         4.5735    1.3238    3.5958 C.3       1 RES1    0.0000
     13 C8         3.6072    2.3006    4.2226 C.3       1 RES1    0.0000
     14 C9         2.7773    3.1257    3.2445 C.3       1 RES1    0.0000
     15 C10        2.9482    1.0570    1.6112 C.3       1 RES1    0.0000
     16 C11        3.7711    0.3849    2.6924 C.3       1 RES1    0.0000
     17 C12        3.5446    4.3052    2.6629 C.3       1 RES1    0.0000
     18 C13        1.5646    3.6652    4.0144 C.3       1 RES1    0.0000
     19 C14        1.8408    0.1195    1.1621 C.3       1 RES1    0.0000
     20 C15        3.7716    1.4783    0.3954 C.3       1 RES1    0.0000
     21 H1         9.8593    1.0788    2.6398 H         1 RES1    0.0000
     22 H2         8.5415    0.4519    2.0088 H         1 RES1    0.0000
     23 H3         8.9268    0.1021    3.5442 H         1 RES1    0.0000
     24 H4         9.7095    2.8866    4.2068 H         1 RES1    0.0000
     25 H5         8.4640    1.9098    5.3742 H         1 RES1    0.0000
     26 H6         8.2292    3.2657    4.9115 H         1 RES1    0.0000
     27 H7         9.0332    3.3823    2.0824 H         1 RES1    0.0000
     28 H8         7.7275    3.8780    2.4715 H         1 RES1    0.0000
     29 H9         7.7921    2.6825    1.3672 H         1 RES1    0.0000
     30 H10        3.0231    1.8078    4.7958 H         1 RES1    0.0000
     31 H11        4.1104    2.9304    4.7853 H         1 RES1    0.0000
     32 H12        3.1517    0.1166    3.3549 H         1 RES1    0.0000
     33 H13        4.3257    0.2187    2.2401 H         1 RES1    0.0000
     34 H14        3.7311    4.9423    3.3234 H         1 RES1    0.0000
     35 H15        3.0054    4.8111    2.0824 H         1 RES1    0.0000
     36 H16        4.2980    4.0967    2.2296 H         1 RES1    0.0000
     37 H17        1.9023    4.4029    4.7642 H         1 RES1    0.0000
     38 H18        1.0893    2.8575    4.5223 H         1 RES1    0.0000
     39 H19        1.0488    4.0821    3.3865 H         1 RES1    0.0000
     40 H20        1.2394    0.5540    0.4417 H         1 RES1    0.0000
     41 H21        1.2376    0.0292    1.8720 H         1 RES1    0.0000
     42 H22        2.2579   -0.6561    0.8834 H         1 RES1    0.0000
     43 H23        4.5972    2.0702    0.6941 H         1 RES1    0.0000
     44 H24        3.0209    2.0702    0.2209 H         1 RES1    0.0000
     45 H25        4.2728    0.6998    0.0421 H         1 RES1    0.0000
@<TRIPOS>BOND
     1    1   10 1
     2    2   11 2
     3    3    4 1
     4    4   14 1
     5    5   10 2
     6    6    9 1
     7    7    9 1
     8    8    9 1
     9    9   10 1
    10   11    1 1
    11   12    5 1
    12   13   12 1
    13   14   13 1
    14   15    4 1
    15   16   12 1
    16   17   14 1
    17   18   14 1
    18   19   15 1
    19   20   15 1
    20   21    6 1
    21   22    6 1
    22   23    6 1
    23   24    7 1
    24   25    7 1
    25   26    7 1
    26   27    8 1
    27   28    8 1
    28   29    8 1
    29   30   13 1
    30   31   13 1
    31   32   16 1
    32   33   16 1
    33   34   17 1
    34   35   17 1
    35   36   17 1
    36   37   18 1
    37   38   18 1
    38   39   18 1
    39   40   19 1
    40   41   19 1
    41   42   19 1
    42   43   20 1
    43   44   20 1
    44   45   20 1
    45   11   12 1
    46   15   16 1
@<TRIPOS>SUBSTRUCTURE
     1 RES1 1

@<TRIPOS>CRYSIN
  11.0400   14.5790   11.8460  90.0000 117.4000  90.0000 231 1

