# MOL2 file generated by ConQuest
# Please check atom types

@<TRIPOS>MOLECULE
NADLOT
    47    50     1
SMALL
NO_CHARGES
****
Generated from CSD

@<TRIPOS>ATOM
      1 O1         1.9305    6.5392    3.4289 O.3       1 RES1    0.0000
      2 O2         0.8243    4.9225    2.3521 O.2       1 RES1    0.0000
      3 O3         1.3493    6.1791    7.0067 O.3       1 RES1    0.0000
      4 O4         1.7871    6.8368   -3.5234 O.2       1 RES1    0.0000
      5 O5         0.7352    5.2220   -2.5121 O.2       1 RES1    0.0000
      6 O6         3.5731   10.3977    1.1857 O.2       1 RES1    0.0000
      7 O7         3.3933   10.6035   -0.9696 O.2       1 RES1    0.0000
      8 N1         1.3538    6.2573   -2.5473 N.pl3     1 RES1    0.0000
      9 N2         3.2214    9.9817    0.0896 N.pl3     1 RES1    0.0000
     10 C1         1.8356    5.7885    4.7058 C.3       1 RES1    0.0000
     11 C2         1.8818    6.8823    5.8419 C.3       1 RES1    0.0000
     12 C3         3.2658    7.3251    6.1939 C.3       1 RES1    0.0000
     13 C4         4.0576    7.8851    4.9666 C.3       1 RES1    0.0000
     14 C5         4.7333    6.6610    4.3426 C.3       1 RES1    0.0000
     15 C6         4.3288    5.4694    5.2274 C.3       1 RES1    0.0000
     16 C7         3.0241    4.8769    4.7986 C.3       1 RES1    0.0000
     17 C8         4.1251    6.1791    6.5971 C.3       1 RES1    0.0000
     18 C9         1.4153    5.9708    2.3585 C.2       1 RES1    0.0000
     19 C10        1.6489    6.8042    1.1488 C.ar      1 RES1    0.0000
     20 C11        1.3196    6.2312   -0.0848 C.ar      1 RES1    0.0000
     21 C12        1.6282    6.9084   -1.2321 C.ar      1 RES1    0.0000
     22 C13        2.2326    8.1325   -1.2145 C.ar      1 RES1    0.0000
     23 C14        2.5300    8.6664    0.0256 C.ar      1 RES1    0.0000
     24 C15        2.2489    8.0153    1.2193 C.ar      1 RES1    0.0000
     25 C16       -0.0619    6.4461    7.1379 C.3       1 RES1    0.0000
     26 C17       -0.3662    7.5855    6.1715 C.3       1 RES1    0.0000
     27 C18        0.8843    7.9567    5.6514 C.3       1 RES1    0.0000
     28 H1         0.9958    5.2806    4.7490 H         1 RES1    0.0000
     29 H2         3.2348    7.9958    6.9091 H         1 RES1    0.0000
     30 H3         5.0372    4.7988    5.2722 H         1 RES1    0.0000
     31 H4         0.8978    5.4043   -0.1232 H         1 RES1    0.0000
     32 H5         2.4326    8.5948   -2.0001 H         1 RES1    0.0000
     33 H6         2.4664    8.3994    2.0385 H         1 RES1    0.0000
     34 H7         3.4589    8.3018    4.3330 H         1 RES1    0.0000
     35 H8         4.7177    8.5297    5.2514 H         1 RES1    0.0000
     36 H9         5.6972    6.7651    4.3346 H         1 RES1    0.0000
     37 H10        4.4257    6.5242    3.4321 H         1 RES1    0.0000
     38 H11        2.8118    4.1607    5.4194 H         1 RES1    0.0000
     39 H12        3.1554    4.4667    3.9282 H         1 RES1    0.0000
     40 H13        3.6743    5.5996    7.2339 H         1 RES1    0.0000
     41 H14        4.9677    6.4786    6.9747 H         1 RES1    0.0000
     42 H15       -0.2797    6.7000    8.0467 H         1 RES1    0.0000
     43 H16       -0.5751    5.6582    6.9059 H         1 RES1    0.0000
     44 H17       -0.9588    7.2860    5.4642 H         1 RES1    0.0000
     45 H18       -0.7748    8.3278    6.6371 H         1 RES1    0.0000
     46 H19        1.1889    8.7641    6.0947 H         1 RES1    0.0000
     47 H20        0.7949    8.1520    4.7042 H         1 RES1    0.0000
@<TRIPOS>BOND
     1    1   10 1
     2    2   18 2
     3    3   11 1
     4    4    8 2
     5    5    8 2
     6    6    9 2
     7    7    9 2
     8    8   21 1
     9    9   23 1
    10   10   11 1
    11   11   12 1
    12   12   13 1
    13   13   14 1
    14   14   15 1
    15   15   16 1
    16   16   10 1
    17   17   12 1
    18   18    1 1
    19   19   18 1
    20   20   19 ar
    21   21   20 ar
    22   22   21 ar
    23   23   22 ar
    24   24   19 ar
    25   25    3 1
    26   26   25 1
    27   27   11 1
    28   28   10 1
    29   29   12 1
    30   30   15 1
    31   31   20 1
    32   32   22 1
    33   33   24 1
    34   34   13 1
    35   35   13 1
    36   36   14 1
    37   37   14 1
    38   38   16 1
    39   39   16 1
    40   40   17 1
    41   41   17 1
    42   42   25 1
    43   43   25 1
    44   44   26 1
    45   45   26 1
    46   46   27 1
    47   47   27 1
    48   15   17 1
    49   23   24 ar
    50   26   27 1
@<TRIPOS>SUBSTRUCTURE
     1 RES1 1

@<TRIPOS>CRYSIN
   8.7480    6.5112   16.3210  90.0000 101.3700  90.0000   4 1

