# MOL2 file generated by ConQuest
# Please check atom types

@<TRIPOS>MOLECULE
NAHBOQ
    39    42     1
SMALL
NO_CHARGES
****
Generated from CSD

@<TRIPOS>ATOM
      1 O1         3.5394    2.5769   24.8145 O.3       1 RES1    0.0000
      2 N1         4.4242    3.6414   24.4317 N.2       1 RES1    0.0000
      3 N2         3.0631    5.6720   21.8869 N.3       1 RES1    0.0000
      4 C1         3.7539    4.4365   23.7090 C.2       1 RES1    0.0000
      5 C2         4.2307    5.5462   22.8097 C.3       1 RES1    0.0000
      6 H1         5.0421    5.2354   22.3228 H         1 RES1    0.0000
      7 C3         2.3497    4.3751   21.8807 C.3       1 RES1    0.0000
      8 H2         1.4631    4.5256   21.4726 H         1 RES1    0.0000
      9 H3         2.8329    3.6776   21.3387 H         1 RES1    0.0000
     10 C4         2.3520    4.0209   23.3731 C.3       1 RES1    0.0000
     11 H4         1.6846    4.5446   23.8479 H         1 RES1    0.0000
     12 C5         2.3963    2.5906   23.8886 C.3       1 RES1    0.0000
     13 H5         2.5648    1.9246   23.1523 H         1 RES1    0.0000
     14 H6         1.5913    2.3600   24.3863 H         1 RES1    0.0000
     15 C6         3.4986    6.1386   20.5679 C.3       1 RES1    0.0000
     16 H7         4.1852    5.5260   20.1639 H         1 RES1    0.0000
     17 H8         3.9929    7.0218   20.7152 H         1 RES1    0.0000
     18 C7         2.3613    6.3117   19.5876 C.ar      1 RES1    0.0000
     19 C8         2.3217    5.5478   18.4247 C.ar      1 RES1    0.0000
     20 H9         3.0311    4.8686   18.2987 H         1 RES1    0.0000
     21 C9         1.3028    5.7175   17.4883 C.ar      1 RES1    0.0000
     22 H10        1.2940    5.2020   16.7041 H         1 RES1    0.0000
     23 C10        0.3171    6.6683   17.7088 C.ar      1 RES1    0.0000
     24 H11       -0.3672    6.8122   17.0338 H         1 RES1    0.0000
     25 C11        0.3410    7.4343   18.8642 C.ar      1 RES1    0.0000
     26 H12       -0.3731    8.1174   18.9917 H         1 RES1    0.0000
     27 C12        1.3547    7.2500   19.8009 C.ar      1 RES1    0.0000
     28 H13        1.3523    7.7744   20.5941 H         1 RES1    0.0000
     29 C13        4.5717    6.8604   23.4859 C.ar      1 RES1    0.0000
     30 C14        5.8325    7.4222   23.3149 C.ar      1 RES1    0.0000
     31 H14        6.4935    6.9455   22.7968 H         1 RES1    0.0000
     32 C15        6.1350    8.6568   23.8927 C.ar      1 RES1    0.0000
     33 H15        6.9890    9.0511   23.7603 H         1 RES1    0.0000
     34 C16        5.1831    9.3290   24.6426 C.ar      1 RES1    0.0000
     35 H16        5.3743   10.1944   25.0097 H         1 RES1    0.0000
     36 C17        3.9305    8.7553   24.8415 C.ar      1 RES1    0.0000
     37 H17        3.2701    9.2226   25.3936 H         1 RES1    0.0000
     38 C18        3.6291    7.5201   24.2712 C.ar      1 RES1    0.0000
     39 H18        2.7455    7.1170   24.4121 H         1 RES1    0.0000
@<TRIPOS>BOND
     1    1    2 1
     2    2    4 2
     3    3    5 1
     4    4    5 1
     5    5    6 1
     6    7    3 1
     7    8    7 1
     8    9    7 1
     9   10    4 1
    10   11   10 1
    11   12    1 1
    12   13   12 1
    13   14   12 1
    14   15    3 1
    15   16   15 1
    16   17   15 1
    17   18   15 1
    18   19   18 ar
    19   20   19 1
    20   21   19 ar
    21   22   21 1
    22   23   21 ar
    23   24   23 1
    24   25   23 ar
    25   26   25 1
    26   27   18 ar
    27   28   27 1
    28   29    5 1
    29   30   29 ar
    30   31   30 1
    31   32   30 ar
    32   33   32 1
    33   34   32 ar
    34   35   34 1
    35   36   34 ar
    36   37   36 1
    37   38   29 ar
    38   39   38 1
    39    7   10 1
    40   10   12 1
    41   25   27 ar
    42   36   38 ar
@<TRIPOS>SUBSTRUCTURE
     1 RES1 1

@<TRIPOS>CRYSIN
   5.8290    9.5275   25.7620  90.0000  90.0000  90.0000  19 1

