# MOL2 file generated by ConQuest
# Please check atom types

@<TRIPOS>MOLECULE
NAJKOB
    54    58     1
SMALL
NO_CHARGES
****
Generated from CSD

@<TRIPOS>ATOM
      1 C1         2.0683    6.6369   16.8657 C.3       1 RES1    0.0000
      2 H1         2.6274    7.2318   16.3605 H         1 RES1    0.0000
      3 H2         2.5476    6.3274   17.6383 H         1 RES1    0.0000
      4 H3         1.2756    7.1006   17.1453 H         1 RES1    0.0000
      5 C2         1.6829    5.4521   16.0040 C.ar      1 RES1    0.0000
      6 C3         1.0586    4.3666   16.5511 C.ar      1 RES1    0.0000
      7 H4         0.8698    4.3673   17.4635 H         1 RES1    0.0000
      8 C4         0.6972    3.2667   15.7925 C.ar      1 RES1    0.0000
      9 H5         0.2664    2.5457   16.1927 H         1 RES1    0.0000
     10 C5         0.9799    3.2419   14.4350 C.ar      1 RES1    0.0000
     11 C6         1.6119    4.3364   13.8890 C.ar      1 RES1    0.0000
     12 H6         1.8119    4.3425   12.9801 H         1 RES1    0.0000
     13 C7         1.9550    5.4239   14.6668 C.ar      1 RES1    0.0000
     14 H7         2.3794    6.1508   14.2718 H         1 RES1    0.0000
     15 C8         0.6299    2.0739   13.6163 C.2       1 RES1    0.0000
     16 C9         0.3025    0.8794   11.9446 C.2       1 RES1    0.0000
     17 C10        0.1334    0.1944   10.6279 C.3       1 RES1    0.0000
     18 H8         0.6962   -0.5958   10.6099 H         1 RES1    0.0000
     19 H9        -0.7878   -0.0962   10.5400 H         1 RES1    0.0000
     20 C11       -0.5530    1.7739    8.8770 C.2       1 RES1    0.0000
     21 C12        1.8045    1.0149    9.0735 C.2       1 RES1    0.0000
     22 C13        1.1221    2.5450    7.3481 C.2       1 RES1    0.0000
     23 H10        1.3636    3.0693    6.6194 H         1 RES1    0.0000
     24 C14       -0.1436    2.5469    7.7487 C.2       1 RES1    0.0000
     25 H11       -0.7706    3.0570    7.2888 H         1 RES1    0.0000
     26 C15        3.4472    1.7977    7.4797 C.3       1 RES1    0.0000
     27 H12        4.0541    1.6184    8.2152 H         1 RES1    0.0000
     28 H13        3.6590    2.6747    7.1245 H         1 RES1    0.0000
     29 C16        3.6502    0.7715    6.4119 C.2       1 RES1    0.0000
     30 C17        3.6880   -0.7816    5.0445 C.2       1 RES1    0.0000
     31 C18        3.3117   -1.9887    4.3196 C.ar      1 RES1    0.0000
     32 C19        2.5138   -2.9291    4.9326 C.ar      1 RES1    0.0000
     33 H14        2.1962   -2.7707    5.7926 H         1 RES1    0.0000
     34 C20        2.1792   -4.1089    4.2876 C.ar      1 RES1    0.0000
     35 H15        1.6472   -4.7340    4.7246 H         1 RES1    0.0000
     36 C21        2.6170   -4.3697    3.0169 C.ar      1 RES1    0.0000
     37 C22        3.3938   -3.4160    2.3981 C.ar      1 RES1    0.0000
     38 H16        3.6902   -3.5671    1.5294 H         1 RES1    0.0000
     39 C23        3.7464   -2.2403    3.0344 C.ar      1 RES1    0.0000
     40 H17        4.2787   -1.6175    2.5957 H         1 RES1    0.0000
     41 C24        2.2692   -5.6576    2.3038 C.3       1 RES1    0.0000
     42 H18        3.0339   -6.2384    2.3003 H         1 RES1    0.0000
     43 H19        2.0122   -5.4638    1.4001 H         1 RES1    0.0000
     44 H20        1.5422   -6.0887    2.7582 H         1 RES1    0.0000
     45 N1         0.1761    0.9799   14.1365 N.2       1 RES1    0.0000
     46 N2         0.7342    2.0519   12.2340 N.2       1 RES1    0.0000
     47 N3         0.4703    1.0357    9.4961 N.am      1 RES1    0.0000
     48 N4         2.0850    1.7980    7.9738 N.am      1 RES1    0.0000
     49 N5         2.9191   -0.2004    6.0405 N.2       1 RES1    0.0000
     50 N6         4.8196   -0.1831    4.8171 N.2       1 RES1    0.0000
     51 O1        -0.0599    0.1541   13.0057 O.3       1 RES1    0.0000
     52 O2        -1.6883    1.7242    9.3327 O.2       1 RES1    0.0000
     53 O3         2.6416    0.3667    9.6501 O.2       1 RES1    0.0000
     54 O4         4.8197    0.8950    5.7505 O.3       1 RES1    0.0000
@<TRIPOS>BOND
     1    1    2 1
     2    3    1 1
     3    4    1 1
     4    5    1 1
     5    6    5 ar
     6    7    6 1
     7    8    6 ar
     8    9    8 1
     9   10    8 ar
    10   11   10 ar
    11   12   11 1
    12   13    5 ar
    13   14   13 1
    14   15   10 1
    15   16   17 1
    16   17   18 1
    17   19   17 1
    18   20   24 1
    19   21   47 1
    20   22   23 1
    21   24   22 2
    22   25   24 1
    23   26   27 1
    24   28   26 1
    25   29   26 1
    26   30   31 1
    27   31   32 ar
    28   32   33 1
    29   34   32 ar
    30   35   34 1
    31   36   34 ar
    32   37   36 ar
    33   38   37 1
    34   39   31 ar
    35   40   39 1
    36   41   36 1
    37   42   41 1
    38   43   41 1
    39   44   41 1
    40   45   15 2
    41   46   15 1
    42   47   17 1
    43   48   21 1
    44   49   29 2
    45   50   30 2
    46   51   16 1
    47   52   20 2
    48   53   21 2
    49   54   29 1
    50   11   13 ar
    51   16   46 2
    52   20   47 1
    53   22   48 1
    54   26   48 1
    55   30   49 1
    56   37   39 ar
    57   45   51 1
    58   50   54 1
@<TRIPOS>SUBSTRUCTURE
     1 RES1 1

@<TRIPOS>CRYSIN
   8.1713    8.5469   17.5046  92.0870  91.0990 116.5810   2 1

