# MOL2 file generated by ConQuest
# Please check atom types

@<TRIPOS>MOLECULE
NAJYOO
    53    54     1
SMALL
NO_CHARGES
****
Generated from CSD

@<TRIPOS>ATOM
      1 O1        -1.4095    4.6491    7.7619 O.2       1 RES1    0.0000
      2 O2         0.1920    3.2755    6.9649 O.3       1 RES1    0.0000
      3 O3         0.2560    2.6152    9.5111 O.2       1 RES1    0.0000
      4 O4        -3.0936    0.2743    4.1754 O.2       1 RES1    0.0000
      5 O5         3.0069    6.0047   12.7772 O.2       1 RES1    0.0000
      6 N1        -2.9281    1.2924    4.9284 N.3       1 RES1    0.0000
      7 N2         1.0984    3.8760    7.8687 N.am      1 RES1    0.0000
      8 H1         1.5960    4.8150    7.5285 H         1 RES1    0.0000
      9 N3         2.8858    5.3094   11.7358 N.3       1 RES1    0.0000
     10 C1        -4.0666    2.1197    5.3973 C.3       1 RES1    0.0000
     11 C2        -3.3252    3.0949    6.2361 C.2       1 RES1    0.0000
     12 H2        -3.7392    3.7947    6.6875 H         1 RES1    0.0000
     13 C3        -2.0070    2.8737    6.2824 C.2       1 RES1    0.0000
     14 C4        -1.5999    1.6626    5.4667 C.3       1 RES1    0.0000
     15 C5        -1.1001    3.7157    7.0937 C.2       1 RES1    0.0000
     16 C6         1.0285    3.4482    9.1423 C.2       1 RES1    0.0000
     17 C7         2.0255    4.1220   10.0164 C.2       1 RES1    0.0000
     18 C8         1.5742    4.8636   11.2361 C.3       1 RES1    0.0000
     19 C9         4.0433    4.9087   10.9069 C.3       1 RES1    0.0000
     20 C10        3.3263    4.1412    9.8688 C.2       1 RES1    0.0000
     21 H3         3.7606    3.7089    9.1698 H         1 RES1    0.0000
     22 C11       -4.7731    2.7484    4.2128 C.3       1 RES1    0.0000
     23 H4        -4.1344    3.2168    3.6712 H         1 RES1    0.0000
     24 H5        -5.4387    3.3635    4.5277 H         1 RES1    0.0000
     25 H6        -5.1930    2.0610    3.6899 H         1 RES1    0.0000
     26 C12       -5.0253    1.2450    6.2075 C.3       1 RES1    0.0000
     27 H7        -4.5519    0.8454    6.9407 H         1 RES1    0.0000
     28 H8        -5.3828    0.5542    5.6439 H         1 RES1    0.0000
     29 H9        -5.7431    1.7845    6.5466 H         1 RES1    0.0000
     30 C13       -0.6690    2.0125    4.2866 C.3       1 RES1    0.0000
     31 H10       -1.0825    2.6863    3.7428 H         1 RES1    0.0000
     32 H11       -0.5133    1.2258    3.7593 H         1 RES1    0.0000
     33 H12        0.1660    2.3421    4.6256 H         1 RES1    0.0000
     34 C14       -1.0555    0.5373    6.3220 C.3       1 RES1    0.0000
     35 H13       -1.6899    0.3228    7.0100 H         1 RES1    0.0000
     36 H14       -0.2281    0.8127    6.7227 H         1 RES1    0.0000
     37 H15       -0.9040   -0.2359    5.7738 H         1 RES1    0.0000
     38 C15        0.7386    6.0690   10.8640 C.3       1 RES1    0.0000
     39 H16        1.2304    6.6232   10.2541 H         1 RES1    0.0000
     40 H17        0.5311    6.5702   11.6566 H         1 RES1    0.0000
     41 H18       -0.0752    5.7778   10.4468 H         1 RES1    0.0000
     42 C16        0.8959    3.9595   12.2708 C.3       1 RES1    0.0000
     43 H19        1.5088    3.2744   12.5482 H         1 RES1    0.0000
     44 H20        0.1179    3.5531   11.8800 H         1 RES1    0.0000
     45 H21        0.6348    4.4832   13.0315 H         1 RES1    0.0000
     46 C17        5.0182    4.0803   11.7072 C.3       1 RES1    0.0000
     47 H22        4.5580    3.3342   12.1002 H         1 RES1    0.0000
     48 H23        5.4032    4.6198   12.4018 H         1 RES1    0.0000
     49 H24        5.7143    3.7586   11.1293 H         1 RES1    0.0000
     50 C18        4.7332    6.1469   10.3444 C.3       1 RES1    0.0000
     51 H25        4.1035    6.6582    9.8303 H         1 RES1    0.0000
     52 H26        5.4630    5.8794    9.7819 H         1 RES1    0.0000
     53 H27        5.0667    6.6842   11.0676 H         1 RES1    0.0000
@<TRIPOS>BOND
     1    1   15 2
     2    2    7 1
     3    3   16 2
     4    4    6 1
     5    5    9 1
     6    6   10 1
     7    7    8 1
     8    9   18 1
     9   10   11 1
    10   11   12 1
    11   13   11 2
    12   14    6 1
    13   15    2 1
    14   16    7 1
    15   17   16 1
    16   18   17 1
    17   19    9 1
    18   20   17 2
    19   21   20 1
    20   22   10 1
    21   23   22 1
    22   24   22 1
    23   25   22 1
    24   26   10 1
    25   27   26 1
    26   28   26 1
    27   29   26 1
    28   30   14 1
    29   31   30 1
    30   32   30 1
    31   33   30 1
    32   34   14 1
    33   35   34 1
    34   36   34 1
    35   37   34 1
    36   38   18 1
    37   39   38 1
    38   40   38 1
    39   41   38 1
    40   42   18 1
    41   43   42 1
    42   44   42 1
    43   45   42 1
    44   46   19 1
    45   47   46 1
    46   48   46 1
    47   49   46 1
    48   50   19 1
    49   51   50 1
    50   52   50 1
    51   53   50 1
    52   13   14 1
    53   13   15 1
    54   19   20 1
@<TRIPOS>SUBSTRUCTURE
     1 RES1 1

@<TRIPOS>CRYSIN
   8.1510   11.2870   11.0140  90.0000  91.8600  90.0000   4 1

