# MOL2 file generated by ConQuest
# Please check atom types

@<TRIPOS>MOLECULE
NAJYUU
    77    79     1
SMALL
NO_CHARGES
****
Generated from CSD

@<TRIPOS>ATOM
      1 O1        -6.4566    0.2878  -18.7717 O.3       1 RES1    0.0000
      2 O2        -6.8309   -1.5518  -17.0795 O.3       1 RES1    0.0000
      3 O3        -8.5160   -0.0960  -16.7186 O.2       1 RES1    0.0000
      4 O4        -5.8967    2.4317  -19.2002 O.2       1 RES1    0.0000
      5 O5       -11.9388   -3.6242  -18.9692 O.2       1 RES1    0.0000
      6 O6        -2.1980   -0.5702  -13.6381 O.2       1 RES1    0.0000
      7 N1        -5.6242    0.3794  -17.6296 N.2       1 RES1    0.0000
      8 O7        -8.5529    2.1019  -23.8840 O.2       1 RES1    0.0000
      9 N2        -3.3120   -0.8082  -14.1952 N.3       1 RES1    0.0000
     10 N3       -10.7521   -3.2786  -18.6796 N.3       1 RES1    0.0000
     11 C1        -3.7980   -0.0282  -15.3577 C.3       1 RES1    0.0000
     12 C2        -8.9639   -2.1503  -17.8366 C.2       1 RES1    0.0000
     13 N4        -8.0150    1.5425  -22.8776 N.3       1 RES1    0.0000
     14 C3        -5.8724   -0.5890  -16.8386 C.2       1 RES1    0.0000
     15 C4        -5.0505   -0.8149  -15.6637 C.2       1 RES1    0.0000
     16 C5        -7.3732   -0.0081  -21.3458 C.2       1 RES1    0.0000
     17 H1        -7.2496   -0.8082  -20.8888 H         1 RES1    0.0000
     18 C6       -10.4681   -2.1073  -17.8113 C.3       1 RES1    0.0000
     19 C7        -9.5700   -3.9120  -19.2653 C.3       1 RES1    0.0000
     20 C8        -6.4127    1.4161  -19.5452 C.2       1 RES1    0.0000
     21 C9        -8.4987   -3.1132  -18.6145 C.2       1 RES1    0.0000
     22 H2        -7.5925   -3.2746  -18.7420 H         1 RES1    0.0000
     23 C10       -4.0866    1.4107  -14.9395 C.3       1 RES1    0.0000
     24 H3        -4.6973    1.4120  -14.1998 H         1 RES1    0.0000
     25 H4        -4.4756    1.8854  -15.6761 H         1 RES1    0.0000
     26 H5        -3.2670    1.8383  -14.6793 H         1 RES1    0.0000
     27 C11       -7.0753    1.1700  -20.8373 C.2       1 RES1    0.0000
     28 C12       -7.9284    0.0713  -22.7326 C.3       1 RES1    0.0000
     29 C13       -7.4228    2.3198  -21.7595 C.3       1 RES1    0.0000
     30 C14       -8.1489   -1.1431  -17.1587 C.2       1 RES1    0.0000
     31 C15       -5.2733   -1.7724  -14.7692 C.2       1 RES1    0.0000
     32 H6        -6.0214   -2.3252  -14.7907 H         1 RES1    0.0000
     33 C16       -2.7452   -0.0726  -16.4653 C.3       1 RES1    0.0000
     34 H7        -2.5639   -0.9871  -16.6987 H         1 RES1    0.0000
     35 H8        -1.9371    0.3443  -16.1556 H         1 RES1    0.0000
     36 H9        -3.0719    0.3954  -17.2379 H         1 RES1    0.0000
     37 C17       -4.2055   -1.8773  -13.7211 C.3       1 RES1    0.0000
     38 C18       -6.9760   -0.5204  -23.7528 C.3       1 RES1    0.0000
     39 H10       -6.1149   -0.1062  -23.6643 H         1 RES1    0.0000
     40 H11       -7.3166   -0.3631  -24.6372 H         1 RES1    0.0000
     41 H12       -6.8941   -1.4645  -23.6046 H         1 RES1    0.0000
     42 C19       -9.5919   -3.7318  -20.7828 C.3       1 RES1    0.0000
     43 H13       -9.7085   -2.8026  -20.9943 H         1 RES1    0.0000
     44 H14      -10.3192   -4.2375  -21.1534 H         1 RES1    0.0000
     45 H15       -8.7631   -4.0438  -21.1534 H         1 RES1    0.0000
     46 C20       -9.5053   -5.3900  -18.9211 C.3       1 RES1    0.0000
     47 H16       -9.5319   -5.4989  -17.9681 H         1 RES1    0.0000
     48 H17       -8.6903   -5.7625  -19.2633 H         1 RES1    0.0000
     49 H18      -10.2545   -5.8432  -19.3150 H         1 RES1    0.0000
     50 C21       -9.3160   -0.5379  -22.8903 C.3       1 RES1    0.0000
     51 H19       -9.8817   -0.2340  -22.1761 H         1 RES1    0.0000
     52 H20       -9.2514   -1.4954  -22.8605 H         1 RES1    0.0000
     53 H21       -9.6912   -0.2676  -23.7319 H         1 RES1    0.0000
     54 C22      -11.0522   -0.8459  -18.4376 C.3       1 RES1    0.0000
     55 H22      -10.6413   -0.6926  -19.2912 H         1 RES1    0.0000
     56 H23      -10.8837   -0.0955  -17.8626 H         1 RES1    0.0000
     57 H24      -11.9988   -0.9548  -18.5530 H         1 RES1    0.0000
     58 C23       -8.4791    3.2369  -21.1534 C.3       1 RES1    0.0000
     59 H25       -9.1625    2.7071  -20.7356 H         1 RES1    0.0000
     60 H26       -8.8704    3.7749  -21.8458 H         1 RES1    0.0000
     61 H27       -8.0716    3.8058  -20.4969 H         1 RES1    0.0000
     62 C24       -6.2153    3.0850  -22.2596 C.3       1 RES1    0.0000
     63 H28       -5.5377    2.4650  -22.5422 H         1 RES1    0.0000
     64 H29       -5.8690    3.6350  -21.5533 H         1 RES1    0.0000
     65 H30       -6.4716    3.6390  -22.9998 H         1 RES1    0.0000
     66 C25       -4.7030   -1.5183  -12.3007 C.3       1 RES1    0.0000
     67 H31       -5.0678   -0.6294  -12.3057 H         1 RES1    0.0000
     68 H32       -3.9688   -1.5600  -11.6849 H         1 RES1    0.0000
     69 H33       -5.3830   -2.1409  -12.0331 H         1 RES1    0.0000
     70 C26      -11.0534   -2.3803  -16.4243 C.3       1 RES1    0.0000
     71 H34      -12.0000   -2.5242  -16.4998 H         1 RES1    0.0000
     72 H35      -10.8895   -1.6272  -15.8531 H         1 RES1    0.0000
     73 H36      -10.6401   -3.1630  -16.0501 H         1 RES1    0.0000
     74 C27       -3.5048   -3.2168  -13.7203 C.3       1 RES1    0.0000
     75 H37       -3.0949   -3.3633  -14.5758 H         1 RES1    0.0000
     76 H38       -4.1431   -3.9120  -13.5472 H         1 RES1    0.0000
     77 H39       -2.8306   -3.2235  -13.0378 H         1 RES1    0.0000
@<TRIPOS>BOND
     1    1    7 1
     2    2   14 1
     3    3   30 2
     4    4   20 2
     5    5   10 1
     6    6    9 1
     7    7   14 2
     8    8   13 1
     9    9   11 1
    10   10   18 1
    11   11   15 1
    12   12   18 1
    13   13   28 1
    14   14   15 1
    15   15   31 2
    16   16   17 1
    17   18   54 1
    18   19   10 1
    19   20    1 1
    20   21   12 2
    21   22   21 1
    22   23   11 1
    23   24   23 1
    24   25   23 1
    25   26   23 1
    26   27   16 2
    27   28   16 1
    28   29   13 1
    29   30    2 1
    30   31   32 1
    31   33   11 1
    32   34   33 1
    33   35   33 1
    34   36   33 1
    35   37    9 1
    36   38   28 1
    37   39   38 1
    38   40   38 1
    39   41   38 1
    40   42   19 1
    41   43   42 1
    42   44   42 1
    43   45   42 1
    44   46   19 1
    45   47   46 1
    46   48   46 1
    47   49   46 1
    48   50   28 1
    49   51   50 1
    50   52   50 1
    51   53   50 1
    52   54   55 1
    53   56   54 1
    54   57   54 1
    55   58   29 1
    56   59   58 1
    57   60   58 1
    58   61   58 1
    59   62   29 1
    60   63   62 1
    61   64   62 1
    62   65   62 1
    63   66   37 1
    64   67   66 1
    65   68   66 1
    66   69   66 1
    67   70   18 1
    68   71   70 1
    69   72   70 1
    70   73   70 1
    71   74   37 1
    72   75   74 1
    73   76   74 1
    74   77   74 1
    75   12   30 1
    76   19   21 1
    77   20   27 1
    78   27   29 1
    79   31   37 1
@<TRIPOS>SUBSTRUCTURE
     1 RES1 1

@<TRIPOS>CRYSIN
  11.5440   13.4480   19.8960  90.0000  90.0000  90.0000  19 1

