# MOL2 file generated by ConQuest
# Please check atom types

@<TRIPOS>MOLECULE
NAMLUL
    39    40     1
SMALL
NO_CHARGES
****
Generated from CSD

@<TRIPOS>ATOM
      1 O1         9.7053    7.2815   -0.2910 O.3       1 RES1    0.0000
      2 H1        10.2919    7.1998   -0.8578 H         1 RES1    0.0000
      3 N1        10.0566    8.3041    0.6022 N.2       1 RES1    0.0000
      4 C1         9.4648    9.4139    2.6138 C.ar      1 RES1    0.0000
      5 O2        11.4416   10.2639    1.5574 O.3       1 RES1    0.0000
      6 H2        11.1519    9.8026    0.9451 H         1 RES1    0.0000
      7 N2         7.6668   10.4946    5.6304 N.2       1 RES1    0.0000
      8 C2         8.5536    9.5247    3.6513 C.ar      1 RES1    0.0000
      9 H3         7.8245    8.9471    3.6766 H         1 RES1    0.0000
     10 O3        11.7809   12.0675    3.4246 O.3       1 RES1    0.0000
     11 N3         7.8302   11.3828    6.4810 N.2       1 RES1    0.0000
     12 C3         8.6946   10.4601    4.6405 C.ar      1 RES1    0.0000
     13 C4         9.8150   11.3355    4.6080 C.ar      1 RES1    0.0000
     14 H4         9.9416   11.9549    5.2911 H         1 RES1    0.0000
     15 C5        10.7140   11.2665    3.5661 C.ar      1 RES1    0.0000
     16 C6        10.5334   10.2875    2.5820 C.ar      1 RES1    0.0000
     17 C7         9.2605    8.4276    1.5589 C.2       1 RES1    0.0000
     18 H5         8.5152    7.8718    1.5986 H         1 RES1    0.0000
     19 C8        11.9645   13.1173    4.3625 C.3       1 RES1    0.0000
     20 H6        11.2249   13.7276    4.3069 H         1 RES1    0.0000
     21 H7        12.7798   13.5841    4.1647 H         1 RES1    0.0000
     22 H8        12.0112   12.7522    5.2485 H         1 RES1    0.0000
     23 C9         6.7625   11.4391    7.4384 C.ar      1 RES1    0.0000
     24 C10        7.0196   12.2909    8.5186 C.ar      1 RES1    0.0000
     25 H9         7.8169   12.7686    8.5655 H         1 RES1    0.0000
     26 C11        6.0813   12.4108    9.4991 C.ar      1 RES1    0.0000
     27 H10        6.2477   12.9793   10.2161 H         1 RES1    0.0000
     28 C12        4.8981   11.7151    9.4616 C.ar      1 RES1    0.0000
     29 C13        4.6391   10.9160    8.3785 C.ar      1 RES1    0.0000
     30 H11        3.8210   10.4782    8.3128 H         1 RES1    0.0000
     31 C14        5.5686   10.7543    7.4016 C.ar      1 RES1    0.0000
     32 H12        5.3946   10.1749    6.6969 H         1 RES1    0.0000
     33 C15        3.9338   11.8168   10.6789 C.3       1 RES1    0.0000
     34 H13        3.6289   10.9323   10.9324 H         1 RES1    0.0000
     35 H14        4.3999   12.2055   11.4363 H         1 RES1    0.0000
     36 C16        2.8479   12.6088   10.3432 C.3       1 RES1    0.0000
     37 H15        3.1568   13.4025    9.8998 H         1 RES1    0.0000
     38 H16        2.3702   12.8521   11.1396 H         1 RES1    0.0000
     39 H17        2.2665   12.1202    9.7562 H         1 RES1    0.0000
@<TRIPOS>BOND
     1    1    2 1
     2    3    1 1
     3    4    8 ar
     4    5    6 1
     5    7   11 2
     6    8    9 1
     7   10   15 1
     8   11   23 1
     9   12    7 1
    10   13   12 ar
    11   14   13 1
    12   15   13 ar
    13   16    4 ar
    14   17    3 2
    15   18   17 1
    16   19   10 1
    17   20   19 1
    18   21   19 1
    19   22   19 1
    20   23   24 ar
    21   24   25 1
    22   26   24 ar
    23   27   26 1
    24   28   26 ar
    25   29   28 ar
    26   30   29 1
    27   31   23 ar
    28   32   31 1
    29   33   28 1
    30   34   33 1
    31   35   33 1
    32   36   33 1
    33   37   36 1
    34   38   36 1
    35   39   36 1
    36    4   17 1
    37    5   16 1
    38    8   12 ar
    39   15   16 ar
    40   29   31 ar
@<TRIPOS>SUBSTRUCTURE
     1 RES1 1

@<TRIPOS>CRYSIN
  11.7570   18.1630    7.2960  90.0000  98.2570  90.0000  14 1

