# MOL2 file generated by ConQuest
# Please check atom types

@<TRIPOS>MOLECULE
NAMRUP
    57    59     1
SMALL
NO_CHARGES
****
Generated from CSD

@<TRIPOS>ATOM
      1 O1         3.8472    6.4225    8.6270 O.3       1 RES1    0.0000
      2 O2         1.8063    4.0060   10.3745 O.3       1 RES1    0.0000
      3 O3         1.5914    0.5109   12.3092 O.2       1 RES1    0.0000
      4 O4         0.1270    2.1726   12.6134 O.3       1 RES1    0.0000
      5 N1         2.3252    3.8469    3.5922 N.ar      1 RES1    0.0000
      6 N2         4.0993    6.4340    7.2246 N.2       1 RES1    0.0000
      7 N3         2.6652    4.7636    7.7552 N.2       1 RES1    0.0000
      8 N4         2.6127    6.0138   12.4963 N.3       1 RES1    0.0000
      9 N5         0.8438    0.3422    8.2868 N.3       1 RES1    0.0000
     10 C1         3.1540    4.4648    2.7493 C.ar      1 RES1    0.0000
     11 H1         3.0870    4.2556    1.8465 H         1 RES1    0.0000
     12 C2         4.0969    5.3863    3.1247 C.ar      1 RES1    0.0000
     13 H2         4.6630    5.7680    2.4927 H         1 RES1    0.0000
     14 C3         4.1923    5.7362    4.4514 C.ar      1 RES1    0.0000
     15 H3         4.8096    6.3723    4.7332 H         1 RES1    0.0000
     16 C4         3.3448    5.1154    5.3623 C.ar      1 RES1    0.0000
     17 C5         2.4518    4.1775    4.8779 C.ar      1 RES1    0.0000
     18 H4         1.9007    3.7476    5.4923 H         1 RES1    0.0000
     19 C6         3.3853    5.4489    6.7938 C.2       1 RES1    0.0000
     20 C7         2.9885    5.4036    8.8410 C.2       1 RES1    0.0000
     21 C8         2.5401    5.1761   10.1909 C.2       1 RES1    0.0000
     22 C9         0.4569    4.0175   10.0059 C.ar      1 RES1    0.0000
     23 C10       -0.2194    5.1684    9.6668 C.ar      1 RES1    0.0000
     24 H5         0.2214    5.9868    9.6608 H         1 RES1    0.0000
     25 C11       -1.5652    5.0981    9.3322 C.ar      1 RES1    0.0000
     26 H6        -2.0323    5.8730    9.1197 H         1 RES1    0.0000
     27 C12       -2.2057    3.8864    9.3159 C.ar      1 RES1    0.0000
     28 H7        -3.1034    3.8354    9.0751 H         1 RES1    0.0000
     29 C13       -1.5147    2.7442    9.6566 C.ar      1 RES1    0.0000
     30 H8        -1.9604    1.9278    9.6477 H         1 RES1    0.0000
     31 C14       -0.1659    2.7741   10.0130 C.ar      1 RES1    0.0000
     32 C15        0.5564    1.5384   10.4188 C.2       1 RES1    0.0000
     33 C16        0.8379    1.3263   11.8338 C.2       1 RES1    0.0000
     34 C17        0.2711    1.9991   14.0365 C.3       1 RES1    0.0000
     35 H9        -0.2747    2.6440   14.4938 H         1 RES1    0.0000
     36 H10        1.1902    2.1254   14.2837 H         1 RES1    0.0000
     37 H11       -0.0069    1.1133   14.2811 H         1 RES1    0.0000
     38 C18        0.9003    0.5003    9.6182 C.2       1 RES1    0.0000
     39 H12        1.2368   -0.2371   10.0758 H         1 RES1    0.0000
     40 C19        0.5421    1.4150    7.3538 C.3       1 RES1    0.0000
     41 H13        0.3276    2.2131    7.8432 H         1 RES1    0.0000
     42 H14       -0.2065    1.1625    6.8083 H         1 RES1    0.0000
     43 H15        1.3058    1.5769    6.7951 H         1 RES1    0.0000
     44 C20        1.1718   -0.9340    7.6974 C.3       1 RES1    0.0000
     45 H16        1.3555   -1.5702    8.3921 H         1 RES1    0.0000
     46 H17        1.9458   -0.8396    7.1392 H         1 RES1    0.0000
     47 H18        0.4315   -1.2425    7.1681 H         1 RES1    0.0000
     48 C21        2.8991    6.0138   11.1845 C.2       1 RES1    0.0000
     49 H19        3.4416    6.7184   10.9137 H         1 RES1    0.0000
     50 C22        1.8215    5.0075   13.1668 C.3       1 RES1    0.0000
     51 H20        1.5485    4.3404   12.5317 H         1 RES1    0.0000
     52 H21        1.0444    5.4171   13.5535 H         1 RES1    0.0000
     53 H22        2.3451    4.5968   13.8582 H         1 RES1    0.0000
     54 C23        3.0949    7.0933   13.3455 C.3       1 RES1    0.0000
     55 H23        3.6138    7.7064   12.8207 H         1 RES1    0.0000
     56 H24        3.6416    6.7299   14.0447 H         1 RES1    0.0000
     57 H25        2.3471    7.5560   13.7321 H         1 RES1    0.0000
@<TRIPOS>BOND
     1    1    6 1
     2    2   21 1
     3    3   33 2
     4    4   33 1
     5    5   10 ar
     6    6   19 2
     7    7   19 1
     8    8   48 1
     9    9   38 1
    10   10   11 1
    11   12   10 ar
    12   13   12 1
    13   14   12 ar
    14   15   14 1
    15   16   14 ar
    16   17    5 ar
    17   18   17 1
    18   19   16 1
    19   20    1 1
    20   21   20 1
    21   22    2 1
    22   23   22 ar
    23   24   23 1
    24   25   23 ar
    25   26   25 1
    26   27   25 ar
    27   28   27 1
    28   29   27 ar
    29   30   29 1
    30   31   22 ar
    31   32   31 1
    32   33   32 1
    33   34    4 1
    34   35   34 1
    35   36   34 1
    36   37   34 1
    37   38   32 2
    38   39   38 1
    39   40    9 1
    40   41   40 1
    41   42   40 1
    42   43   40 1
    43   44    9 1
    44   45   44 1
    45   46   44 1
    46   47   44 1
    47   48   21 2
    48   49   48 1
    49   50    8 1
    50   51   50 1
    51   52   50 1
    52   53   50 1
    53   54    8 1
    54   55   54 1
    55   56   54 1
    56   57   54 1
    57    7   20 2
    58   16   17 ar
    59   29   31 ar
@<TRIPOS>SUBSTRUCTURE
     1 RES1 1

@<TRIPOS>CRYSIN
   8.6250    9.6390   26.2730  90.0000  91.2800  90.0000  14 1

