# MOL2 file generated by ConQuest
# Please check atom types

@<TRIPOS>MOLECULE
NANGIT
    35    36     1
SMALL
NO_CHARGES
****
Generated from CSD

@<TRIPOS>ATOM
      1 N1         3.1408   -0.9441    4.1985 N.2       1 RES1    0.0000
      2 N2         2.2764   -0.0221    4.2804 N.pl3     1 RES1    0.0000
      3 C1         1.7431    0.5717    2.9817 C.3       1 RES1    0.0000
      4 C2         2.7673   -0.0407    1.9895 C.3       1 RES1    0.0000
      5 C3         3.9760    0.8082    1.5165 C.3       1 RES1    0.0000
      6 C4         5.2365    0.3361    2.2695 C.3       1 RES1    0.0000
      7 C5         4.9254   -1.1460    2.5243 C.3       1 RES1    0.0000
      8 C6         3.4356   -1.2034    2.8059 C.3       1 RES1    0.0000
      9 C7         1.7631    2.0886    3.0914 C.3       1 RES1    0.0000
     10 C8         0.3110    0.0548    2.8313 C.3       1 RES1    0.0000
     11 C9         5.4810    1.1211    3.5494 C.3       1 RES1    0.0000
     12 C10        6.4585    0.4697    1.3512 C.3       1 RES1    0.0000
     13 N3         1.9984   -0.4174    0.7338 N.pl3     1 RES1    0.0000
     14 N4         2.8809   -2.6305    2.5439 N.pl3     1 RES1    0.0000
     15 O1         1.8396    0.4107    5.3548 O.2       1 RES1    0.0000
     16 O2         1.6873    0.5070    0.0157 O.2       1 RES1    0.0000
     17 O3         1.7010   -1.5592    0.5057 O.2       1 RES1    0.0000
     18 O4         1.8607   -2.9328    3.1224 O.2       1 RES1    0.0000
     19 O5         3.4968   -3.3630    1.8024 O.2       1 RES1    0.0000
     20 H1         4.0960    0.6058    0.5733 H         1 RES1    0.0000
     21 H2         3.7727    1.7758    1.5989 H         1 RES1    0.0000
     22 H3         5.0925   -1.6679    1.7301 H         1 RES1    0.0000
     23 H4         5.3895   -1.5185    3.2684 H         1 RES1    0.0000
     24 H5         1.1077    2.3234    3.7307 H         1 RES1    0.0000
     25 H6         1.5749    2.4562    2.1762 H         1 RES1    0.0000
     26 H7         2.6436    2.4479    3.3815 H         1 RES1    0.0000
     27 H8        -0.1697    0.2987    3.6217 H         1 RES1    0.0000
     28 H9         0.2827   -0.8962    2.7556 H         1 RES1    0.0000
     29 H10       -0.0845    0.4896    2.0147 H         1 RES1    0.0000
     30 H11        6.2766    0.7634    3.9487 H         1 RES1    0.0000
     31 H12        4.7651    1.0041    4.2172 H         1 RES1    0.0000
     32 H13        5.6602    2.0911    3.3249 H         1 RES1    0.0000
     33 H14        7.2569    0.1245    1.8855 H         1 RES1    0.0000
     34 H15        6.6128    1.4190    1.0881 H         1 RES1    0.0000
     35 H16        6.3302   -0.0332    0.5128 H         1 RES1    0.0000
@<TRIPOS>BOND
     1    1    2 2
     2    2    3 1
     3    3    4 1
     4    4    5 1
     5    5    6 1
     6    6    7 1
     7    7    8 1
     8    8    1 1
     9    9    3 1
    10   10    3 1
    11   11    6 1
    12   12    6 1
    13   13    4 1
    14   14    8 1
    15   15    2 1
    16   16   13 2
    17   17   13 2
    18   18   14 2
    19   19   14 2
    20   20    5 1
    21   21    5 1
    22   22    7 1
    23   23    7 1
    24   24    9 1
    25   25    9 1
    26   26    9 1
    27   27   10 1
    28   28   10 1
    29   29   10 1
    30   30   11 1
    31   31   11 1
    32   32   11 1
    33   33   12 1
    34   34   12 1
    35   35   12 1
    36    4    8 1
@<TRIPOS>SUBSTRUCTURE
     1 RES1 1

@<TRIPOS>CRYSIN
  15.1980    8.2980   20.2470  90.0000  94.3830  90.0000  15 1

