# MOL2 file generated by ConQuest
# Please check atom types

@<TRIPOS>MOLECULE
NANGUE
    42    44     1
SMALL
NO_CHARGES
****
Generated from CSD

@<TRIPOS>ATOM
      1 O1        -3.6640    5.9653   -2.4097 O.2       1 RES1    0.0000
      2 O2        -2.2460    4.5098   -3.1568 O.2       1 RES1    0.0000
      3 N1         0.6218    3.9065    3.0313 N.2       1 RES1    0.0000
      4 N2         1.4720    3.8076    8.5284 N.3       1 RES1    0.0000
      5 N3        -2.7297    5.1898   -2.2510 N.pl3     1 RES1    0.0000
      6 C1         0.9583    3.8009    4.3896 C.ar      1 RES1    0.0000
      7 C2         2.1295    3.2943    4.9301 C.ar      1 RES1    0.0000
      8 C3         2.2855    3.3098    6.3022 C.ar      1 RES1    0.0000
      9 C4         1.2862    3.8087    7.1676 C.ar      1 RES1    0.0000
     10 C5         0.0976    4.3120    6.5923 C.ar      1 RES1    0.0000
     11 C6        -0.0345    4.3109    5.2174 C.ar      1 RES1    0.0000
     12 C7        -1.1189    4.8909    4.3290 C.3       1 RES1    0.0000
     13 C8        -1.1456    6.4164    4.5402 C.3       1 RES1    0.0000
     14 C9        -2.4977    4.2776    4.5738 C.3       1 RES1    0.0000
     15 C10       -0.5247    4.4998    2.9680 C.2       1 RES1    0.0000
     16 C11       -1.1456    4.7098    1.6420 C.ar      1 RES1    0.0000
     17 C12       -2.1696    5.6231    1.4020 C.ar      1 RES1    0.0000
     18 C13       -2.6804    5.8031    0.1243 C.ar      1 RES1    0.0000
     19 C14       -2.1614    5.0453   -0.9088 C.ar      1 RES1    0.0000
     20 C15        2.7535    3.4310    9.0969 C.3       1 RES1    0.0000
     21 C16        0.5248    4.4787    9.3893 C.3       1 RES1    0.0000
     22 C17       -1.1498    4.1320   -0.7124 C.ar      1 RES1    0.0000
     23 C18       -0.6449    3.9676    0.5540 C.ar      1 RES1    0.0000
     24 H1         2.7955    2.9499    4.3803 H         1 RES1    0.0000
     25 H2         3.0745    2.9810    6.6685 H         1 RES1    0.0000
     26 H3        -0.5862    4.6387    7.1317 H         1 RES1    0.0000
     27 H4        -1.8308    6.8041    3.9911 H         1 RES1    0.0000
     28 H5        -0.2943    6.7875    4.2991 H         1 RES1    0.0000
     29 H6        -1.3321    6.6086    5.4622 H         1 RES1    0.0000
     30 H7        -3.1399    4.6931    3.9943 H         1 RES1    0.0000
     31 H8        -2.7528    4.4187    5.4888 H         1 RES1    0.0000
     32 H9        -2.4649    3.3354    4.3929 H         1 RES1    0.0000
     33 H10       -2.5164    6.1186    2.1083 H         1 RES1    0.0000
     34 H11       -3.3570    6.4208   -0.0336 H         1 RES1    0.0000
     35 H12        2.7093    3.4932   10.0537 H         1 RES1    0.0000
     36 H13        3.4351    4.0209    8.7671 H         1 RES1    0.0000
     37 H14        2.9620    2.5277    8.8437 H         1 RES1    0.0000
     38 H15        0.8683    4.5031   10.2851 H         1 RES1    0.0000
     39 H16       -0.3088    4.0020    9.3799 H         1 RES1    0.0000
     40 H17        0.3848    5.3742    9.0751 H         1 RES1    0.0000
     41 H18       -0.8140    3.6354   -1.4240 H         1 RES1    0.0000
     42 H19        0.0404    3.3554    0.6965 H         1 RES1    0.0000
@<TRIPOS>BOND
     1    1    5 2
     2    2    5 2
     3    3    6 1
     4    4    9 1
     5    5   19 1
     6    6    7 ar
     7    7    8 ar
     8    8    9 ar
     9    9   10 ar
    10   10   11 ar
    11   11    6 ar
    12   12   11 1
    13   13   12 1
    14   14   12 1
    15   15    3 2
    16   16   15 1
    17   17   16 ar
    18   18   17 ar
    19   19   18 ar
    20   20    4 1
    21   21    4 1
    22   22   19 ar
    23   23   16 ar
    24   24    7 1
    25   25    8 1
    26   26   10 1
    27   27   13 1
    28   28   13 1
    29   29   13 1
    30   30   14 1
    31   31   14 1
    32   32   14 1
    33   33   17 1
    34   34   18 1
    35   35   20 1
    36   36   20 1
    37   37   20 1
    38   38   21 1
    39   39   21 1
    40   40   21 1
    41   41   22 1
    42   42   23 1
    43   12   15 1
    44   22   23 ar
@<TRIPOS>SUBSTRUCTURE
     1 RES1 1

@<TRIPOS>CRYSIN
   8.9238   11.1106   16.1930  90.0000 105.1100  90.0000  14 1

