# MOL2 file generated by ConQuest
# Please check atom types

@<TRIPOS>MOLECULE
NANHAL
    42    44     1
SMALL
NO_CHARGES
****
Generated from CSD

@<TRIPOS>ATOM
      1 O1         6.2151    4.3793   11.7373 O.2       1 RES1    0.0000
      2 O2         7.0156    6.3638   11.4208 O.2       1 RES1    0.0000
      3 N1         2.5130    6.2471    7.0809 N.2       1 RES1    0.0000
      4 N2         6.2449    5.4478   11.1395 N.pl3     1 RES1    0.0000
      5 N3        -3.3514    5.4752    4.6547 N.3       1 RES1    0.0000
      6 C1         3.5550    6.1114    8.0074 C.ar      1 RES1    0.0000
      7 C2         4.6953    6.8939    8.0804 C.ar      1 RES1    0.0000
      8 C3         5.5767    6.6615    9.1203 C.ar      1 RES1    0.0000
      9 C4         5.3114    5.6497   10.0249 C.ar      1 RES1    0.0000
     10 C5         4.1987    4.8157    9.9414 C.ar      1 RES1    0.0000
     11 C6         3.3170    5.0702    8.9146 C.ar      1 RES1    0.0000
     12 C7         2.0098    4.4277    8.5498 C.3       1 RES1    0.0000
     13 C8         1.0037    4.4918    9.6900 C.3       1 RES1    0.0000
     14 C9         2.2557    2.9647    8.1182 C.3       1 RES1    0.0000
     15 C10        1.6162    5.3426    7.3631 C.2       1 RES1    0.0000
     16 C11        0.3476    5.3027    6.6589 C.ar      1 RES1    0.0000
     17 C12       -0.5851    4.2615    6.7416 C.ar      1 RES1    0.0000
     18 C13       -1.7832    4.2930    6.0700 C.ar      1 RES1    0.0000
     19 C14       -2.1414    5.4026    5.2779 C.ar      1 RES1    0.0000
     20 C15       -3.7477    6.6878    3.9690 C.3       1 RES1    0.0000
     21 C16       -4.2889    4.3740    4.7074 C.3       1 RES1    0.0000
     22 C17       -1.2123    6.4553    5.1935 C.ar      1 RES1    0.0000
     23 C18       -0.0080    6.3859    5.8432 C.ar      1 RES1    0.0000
     24 H1         4.8623    7.5565    7.4501 H         1 RES1    0.0000
     25 H2         6.3429    7.1810    9.2100 H         1 RES1    0.0000
     26 H3         4.0584    4.1248   10.5470 H         1 RES1    0.0000
     27 H4        -0.3869    3.5221    7.2699 H         1 RES1    0.0000
     28 H5        -2.3656    3.5716    6.1385 H         1 RES1    0.0000
     29 H6        -1.4180    7.2084    4.6889 H         1 RES1    0.0000
     30 H7         0.5957    7.0853    5.7394 H         1 RES1    0.0000
     31 H8         0.1560    4.1563    9.3876 H         1 RES1    0.0000
     32 H9         0.9026    5.4026    9.9774 H         1 RES1    0.0000
     33 H10        1.3160    3.9575   10.4231 H         1 RES1    0.0000
     34 H11        1.4216    2.5609    7.8668 H         1 RES1    0.0000
     35 H12        2.6388    2.4757    8.8504 H         1 RES1    0.0000
     36 H13        2.8577    2.9479    7.3710 H         1 RES1    0.0000
     37 H14       -4.6633    6.6131    3.6921 H         1 RES1    0.0000
     38 H15       -3.1882    6.8192    3.2007 H         1 RES1    0.0000
     39 H16       -3.6525    7.4366    4.5632 H         1 RES1    0.0000
     40 H17       -5.0986    4.6201    4.2547 H         1 RES1    0.0000
     41 H18       -4.4868    4.1647    5.6234 H         1 RES1    0.0000
     42 H19       -3.9031    3.6052    4.2802 H         1 RES1    0.0000
@<TRIPOS>BOND
     1    1    4 2
     2    2    4 2
     3    3    6 1
     4    4    9 1
     5    5   19 1
     6    6    7 ar
     7    7    8 ar
     8    8    9 ar
     9    9   10 ar
    10   10   11 ar
    11   11    6 ar
    12   12   11 1
    13   13   12 1
    14   14   12 1
    15   15    3 2
    16   16   15 1
    17   17   16 ar
    18   18   17 ar
    19   19   18 ar
    20   20    5 1
    21   21    5 1
    22   22   19 ar
    23   23   16 ar
    24   24    7 1
    25   25    8 1
    26   26   10 1
    27   27   17 1
    28   28   18 1
    29   29   22 1
    30   30   23 1
    31   31   13 1
    32   32   13 1
    33   33   13 1
    34   34   14 1
    35   35   14 1
    36   36   14 1
    37   37   20 1
    38   38   20 1
    39   39   20 1
    40   40   21 1
    41   41   21 1
    42   42   21 1
    43   12   15 1
    44   22   23 ar
@<TRIPOS>SUBSTRUCTURE
     1 RES1 1

@<TRIPOS>CRYSIN
   8.2090   10.5170    9.1300  90.0000 105.6700  90.0000   4 1

