# MOL2 file generated by ConQuest
# Please check atom types

@<TRIPOS>MOLECULE
NANILI30
    16    16     1
SMALL
NO_CHARGES
****
Generated from CSD

@<TRIPOS>ATOM
      1 O1         6.1900    3.5653   -0.6583 O.2       1 RES1    0.0000
      2 O2         7.4344    5.3126   -0.8663 O.2       1 RES1    0.0000
      3 N1         6.5114    4.7114   -0.3208 N.pl3     1 RES1    0.0000
      4 N2         3.7188    7.1359    3.8380 N.3       1 RES1    0.0000
      5 C1         5.7859    5.3512    0.7421 C.ar      1 RES1    0.0000
      6 C2         6.1577    6.6273    1.1627 C.ar      1 RES1    0.0000
      7 C3         5.4664    7.2219    2.1867 C.ar      1 RES1    0.0000
      8 C4         4.3953    6.5622    2.8137 C.ar      1 RES1    0.0000
      9 C5         4.0316    5.2774    2.3574 C.ar      1 RES1    0.0000
     10 C6         4.7203    4.6807    1.3325 C.ar      1 RES1    0.0000
     11 H1         4.4962    3.8082    1.0367 H         1 RES1    0.0000
     12 H2         5.7031    8.0819    2.4533 H         1 RES1    0.0000
     13 H3         3.3080    4.8298    2.7731 H         1 RES1    0.0000
     14 H4         6.9137    7.0724    0.7647 H         1 RES1    0.0000
     15 H5         3.1005    6.6916    4.2608 H         1 RES1    0.0000
     16 H6         3.9197    7.9368    4.0586 H         1 RES1    0.0000
@<TRIPOS>BOND
     1    1    3 2
     2    2    3 2
     3    3    5 1
     4    4    8 1
     5    5    6 ar
     6    6    7 ar
     7    7    8 ar
     8    8    9 ar
     9    9   10 ar
    10   10    5 ar
    11   11   10 1
    12   12    7 1
    13   13    9 1
    14   14    6 1
    15   15    4 1
    16   16    4 1
@<TRIPOS>SUBSTRUCTURE
     1 RES1 1

@<TRIPOS>CRYSIN
   8.5530    6.0448   12.2610  90.0000  91.8970  90.0000 231 1

