# MOL2 file generated by ConQuest
# Please check atom types

@<TRIPOS>MOLECULE
NANILI21
    16    16     1
SMALL
NO_CHARGES
****
Generated from CSD

@<TRIPOS>ATOM
      1 O1         5.1118    3.7463    7.4349 O.2       1 RES1    0.0000
      2 O2         5.3510    5.4886    6.1977 O.2       1 RES1    0.0000
      3 N1         9.9338    1.9363    3.8694 N.3       1 RES1    0.0000
      4 N2         5.6845    4.3453    6.5303 N.pl3     1 RES1    0.0000
      5 C1         8.8884    2.5067    4.5148 C.ar      1 RES1    0.0000
      6 C2         8.2282    1.8482    5.5675 C.ar      1 RES1    0.0000
      7 C3         7.1869    2.4392    6.2254 C.ar      1 RES1    0.0000
      8 C4         6.7690    3.7108    5.8386 C.ar      1 RES1    0.0000
      9 C5         7.3921    4.3789    4.7889 C.ar      1 RES1    0.0000
     10 C6         8.4368    3.7846    4.1356 C.ar      1 RES1    0.0000
     11 H1         8.5414    0.9961    5.8012 H         1 RES1    0.0000
     12 H2         6.7857    2.0043    6.9528 H         1 RES1    0.0000
     13 H3         7.0919    5.2462    4.5550 H         1 RES1    0.0000
     14 H4         8.8472    4.2682    3.4206 H         1 RES1    0.0000
     15 H5        10.1021    1.1410    4.0565 H         1 RES1    0.0000
     16 H6        10.3317    2.3665    3.2573 H         1 RES1    0.0000
@<TRIPOS>BOND
     1    1    4 2
     2    2    4 2
     3    3    5 1
     4    4    8 1
     5    5    6 ar
     6    6    7 ar
     7    7    8 ar
     8    8    9 ar
     9    9   10 ar
    10   10    5 ar
    11   11    6 1
    12   12    7 1
    13   13    9 1
    14   14   10 1
    15   15    3 1
    16   16    3 1
@<TRIPOS>SUBSTRUCTURE
     1 RES1 1

@<TRIPOS>CRYSIN
  12.3370    6.0370    8.5970  90.0000  91.4200  90.0000 231 1

