# MOL2 file generated by ConQuest
# Please check atom types

@<TRIPOS>MOLECULE
NANILI31
    16    16     1
SMALL
NO_CHARGES
****
Generated from CSD

@<TRIPOS>ATOM
      1 C1         5.6634    0.6955    6.9116 C.ar      1 RES1    0.0000
      2 N1         6.3822    1.3264    5.8430 N.pl3     1 RES1    0.0000
      3 C2         6.0428   -0.5778    7.3381 C.ar      1 RES1    0.0000
      4 H1         6.7531   -1.0197    6.9311 H         1 RES1    0.0000
      5 C3         4.6057    1.3584    7.5070 C.ar      1 RES1    0.0000
      6 H2         4.3571    2.2030    7.2085 H         1 RES1    0.0000
      7 C4         3.9256    0.7674    8.5367 C.ar      1 RES1    0.0000
      8 H3         3.2148    1.2141    8.9360 H         1 RES1    0.0000
      9 C5         4.2923   -0.5126    8.9972 C.ar      1 RES1    0.0000
     10 C6         5.3578   -1.1664    8.3626 C.ar      1 RES1    0.0000
     11 H4         5.6025   -2.0183    8.6450 H         1 RES1    0.0000
     12 N2         3.6217   -1.0831   10.0237 N.3       1 RES1    0.0000
     13 H5         3.8460   -1.8656   10.3010 H         1 RES1    0.0000
     14 H6         2.9716   -0.6641   10.3984 H         1 RES1    0.0000
     15 O1         6.0548    2.4633    5.4988 O.2       1 RES1    0.0000
     16 O2         7.3004    0.7281    5.2935 O.2       1 RES1    0.0000
@<TRIPOS>BOND
     1    1    2 1
     2    2   15 2
     3    3    1 ar
     4    4    3 1
     5    5    1 ar
     6    6    5 1
     7    7    5 ar
     8    8    7 1
     9    9    7 ar
    10   10    3 ar
    11   11   10 1
    12   12    9 1
    13   13   12 1
    14   14   12 1
    15   16    2 2
    16    9   10 ar
@<TRIPOS>SUBSTRUCTURE
     1 RES1 1

@<TRIPOS>CRYSIN
   8.5909    6.0374   12.3344  90.0000  91.4150  90.0000 231 1

