# MOL2 file generated by ConQuest
# Please check atom types

@<TRIPOS>MOLECULE
NANILI27
    16    16     1
SMALL
NO_CHARGES
****
Generated from CSD

@<TRIPOS>ATOM
      1 O1         6.1656    3.5452   -0.6482 O.2       1 RES1    0.0000
      2 O2         7.4078    5.2996   -0.8592 O.2       1 RES1    0.0000
      3 N1         6.4814    4.6963   -0.3166 N.pl3     1 RES1    0.0000
      4 N2         3.6559    7.1337    3.8120 N.3       1 RES1    0.0000
      5 C1         5.7479    5.3390    0.7368 C.ar      1 RES1    0.0000
      6 C2         6.1166    6.6198    1.1520 C.ar      1 RES1    0.0000
      7 C3         5.4148    7.2201    2.1702 C.ar      1 RES1    0.0000
      8 C4         4.3394    6.5575    2.7937 C.ar      1 RES1    0.0000
      9 C5         3.9789    5.2697    2.3407 C.ar      1 RES1    0.0000
     10 C6         4.6762    4.6674    1.3215 C.ar      1 RES1    0.0000
     11 H1         4.4575    3.8012    1.0374 H         1 RES1    0.0000
     12 H2         5.6515    8.1033    2.4295 H         1 RES1    0.0000
     13 H3         3.2388    4.8028    2.7344 H         1 RES1    0.0000
     14 H4         6.8790    7.0594    0.7677 H         1 RES1    0.0000
     15 H5         3.0360    6.6612    4.2359 H         1 RES1    0.0000
     16 H6         3.8506    7.9343    4.0573 H         1 RES1    0.0000
@<TRIPOS>BOND
     1    1    3 2
     2    2    3 2
     3    3    5 1
     4    4    8 1
     5    5    6 ar
     6    6    7 ar
     7    7    8 ar
     8    8    9 ar
     9    9   10 ar
    10   10    5 ar
    11   11   10 1
    12   12    7 1
    13   13    9 1
    14   14    6 1
    15   15    4 1
    16   16    4 1
@<TRIPOS>SUBSTRUCTURE
     1 RES1 1

@<TRIPOS>CRYSIN
   8.5042    6.0337   12.1585  90.0000  92.4141  90.0000 231 1

