# MOL2 file generated by ConQuest
# Please check atom types

@<TRIPOS>MOLECULE
NANILI22
    16    16     1
SMALL
NO_CHARGES
****
Generated from CSD

@<TRIPOS>ATOM
      1 O1         0.8326    0.7270   13.2208 O.2       1 RES1    0.0000
      2 O2         2.0747    2.4681   13.0142 O.2       1 RES1    0.0000
      3 N1         1.7502    1.3275   12.6716 N.pl3     1 RES1    0.0000
      4 N2         4.5125   -1.0823    8.4898 N.pl3     1 RES1    0.0000
      5 H1         4.2865   -1.8643    8.2115 H         1 RES1    0.0000
      6 H2         5.1636   -0.6647    8.1140 H         1 RES1    0.0000
      7 C1         2.4685    0.6913   11.6017 C.ar      1 RES1    0.0000
      8 C2         2.0952   -0.5773   11.1767 C.ar      1 RES1    0.0000
      9 H3         1.3880   -1.0213   11.5863 H         1 RES1    0.0000
     10 C3         2.7787   -1.1662   10.1493 C.ar      1 RES1    0.0000
     11 H4         2.5327   -2.0165    9.8649 H         1 RES1    0.0000
     12 C4         3.8441   -0.5100    9.5177 C.ar      1 RES1    0.0000
     13 C5         4.2075    0.7669    9.9762 C.ar      1 RES1    0.0000
     14 H5         4.9173    1.2152    9.5748 H         1 RES1    0.0000
     15 C6         3.5301    1.3570   11.0041 C.ar      1 RES1    0.0000
     16 H6         3.7792    2.2021   11.3035 H         1 RES1    0.0000
@<TRIPOS>BOND
     1    1    3 2
     2    2    3 2
     3    3    7 1
     4    4    5 1
     5    6    4 1
     6    7    8 ar
     7    8    9 1
     8   10    8 ar
     9   11   10 1
    10   12    4 1
    11   13   12 ar
    12   14   13 1
    13   15    7 ar
    14   16   15 1
    15   10   12 ar
    16   13   15 ar
@<TRIPOS>SUBSTRUCTURE
     1 RES1 1

@<TRIPOS>CRYSIN
   8.6010    6.0430   12.3520  90.0000  91.4300  90.0000 231 1

