# MOL2 file generated by ConQuest
# Please check atom types

@<TRIPOS>MOLECULE
NANQUP
    36    37     1
SMALL
NO_CHARGES
****
Generated from CSD

@<TRIPOS>ATOM
      1 O1         0.1905    2.9184    4.8453 O.2       1 RES1    0.0000
      2 O2         1.1634    0.9628    4.3671 O.3       1 RES1    0.0000
      3 O3         0.8676   -1.4419    3.2016 O.3       1 RES1    0.0000
      4 O4        -0.4161   -2.1068    4.9770 O.3       1 RES1    0.0000
      5 H1        -0.1961   -2.8800    4.8138 H         1 RES1    0.0000
      6 N1         0.1312   -0.7563    2.1936 N.2       1 RES1    0.0000
      7 C1         1.6788    2.4938    1.9015 C.3       1 RES1    0.0000
      8 H2         2.3499    2.9806    1.3975 H         1 RES1    0.0000
      9 H3         1.9380    1.5609    1.8385 H         1 RES1    0.0000
     10 C2         0.6096    2.5683    1.1397 C.3       1 RES1    0.0000
     11 H4         0.7749    1.9579    0.4066 H         1 RES1    0.0000
     12 H5         0.6302    3.4597    0.7589 H         1 RES1    0.0000
     13 C3        -0.8296    2.3364    1.5349 C.3       1 RES1    0.0000
     14 H6        -0.9491    2.6742    2.4341 H         1 RES1    0.0000
     15 H7        -1.3872    2.8746    0.9507 H         1 RES1    0.0000
     16 C4        -1.3471    0.9329    1.4977 C.3       1 RES1    0.0000
     17 H8        -2.3133    0.9475    1.5865 H         1 RES1    0.0000
     18 H9        -1.1327    0.5367    0.6386 H         1 RES1    0.0000
     19 C5        -0.7725    0.0944    2.5773 C.2       1 RES1    0.0000
     20 C6        -1.1127    0.3424    3.9862 C.3       1 RES1    0.0000
     21 H10       -1.8242   -0.2595    4.2554 H         1 RES1    0.0000
     22 H11       -1.4355    1.2515    4.0836 H         1 RES1    0.0000
     23 C7         0.0722    0.1382    4.8711 C.3       1 RES1    0.0000
     24 C8         1.0078    2.2980    4.2268 C.2       1 RES1    0.0000
     25 C9         1.9664    2.8247    3.2388 C.3       1 RES1    0.0000
     26 H12        1.9928    3.7914    3.3190 H         1 RES1    0.0000
     27 H13        2.8497    2.4892    3.4564 H         1 RES1    0.0000
     28 C10        0.5808   -1.2461    4.5618 C.3       1 RES1    0.0000
     29 H14        1.3909   -1.4158    5.0859 H         1 RES1    0.0000
     30 C11       -0.1930    0.3378    6.3373 C.3       1 RES1    0.0000
     31 H15       -0.9234   -0.2419    6.6036 H         1 RES1    0.0000
     32 H16       -0.4799    1.2538    6.4776 H         1 RES1    0.0000
     33 C12        1.0039    0.0576    7.2393 C.3       1 RES1    0.0000
     34 H17        0.7621    0.2257    8.1528 H         1 RES1    0.0000
     35 H18        1.7324    0.6311    6.9902 H         1 RES1    0.0000
     36 H19        1.2700   -0.8592    7.1420 H         1 RES1    0.0000
@<TRIPOS>BOND
     1    1   24 2
     2    2   23 1
     3    3    6 1
     4    4    5 1
     5    6   19 2
     6    7    8 1
     7    9    7 1
     8   10    7 1
     9   11   10 1
    10   12   10 1
    11   13   10 1
    12   14   13 1
    13   15   13 1
    14   16   13 1
    15   17   16 1
    16   18   16 1
    17   19   16 1
    18   20   19 1
    19   21   20 1
    20   22   20 1
    21   23   20 1
    22   24    2 1
    23   25    7 1
    24   26   25 1
    25   27   25 1
    26   28    3 1
    27   29   28 1
    28   30   23 1
    29   31   30 1
    30   32   30 1
    31   33   30 1
    32   34   33 1
    33   35   33 1
    34   36   33 1
    35    4   28 1
    36   23   28 1
    37   24   25 1
@<TRIPOS>SUBSTRUCTURE
     1 RES1 1

