# MOL2 file generated by ConQuest
# Please check atom types

@<TRIPOS>MOLECULE
NAPFOX
    22    25     1
SMALL
USER_CHARGES
****
Generated from CSD

@<TRIPOS>ATOM
      1 C1        -2.7560    4.4903    4.6997 C.2       1 RES1    0.0000
      2 C2        -2.8793    2.5769    3.3382 C.ar      1 RES1    0.0000
      3 C3        -2.3065    3.6681    2.6422 C.ar      1 RES1    0.0000
      4 C4        -1.9051    3.5950    1.3041 C.ar      1 RES1    0.0000
      5 C5        -3.1613    3.1356    4.6495 C.2       1 RES1    0.0000
      6 C6        -2.2014    4.8545    3.4118 C.ar      1 RES1    0.0000
      7 C7        -1.6840    6.0077    2.8503 C.ar      1 RES1    0.0000
      8 C8        -1.2781    5.9443    1.5229 C.ar      1 RES1    0.0000
      9 C9        -1.3735    4.8131    0.7624 C.ar      1 RES1    0.0000
     10 C10       -2.0808    2.3576    0.6780 C.ar      1 RES1    0.0000
     11 C11       -2.6362    1.3009    1.3489 C.ar      1 RES1    0.0000
     12 C12       -3.0513    1.3850    2.7086 C.ar      1 RES1    0.0000
     13 H1        -1.4912    6.8837    3.5337 H         1 RES1    0.0000
     14 H2        -0.8179    6.8837    1.2018 H         1 RES1    0.0000
     15 H3        -1.1504    4.7731   -0.0718 H         1 RES1    0.0000
     16 H4        -1.8738    2.2624   -0.2511 H         1 RES1    0.0000
     17 H5        -2.9289    0.5656    0.8610 H         1 RES1    0.0000
     18 H6        -3.6620    0.7173    3.1032 H         1 RES1    0.0000
     19 N1        -2.9924    5.0779    5.8746 N.2       1 RES1    0.0000
     20 N2        -3.6900    2.8487    5.8136 N.pl3     1 RES1    1.0000
     21 O1        -3.5893    4.1040    6.6298 O.3       1 RES1    0.0000
     22 O2        -4.2090    1.9230    6.3284 O.2       1 RES1   -1.0000
@<TRIPOS>BOND
     1    1    5 1
     2    2    3 ar
     3    3    4 ar
     4    4    9 ar
     5    5    2 1
     6    6    1 1
     7    7    6 ar
     8    8    7 ar
     9    9    8 ar
    10   10    4 ar
    11   11   10 ar
    12   12    2 ar
    13   13    7 1
    14   14    8 1
    15   15    9 1
    16   16   10 1
    17   17   11 1
    18   18   12 1
    19   19    1 2
    20   20    5 2
    21   21   19 1
    22   22   20 1
    23    3    6 ar
    24   11   12 ar
    25   20   21 1
@<TRIPOS>SUBSTRUCTURE
     1 RES1 1

@<TRIPOS>CRYSIN
   3.7730   13.7950   17.9380  90.0000  90.3200  90.0000  14 1

