# MOL2 file generated by ConQuest
# Please check atom types

@<TRIPOS>MOLECULE
NAPHAP
    14    14     1
SMALL
USER_CHARGES
****
Generated from CSD

@<TRIPOS>ATOM
      1 N1        -0.8986    8.8774    2.1755 N.2       1 RES1    0.0000
      2 N2         0.1938    9.1473    1.3720 N.pl3     1 RES1    0.0000
      3 H1         0.4040    9.9334    1.0944 H         1 RES1    0.0000
      4 C1         0.8789    8.0474    1.0797 C.2       1 RES1    0.0000
      5 N3         1.9680    7.7625    0.3251 N.2       1 RES1    0.0000
      6 N4         2.5897    8.8043   -0.2076 N.pl3     1 RES1    0.0000
      7 O1         3.5306    8.5377   -0.9857 O.2       1 RES1    0.0000
      8 O2         2.2740    9.9819    0.0457 O.2       1 RES1    0.0000
      9 N5         0.2479    7.0427    1.7187 N.pl3     1 RES1    0.0000
     10 H2         0.4766    6.2136    1.7255 H         1 RES1    0.0000
     11 C2        -0.8181    7.5939    2.3486 C.2       1 RES1    0.0000
     12 N6        -1.6722    6.7826    3.0774 N.2       1 RES1    0.0000
     13 N7        -2.5899    7.4222    3.6434 N.1       1 RES1    1.0000
     14 N8        -3.4491    7.8687    4.1873 N.2       1 RES1   -1.0000
@<TRIPOS>BOND
     1    1    2 1
     2    2    3 1
     3    4    2 1
     4    5    4 2
     5    6    5 1
     6    7    6 2
     7    8    6 2
     8    9    4 1
     9   10    9 1
    10   11    1 2
    11   12   11 1
    12   13   12 2
    13   14   13 2
    14    9   11 1
@<TRIPOS>SUBSTRUCTURE
     1 RES1 1

@<TRIPOS>CRYSIN
   5.6340    8.5847   13.0129  90.0000  90.0000  90.0000  19 1

