# MOL2 file generated by ConQuest
# Please check atom types

@<TRIPOS>MOLECULE
NAPHUK
    14    13     1
SMALL
NO_CHARGES
****
Generated from CSD

@<TRIPOS>ATOM
      1 O1         0.5594    2.7174    2.0288 O.2       1 RES1    0.0000
      2 O2         1.6876    1.4784    3.3727 O.2       1 RES1    0.0000
      3 N1         0.9961    1.6404    2.3824 N.pl3     1 RES1    0.0000
      4 C1         0.7169    0.4642    1.5830 C.2       1 RES1    0.0000
      5 C2         0.1291    0.5742    0.4209 C.2       1 RES1    0.0000
      6 H1         1.0314   -0.2917    1.9799 H         1 RES1    0.0000
      7 H2        -0.1254    1.4429    0.1165 H         1 RES1    0.0000
      8 O1B       -0.5594   -2.7174   -2.0288 O.2       1 RES1    0.0000
      9 O2B       -1.6876   -1.4784   -3.3727 O.2       1 RES1    0.0000
     10 N1B       -0.9961   -1.6404   -2.3824 N.pl3     1 RES1    0.0000
     11 C1B       -0.7169   -0.4642   -1.5830 C.2       1 RES1    0.0000
     12 C2B       -0.1291   -0.5742   -0.4209 C.2       1 RES1    0.0000
     13 H1B       -1.0314    0.2917   -1.9799 H         1 RES1    0.0000
     14 H2B        0.1254   -1.4429   -0.1165 H         1 RES1    0.0000
@<TRIPOS>BOND
     1    1    3 2
     2    2    3 2
     3    3    4 1
     4    4    5 2
     5    5    7 1
     6    6    4 1
     7    8   10 2
     8    9   10 2
     9   10   11 1
    10   11   12 2
    11   12    5 1
    12   13   11 1
    13   14   12 1
@<TRIPOS>SUBSTRUCTURE
     1 RES1 1

@<TRIPOS>CRYSIN
   3.8306   10.3433    7.9532  90.0000 102.5160  90.0000  14 1

