# MOL2 file generated by ConQuest
# Please check atom types

@<TRIPOS>MOLECULE
NAQCIU
    35    38     1
SMALL
NO_CHARGES
****
Generated from CSD

@<TRIPOS>ATOM
      1 C1         0.6640    1.5478    6.3080 C.3       1 RES1    0.0000
      2 C2         1.6489    2.5973    5.7434 C.3       1 RES1    0.0000
      3 H1         1.7260    2.4565    4.7764 H         1 RES1    0.0000
      4 C3         1.2958    0.1554    6.0565 C.3       1 RES1    0.0000
      5 H2         0.7463   -0.5261    6.4736 H         1 RES1    0.0000
      6 H3         1.3167   -0.0195    5.1027 H         1 RES1    0.0000
      7 N1         2.9618    2.4465    6.3285 N.3       1 RES1    0.0000
      8 C4         3.4811    1.2320    6.7124 C.ar      1 RES1    0.0000
      9 C5         2.6907    0.0734    6.6072 C.ar      1 RES1    0.0000
     10 C6         4.7709    1.1251    7.2556 C.ar      1 RES1    0.0000
     11 H4         5.3037    1.8836    7.3348 H         1 RES1    0.0000
     12 C7         3.2091   -1.1387    7.0334 C.ar      1 RES1    0.0000
     13 H5         2.6887   -1.9070    6.9599 H         1 RES1    0.0000
     14 C8         3.6773    3.7029    6.3994 C.3       1 RES1    0.0000
     15 H6         4.4888    3.6698    5.8697 H         1 RES1    0.0000
     16 H7         3.9087    3.9179    7.3166 H         1 RES1    0.0000
     17 C9         4.4866   -1.2336    7.5681 C.ar      1 RES1    0.0000
     18 H8         4.8185   -2.0551    7.8506 H         1 RES1    0.0000
     19 C10        2.7032    4.7184    5.8341 C.3       1 RES1    0.0000
     20 H9         2.8969    4.9000    4.9010 H         1 RES1    0.0000
     21 H10        2.7439    5.5508    6.3317 H         1 RES1    0.0000
     22 C11        5.2538   -0.1033    7.6747 C.ar      1 RES1    0.0000
     23 H11        6.1098   -0.1624    8.0329 H         1 RES1    0.0000
     24 O1        -0.8806    1.6072    4.4068 O.2       1 RES1    0.0000
     25 O2        -1.6270    1.8888    6.4752 O.3       1 RES1    0.0000
     26 N2        -1.0583    1.9186    7.8051 N.2       1 RES1    0.0000
     27 C12        0.2080    1.7473    7.7137 C.2       1 RES1    0.0000
     28 C13       -0.6534    1.6685    5.5808 C.2       1 RES1    0.0000
     29 C14        1.0556    1.7299    8.9337 C.3       1 RES1    0.0000
     30 H12        0.5018    1.8355    9.7098 H         1 RES1    0.0000
     31 H13        1.6898    2.4500    8.8932 H         1 RES1    0.0000
     32 H14        1.5243    0.8937    8.9864 H         1 RES1    0.0000
     33 C15        1.3382    4.0609    5.9871 C.3       1 RES1    0.0000
     34 H15        0.9786    4.2011    6.8768 H         1 RES1    0.0000
     35 H16        0.7090    4.4011    5.3317 H         1 RES1    0.0000
@<TRIPOS>BOND
     1    1    2 1
     2    2    3 1
     3    4    1 1
     4    5    4 1
     5    6    4 1
     6    7    2 1
     7    8    7 1
     8    9    4 1
     9   10    8 ar
    10   11   10 1
    11   12    9 ar
    12   13   12 1
    13   14    7 1
    14   15   14 1
    15   16   14 1
    16   17   12 ar
    17   18   17 1
    18   19   14 1
    19   20   19 1
    20   21   19 1
    21   22   10 ar
    22   23   22 1
    23   24   28 2
    24   25   26 1
    25   26   27 2
    26   27    1 1
    27   28    1 1
    28   29   27 1
    29   30   29 1
    30   31   29 1
    31   32   29 1
    32   33    2 1
    33   34   33 1
    34   35   33 1
    35    8    9 ar
    36   17   22 ar
    37   19   33 1
    38   25   28 1
@<TRIPOS>SUBSTRUCTURE
     1 RES1 1

@<TRIPOS>CRYSIN
   9.9167   12.9904   10.4039  90.0000 103.1190  90.0000 231 1

