# MOL2 file generated by ConQuest
# Please check atom types

@<TRIPOS>MOLECULE
NAQGUJ
    59    65     1
SMALL
NO_CHARGES
****
Generated from CSD

@<TRIPOS>ATOM
      1 O1        11.1149    2.0140    6.7463 O.3       1 RES1    0.0000
      2 N1        10.3343    1.9306    7.9229 N.2       1 RES1    0.0000
      3 C1         9.3465    2.7371    7.8423 C.2       1 RES1    0.0000
      4 C2         9.2844    3.4766    6.5193 C.3       1 RES1    0.0000
      5 C3         8.2174    2.9275    5.5378 C.3       1 RES1    0.0000
      6 C4         9.0185    2.0819    4.5393 C.3       1 RES1    0.0000
      7 C5        10.4221    2.6415    4.5181 C.3       1 RES1    0.0000
      8 O2        10.4974    3.7541    3.6249 O.3       1 RES1    0.0000
      9 C6        10.6371    3.1194    5.9355 C.3       1 RES1    0.0000
     10 C7         8.3840    2.8919    8.9600 C.ar      1 RES1    0.0000
     11 C8         8.3204    4.1431    9.6176 C.ar      1 RES1    0.0000
     12 C9         9.2193    5.2079    9.3306 C.ar      1 RES1    0.0000
     13 C10        9.1054    6.3972    9.9786 C.ar      1 RES1    0.0000
     14 C11        8.1177    6.6084   10.9540 C.ar      1 RES1    0.0000
     15 C12        7.2761    5.6244   11.2816 C.ar      1 RES1    0.0000
     16 C13        7.3305    4.3476   10.6303 C.ar      1 RES1    0.0000
     17 C14        6.4555    3.3209   10.9569 C.ar      1 RES1    0.0000
     18 C15        6.5416    2.0698   10.3580 C.ar      1 RES1    0.0000
     19 C16        5.6785    0.9930   10.7371 C.ar      1 RES1    0.0000
     20 C17        5.8003   -0.2323   10.1811 C.ar      1 RES1    0.0000
     21 C18        6.7883   -0.4748    9.2133 C.ar      1 RES1    0.0000
     22 C19        7.6123    0.5176    8.7967 C.ar      1 RES1    0.0000
     23 C20        7.5309    1.8384    9.3413 C.ar      1 RES1    0.0000
     24 N2         3.5230    4.4243    4.1543 N.ar      1 RES1    0.0000
     25 C21        4.0035    3.3210    4.7403 C.ar      1 RES1    0.0000
     26 N3         5.2476    3.0148    5.0765 N.ar      1 RES1    0.0000
     27 C22        6.0826    4.0033    4.7162 C.ar      1 RES1    0.0000
     28 C23        5.7629    5.1953    4.0903 C.ar      1 RES1    0.0000
     29 C24        4.3846    5.4191    3.8239 C.ar      1 RES1    0.0000
     30 N4         3.8650    6.5432    3.2898 N.3       1 RES1    0.0000
     31 N5         6.9188    5.9359    3.8668 N.2       1 RES1    0.0000
     32 C25        7.8695    5.1822    4.3544 C.2       1 RES1    0.0000
     33 N6         7.4400    4.0090    4.9006 N.pl3     1 RES1    0.0000
     34 C26        2.4229    6.6842    3.1483 C.3       1 RES1    0.0000
     35 C27        4.6787    7.6303    2.7779 C.3       1 RES1    0.0000
     36 H1         9.1550    4.4124    6.6991 H         1 RES1    0.0000
     37 H2         7.5447    2.3808    6.0014 H         1 RES1    0.0000
     38 H3         8.6118    2.0729    3.6492 H         1 RES1    0.0000
     39 H4         9.0106    1.1521    4.8984 H         1 RES1    0.0000
     40 H5        11.0639    1.9834    4.2711 H         1 RES1    0.0000
     41 H6        11.3016    3.8386    5.9689 H         1 RES1    0.0000
     42 H7        11.3746    4.0893    3.6145 H         1 RES1    0.0000
     43 H8         9.9388    5.0933    8.6711 H         1 RES1    0.0000
     44 H9         9.6598    7.0950    9.7654 H         1 RES1    0.0000
     45 H10        8.0247    7.4555   11.3928 H         1 RES1    0.0000
     46 H11        6.6522    5.7589   11.9529 H         1 RES1    0.0000
     47 H12        5.7229    3.4951   11.6560 H         1 RES1    0.0000
     48 H13        5.0067    1.2228   11.3830 H         1 RES1    0.0000
     49 H14        5.2102   -0.9750   10.4198 H         1 RES1    0.0000
     50 H15        6.8857   -1.3917    8.8043 H         1 RES1    0.0000
     51 H16        8.2828    0.3611    8.1217 H         1 RES1    0.0000
     52 H17        3.3289    2.6219    4.9472 H         1 RES1    0.0000
     53 H18        8.8214    5.4267    4.3242 H         1 RES1    0.0000
     54 H19        2.0287    6.1748    2.3241 H         1 RES1    0.0000
     55 H20        2.2235    7.6416    3.0186 H         1 RES1    0.0000
     56 H21        1.9042    6.3410    3.9948 H         1 RES1    0.0000
     57 H22        4.0725    8.2418    2.4541 H         1 RES1    0.0000
     58 H23        5.2217    7.2601    2.0792 H         1 RES1    0.0000
     59 H24        5.2401    7.9585    3.5083 H         1 RES1    0.0000
@<TRIPOS>BOND
     1    1    2 1
     2    2    3 2
     3    3    4 1
     4    4    5 1
     5    5    6 1
     6    6    7 1
     7    7    8 1
     8    8   42 1
     9    9    1 1
    10   10    3 1
    11   11   10 ar
    12   12   11 ar
    13   13   12 ar
    14   14   13 ar
    15   15   14 ar
    16   16   11 ar
    17   17   16 ar
    18   18   17 ar
    19   19   18 ar
    20   20   19 ar
    21   21   20 ar
    22   22   21 ar
    23   23   10 ar
    24   24   25 ar
    25   25   26 ar
    26   26   27 ar
    27   27   28 ar
    28   28   29 ar
    29   29   24 ar
    30   30   29 1
    31   31   28 1
    32   32   31 2
    33   33    5 1
    34   34   30 1
    35   35   30 1
    36   36    4 1
    37   37    5 1
    38   38    6 1
    39   39    6 1
    40   40    7 1
    41   41    9 1
    42   43   12 1
    43   44   13 1
    44   45   14 1
    45   46   15 1
    46   47   17 1
    47   48   19 1
    48   49   20 1
    49   50   21 1
    50   51   22 1
    51   52   25 1
    52   53   32 1
    53   54   34 1
    54   55   34 1
    55   56   34 1
    56   57   35 1
    57   58   35 1
    58   59   35 1
    59    4    9 1
    60    7    9 1
    61   15   16 ar
    62   18   23 ar
    63   22   23 ar
    64   27   33 1
    65   32   33 1
@<TRIPOS>SUBSTRUCTURE
     1 RES1 1

@<TRIPOS>CRYSIN
   9.8700   11.5030   11.6390  73.9200  70.8400  66.7200   2 1

