# MOL2 file generated by ConQuest
# Please check atom types

@<TRIPOS>MOLECULE
NAQLEY
    43    45     1
SMALL
NO_CHARGES
****
Generated from CSD

@<TRIPOS>ATOM
      1 N1         4.9006    3.6253    4.4112 N.am      1 RES1    0.0000
      2 C1         3.6976    3.1242    4.0233 C.2       1 RES1    0.0000
      3 C2         3.9810    1.9409    3.0627 C.3       1 RES1    0.0000
      4 C3         5.4729    1.9744    2.9133 C.ar      1 RES1    0.0000
      5 C4         6.3288    1.2709    2.0898 C.ar      1 RES1    0.0000
      6 H1         5.9972    0.6091    1.4938 H         1 RES1    0.0000
      7 C5         7.6959    1.5574    2.1548 C.ar      1 RES1    0.0000
      8 H2         8.3026    1.0858    1.5966 H         1 RES1    0.0000
      9 C6         8.1739    2.5266    3.0285 C.ar      1 RES1    0.0000
     10 H3         9.1081    2.6935    3.0696 H         1 RES1    0.0000
     11 C7         7.3152    3.2594    3.8455 C.ar      1 RES1    0.0000
     12 H4         7.6436    3.9257    4.4375 H         1 RES1    0.0000
     13 C8         5.9664    2.9748    3.7571 C.ar      1 RES1    0.0000
     14 C9         5.0657    4.7561    5.3133 C.3       1 RES1    0.0000
     15 H5         4.1847    5.0915    5.5810 H         1 RES1    0.0000
     16 H6         5.5625    5.4675    4.8577 H         1 RES1    0.0000
     17 H7         5.5616    4.4696    6.1085 H         1 RES1    0.0000
     18 O1         2.5924    3.5057    4.3519 O.2       1 RES1    0.0000
     19 O2         3.3246    2.2274    1.7789 O.3       1 RES1    0.0000
     20 N2         2.3991    1.2282    1.4724 N.2       1 RES1    0.0000
     21 C10        2.3794    0.3672    2.4118 C.2       1 RES1    0.0000
     22 C11        3.2991    0.6408    3.5668 C.3       1 RES1    0.0000
     23 H8         2.7590    0.8414    4.3839 H         1 RES1    0.0000
     24 C12        1.4670   -0.8072    2.4067 C.2       1 RES1    0.0000
     25 O3         1.3009   -1.4621    3.4040 O.2       1 RES1    0.0000
     26 O4         0.8754   -1.0054    1.2341 O.3       1 RES1    0.0000
     27 C13       -0.1013   -2.0930    1.2032 C.3       1 RES1    0.0000
     28 H9        -0.7599   -1.9244    0.4837 H         1 RES1    0.0000
     29 H10       -0.5890   -2.1229    2.0639 H         1 RES1    0.0000
     30 C14        0.5749   -3.4132    0.9644 C.3       1 RES1    0.0000
     31 H11        1.0535   -3.3848    0.1105 H         1 RES1    0.0000
     32 H12       -0.0977   -4.1252    0.9378 H         1 RES1    0.0000
     33 H13        1.2102   -3.5907    1.6896 H         1 RES1    0.0000
     34 C15        4.2728   -0.4903    3.8648 C.2       1 RES1    0.0000
     35 O5         4.8750   -0.5931    4.8978 O.2       1 RES1    0.0000
     36 O6         4.3766   -1.3198    2.8266 O.3       1 RES1    0.0000
     37 C16        5.2501   -2.4750    3.0202 C.3       1 RES1    0.0000
     38 H14        4.9122   -3.0452    3.7557 H         1 RES1    0.0000
     39 H15        6.1688   -2.1809    3.2436 H         1 RES1    0.0000
     40 C17        5.2409   -3.2332    1.7195 C.3       1 RES1    0.0000
     41 H16        4.3269   -3.5201    1.5145 H         1 RES1    0.0000
     42 H17        5.8210   -4.0199    1.7958 H         1 RES1    0.0000
     43 H18        5.5704   -2.6538    1.0013 H         1 RES1    0.0000
@<TRIPOS>BOND
     1    1    2 1
     2    2    3 1
     3    3    4 1
     4    4    5 ar
     5    5    6 1
     6    7    5 ar
     7    8    7 1
     8    9    7 ar
     9   10    9 1
    10   11    9 ar
    11   12   11 1
    12   13    1 1
    13   14    1 1
    14   15   14 1
    15   16   14 1
    16   17   14 1
    17   18    2 2
    18   19    3 1
    19   20   19 1
    20   21   20 2
    21   22    3 1
    22   23   22 1
    23   24   21 1
    24   25   24 2
    25   26   24 1
    26   27   26 1
    27   28   27 1
    28   29   27 1
    29   30   27 1
    30   31   30 1
    31   32   30 1
    32   33   30 1
    33   34   22 1
    34   35   34 2
    35   36   34 1
    36   37   36 1
    37   38   37 1
    38   39   37 1
    39   40   37 1
    40   41   40 1
    41   42   40 1
    42   43   40 1
    43    4   13 ar
    44   11   13 ar
    45   21   22 1
@<TRIPOS>SUBSTRUCTURE
     1 RES1 1

@<TRIPOS>CRYSIN
   8.8597    9.4928   11.6015 106.3180  92.6470 114.2100   2 1

