# MOL2 file generated by ConQuest
# Please check atom types

@<TRIPOS>MOLECULE
NAQNOJ
    65    67     1
SMALL
USER_CHARGES
****
Generated from CSD

@<TRIPOS>ATOM
      1 N1         1.2204   -7.5915   12.2787 N.4       1 RES1    1.0000
      2 C1         0.6355   -7.8431   13.6292 C.3       1 RES1    0.0000
      3 H1        -0.3356   -7.8685   13.5031 H         1 RES1    0.0000
      4 C2         0.9287   -6.5483   14.3972 C.3       1 RES1    0.0000
      5 H2         0.2074   -6.3669   15.0356 H         1 RES1    0.0000
      6 C3         0.9843   -5.4365   13.3379 C.3       1 RES1    0.0000
      7 H3         1.8741   -5.0270   13.3667 H         1 RES1    0.0000
      8 C4         0.8296   -6.1761   11.9868 C.3       1 RES1    0.0000
      9 H4        -0.1038   -6.1417   11.6921 H         1 RES1    0.0000
     10 C5         0.9978   -9.1241   14.3169 C.ar      1 RES1    0.0000
     11 C6         2.0920   -9.8911   14.0449 C.ar      1 RES1    0.0000
     12 H5         2.6866   -9.6347   13.3780 H         1 RES1    0.0000
     13 C7         2.3166  -11.0612   14.7666 C.ar      1 RES1    0.0000
     14 H6         3.0477  -11.5972   14.5601 H         1 RES1    0.0000
     15 C8         1.4750  -11.4228   15.7706 C.ar      1 RES1    0.0000
     16 H7         1.6376  -12.1979   16.2575 H         1 RES1    0.0000
     17 C9         0.4042  -10.6570   16.0624 C.ar      1 RES1    0.0000
     18 H8        -0.1666  -10.8984   16.7557 H         1 RES1    0.0000
     19 C10        0.1588   -9.5261   15.3406 C.ar      1 RES1    0.0000
     20 H9        -0.5908   -9.0144   15.5414 H         1 RES1    0.0000
     21 N2         2.2397   -6.6545   15.1224 N.pl3     1 RES1    0.0000
     22 O1         3.2437   -6.8255   14.4614 O.2       1 RES1    0.0000
     23 O2         2.2340   -6.5332   16.3177 O.2       1 RES1    0.0000
     24 C11       -0.0519   -4.3593   13.6471 C.3       1 RES1    0.0000
     25 H10       -0.9260   -4.7925   13.7399 H         1 RES1    0.0000
     26 C12       -0.1828   -3.2366   12.6127 C.3       1 RES1    0.0000
     27 H11       -0.5173   -3.6339   11.7830 H         1 RES1    0.0000
     28 C13       -1.2293   -2.2062   13.0939 C.3       1 RES1    0.0000
     29 H12       -0.8618   -1.6899   13.8156 H         1 RES1    0.0000
     30 H13       -2.0151   -2.6671   13.3970 H         1 RES1    0.0000
     31 H14       -1.4611   -1.6229   12.3684 H         1 RES1    0.0000
     32 C14        1.1015   -2.5447   12.3002 C.3       1 RES1    0.0000
     33 H15        1.7499   -3.2066   12.0122 H         1 RES1    0.0000
     34 H16        1.4401   -2.1335   13.1109 H         1 RES1    0.0000
     35 C15        0.9799   -1.4566   11.2033 C.3       1 RES1    0.0000
     36 H17        0.3677   -1.7534   10.5251 H         1 RES1    0.0000
     37 H18        1.8418   -1.3018   10.8093 H         1 RES1    0.0000
     38 H19        0.6551   -0.6434   11.5936 H         1 RES1    0.0000
     39 O3         0.3242   -3.8324   14.9227 O.3       1 RES1    0.0000
     40 C16       -0.6917   -3.8511   15.9222 C.3       1 RES1    0.0000
     41 H20       -0.9195   -4.7706   16.1325 H         1 RES1    0.0000
     42 H21       -1.4884   -3.4168   15.5793 H         1 RES1    0.0000
     43 C17       -0.2579   -3.1731   17.1384 C.ar      1 RES1    0.0000
     44 C18        0.8558   -3.4769   17.7351 C.ar      1 RES1    0.0000
     45 H22        1.3887   -4.1537   17.3846 H         1 RES1    0.0000
     46 C19        1.2773   -2.8057   18.9077 C.ar      1 RES1    0.0000
     47 H23        2.0923   -3.0044   19.3093 H         1 RES1    0.0000
     48 C20        0.4644   -1.8805   19.4135 C.ar      1 RES1    0.0000
     49 H24        0.6940   -1.4843   20.2224 H         1 RES1    0.0000
     50 C21       -0.7360   -1.4704   18.7808 C.ar      1 RES1    0.0000
     51 H25       -1.2590   -0.7785   19.1104 H         1 RES1    0.0000
     52 C22       -1.0647   -2.1612   17.6536 C.ar      1 RES1    0.0000
     53 H26       -1.8561   -1.9510   17.2123 H         1 RES1    0.0000
     54 C23        1.7415   -5.5988   10.9048 C.2       1 RES1    0.0000
     55 O4         2.9462   -5.5826   11.0618 O.2       1 RES1    0.0000
     56 N3         1.1163   -5.1032    9.8291 N.am      1 RES1    0.0000
     57 C24        1.8377   -4.3640    8.8172 C.3       1 RES1    0.0000
     58 H27        2.2511   -4.9854    8.1988 H         1 RES1    0.0000
     59 H28        2.5433   -3.8476    9.2388 H         1 RES1    0.0000
     60 C25        0.9236   -3.4295    8.0524 C.2       1 RES1    0.0000
     61 O5        -0.3111   -3.4784    8.3165 O.co2     1 RES1    0.0000
     62 O6         1.4436   -2.6924    7.2100 O.co2     1 RES1   -1.0000
     63 H29        2.0248   -7.6468   12.2642 H         1 RES1    0.0000
     64 H30        0.2144   -4.9092    9.7750 H         1 RES1    0.0000
     65 H31        0.8192   -8.1897   11.5992 H         1 RES1    0.0000
@<TRIPOS>BOND
     1    1    2 1
     2    2    3 1
     3    4    2 1
     4    5    4 1
     5    6    4 1
     6    7    6 1
     7    8    1 1
     8    9    8 1
     9   10    2 1
    10   11   10 ar
    11   12   11 1
    12   13   11 ar
    13   14   13 1
    14   15   13 ar
    15   16   15 1
    16   17   15 ar
    17   18   17 1
    18   19   10 ar
    19   20   19 1
    20   21    4 1
    21   22   21 2
    22   23   21 2
    23   24    6 1
    24   25   24 1
    25   26   24 1
    26   27   26 1
    27   28   26 1
    28   29   28 1
    29   30   28 1
    30   31   28 1
    31   32   26 1
    32   33   32 1
    33   34   32 1
    34   35   32 1
    35   36   35 1
    36   37   35 1
    37   38   35 1
    38   39   24 1
    39   40   39 1
    40   41   40 1
    41   42   40 1
    42   43   40 1
    43   44   43 ar
    44   45   44 1
    45   46   44 ar
    46   47   46 1
    47   48   46 ar
    48   49   48 1
    49   50   48 ar
    50   51   50 1
    51   52   43 ar
    52   53   52 1
    53   54    8 1
    54   55   54 2
    55   56   54 1
    56   57   56 1
    57   58   57 1
    58   59   57 1
    59   60   57 1
    60   61   60 2
    61   62   60 1
    62   63    1 1
    63   64   56 1
    64   65    1 1
    65    6    8 1
    66   17   19 ar
    67   50   52 ar
@<TRIPOS>SUBSTRUCTURE
     1 RES1 1

@<TRIPOS>CRYSIN
   5.6238   11.5510   18.9455  90.0000  90.7870  90.0000   4 1

