# MOL2 file generated by ConQuest
# Please check atom types

@<TRIPOS>MOLECULE
NAQXOV
    75    80     1
SMALL
NO_CHARGES
****
Generated from CSD

@<TRIPOS>ATOM
      1 O1         1.4267   -3.3307   -4.8208 O.2       1 RES1    0.0000
      2 O2        -0.4381   -4.4348   -5.2728 O.3       1 RES1    0.0000
      3 O3         0.5651   -2.9204   -2.0653 O.2       1 RES1    0.0000
      4 O4        -0.0109   -0.7784   -2.4007 O.3       1 RES1    0.0000
      5 O5        -0.9860   -2.7001   -8.6769 O.2       1 RES1    0.0000
      6 O6        -2.4613   -1.8603  -10.0130 O.2       1 RES1    0.0000
      7 N1        -0.7012   -1.2110   -4.9433 N.3       1 RES1    0.0000
      8 H1         0.0586   -0.9079   -4.9664 H         1 RES1    0.0000
      9 N2        -4.2985   -2.8011   -3.8365 N.pl3     1 RES1    0.0000
     10 H2        -5.1154   -2.5903   -4.0877 H         1 RES1    0.0000
     11 N3        -1.6671   -1.7691   -9.0833 N.pl3     1 RES1    0.0000
     12 C1        -1.6345   -1.3524   -6.0621 C.3       1 RES1    0.0000
     13 H3        -1.4560   -2.2345   -6.4983 H         1 RES1    0.0000
     14 C2        -3.1508   -1.3589   -5.5557 C.3       1 RES1    0.0000
     15 C3        -3.1433   -2.3214   -4.3914 C.2       1 RES1    0.0000
     16 C4        -2.0609   -2.8387   -3.7414 C.2       1 RES1    0.0000
     17 C5        -2.5644   -3.7385   -2.7298 C.ar      1 RES1    0.0000
     18 C6        -1.9872   -4.6071   -1.7889 C.ar      1 RES1    0.0000
     19 H4        -1.0438   -4.6895   -1.7191 H         1 RES1    0.0000
     20 C7        -2.8241   -5.3427   -0.9637 C.ar      1 RES1    0.0000
     21 H5        -2.4437   -5.9346   -0.3247 H         1 RES1    0.0000
     22 C8        -4.2164   -5.2315   -1.0510 C.ar      1 RES1    0.0000
     23 H6        -4.7593   -5.7420   -0.4623 H         1 RES1    0.0000
     24 C9        -4.8188   -4.3977   -1.9718 C.ar      1 RES1    0.0000
     25 H7        -5.7638   -4.3208   -2.0286 H         1 RES1    0.0000
     26 C10       -3.9710   -3.6718   -2.8173 C.ar      1 RES1    0.0000
     27 C11       -0.6585   -2.3859   -4.0614 C.3       1 RES1    0.0000
     28 C12        0.2346   -3.4504   -4.7398 C.2       1 RES1    0.0000
     29 C13        0.3669   -5.4462   -5.9616 C.3       1 RES1    0.0000
     30 H8         0.7892   -5.0545   -6.7658 H         1 RES1    0.0000
     31 H9         1.0832   -5.7753   -5.3618 H         1 RES1    0.0000
     32 C14       -0.5127   -6.5516   -6.3436 C.3       1 RES1    0.0000
     33 H10       -1.1234   -6.2533   -7.0485 H         1 RES1    0.0000
     34 H11       -1.0304   -6.8407   -5.5643 H         1 RES1    0.0000
     35 H12        0.0276   -7.3002   -6.6741 H         1 RES1    0.0000
     36 C15        0.0536   -2.0516   -2.7371 C.2       1 RES1    0.0000
     37 C16        0.6568   -0.4386   -1.1362 C.3       1 RES1    0.0000
     38 H13        0.4683   -1.1413   -0.4642 H         1 RES1    0.0000
     39 H14        0.2974    0.4187   -0.7927 H         1 RES1    0.0000
     40 C17        2.1380   -0.3174   -1.3297 C.3       1 RES1    0.0000
     41 H15        2.3214    0.3094   -2.0611 H         1 RES1    0.0000
     42 H16        2.5116   -1.1969   -1.5510 H         1 RES1    0.0000
     43 H17        2.5493    0.0148   -0.5043 H         1 RES1    0.0000
     44 C18       -1.3572   -0.2638   -7.0884 C.ar      1 RES1    0.0000
     45 C19       -1.0430    1.0259   -6.6668 C.ar      1 RES1    0.0000
     46 H18       -0.9483    1.1969   -5.7362 H         1 RES1    0.0000
     47 C20       -0.8654    2.0691   -7.5621 C.ar      1 RES1    0.0000
     48 H19       -0.6300    2.9312   -7.2414 H         1 RES1    0.0000
     49 C21       -1.0263    1.8623   -8.9116 C.ar      1 RES1    0.0000
     50 H20       -0.9215    2.5829   -9.5221 H         1 RES1    0.0000
     51 C22       -1.3413    0.6042   -9.3737 C.ar      1 RES1    0.0000
     52 H21       -1.4652    0.4521  -10.3033 H         1 RES1    0.0000
     53 C23       -1.4770   -0.4389   -8.4715 C.ar      1 RES1    0.0000
     54 C24       -4.0866   -1.9761   -6.6185 C.ar      1 RES1    0.0000
     55 C25       -3.7264   -3.1878   -7.2158 C.ar      1 RES1    0.0000
     56 H22       -2.8928   -3.5871   -6.9969 H         1 RES1    0.0000
     57 C26       -4.5675   -3.8176   -8.1241 C.ar      1 RES1    0.0000
     58 H23       -4.2944   -4.6302   -8.5326 H         1 RES1    0.0000
     59 C27       -5.7931   -3.2740   -8.4390 C.ar      1 RES1    0.0000
     60 H24       -6.3536   -3.6890   -9.0828 H         1 RES1    0.0000
     61 C28       -6.1902   -2.1243   -7.8083 C.ar      1 RES1    0.0000
     62 H25       -7.0489   -1.7621   -7.9921 H         1 RES1    0.0000
     63 C29       -5.3541   -1.4802   -6.9021 C.ar      1 RES1    0.0000
     64 H26       -5.6540   -0.6893   -6.4697 H         1 RES1    0.0000
     65 C30       -3.5488    0.0448   -5.0713 C.ar      1 RES1    0.0000
     66 C31       -4.0238    1.0246   -5.9423 C.ar      1 RES1    0.0000
     67 H27       -4.1235    0.8208   -6.8651 H         1 RES1    0.0000
     68 C32       -4.3547    2.2949   -5.4863 C.ar      1 RES1    0.0000
     69 H28       -4.7258    2.9312   -6.0857 H         1 RES1    0.0000
     70 C33       -4.1477    2.6360   -4.1645 C.ar      1 RES1    0.0000
     71 H29       -4.3555    3.5111   -3.8566 H         1 RES1    0.0000
     72 C34       -3.6359    1.6937   -3.2944 C.ar      1 RES1    0.0000
     73 H30       -3.4750    1.9251   -2.3877 H         1 RES1    0.0000
     74 C35       -3.3544    0.4061   -3.7406 C.ar      1 RES1    0.0000
     75 H31       -3.0226   -0.2390   -3.1269 H         1 RES1    0.0000
@<TRIPOS>BOND
     1    1   28 2
     2    2   28 1
     3    3   36 2
     4    4   36 1
     5    5   11 2
     6    6   11 2
     7    7    8 1
     8    9   10 1
     9   11   53 1
    10   12    7 1
    11   13   12 1
    12   14   12 1
    13   15    9 1
    14   16   15 2
    15   17   16 1
    16   18   17 ar
    17   19   18 1
    18   20   18 ar
    19   21   20 1
    20   22   20 ar
    21   23   22 1
    22   24   22 ar
    23   25   24 1
    24   26    9 1
    25   27    7 1
    26   28   27 1
    27   29    2 1
    28   30   29 1
    29   31   29 1
    30   32   29 1
    31   33   32 1
    32   34   32 1
    33   35   32 1
    34   36   27 1
    35   37    4 1
    36   38   37 1
    37   39   37 1
    38   40   37 1
    39   41   40 1
    40   42   40 1
    41   43   40 1
    42   44   12 1
    43   45   44 ar
    44   46   45 1
    45   47   45 ar
    46   48   47 1
    47   49   47 ar
    48   50   49 1
    49   51   49 ar
    50   52   51 1
    51   53   44 ar
    52   54   14 1
    53   55   54 ar
    54   56   55 1
    55   57   55 ar
    56   58   57 1
    57   59   57 ar
    58   60   59 1
    59   61   59 ar
    60   62   61 1
    61   63   54 ar
    62   64   63 1
    63   65   14 1
    64   66   65 ar
    65   67   66 1
    66   68   66 ar
    67   69   68 1
    68   70   68 ar
    69   71   70 1
    70   72   70 ar
    71   73   72 1
    72   74   65 ar
    73   75   74 1
    74   14   15 1
    75   16   27 1
    76   17   26 ar
    77   24   26 ar
    78   51   53 ar
    79   61   63 ar
    80   72   74 ar
@<TRIPOS>SUBSTRUCTURE
     1 RES1 1

@<TRIPOS>CRYSIN
   8.3776   18.5284   19.1015  90.0000  90.0000  90.0000  19 1

