# MOL2 file generated by ConQuest
# Please check atom types

@<TRIPOS>MOLECULE
NARFER
    22    23     1
SMALL
NO_CHARGES
****
Generated from CSD

@<TRIPOS>ATOM
      1 O1        -1.0851    0.7421    1.5450 O.2       1 RES1    0.0000
      2 N1        -0.1207    1.6099    1.6612 N.pl3     1 RES1    0.0000
      3 C1        -0.2026    2.6024    2.6013 C.ar      1 RES1    0.0000
      4 C2         0.7591    3.5933    2.6618 C.ar      1 RES1    0.0000
      5 C3         1.8477    3.5538    1.8092 C.ar      1 RES1    0.0000
      6 C4         1.9307    2.5218    0.8942 C.ar      1 RES1    0.0000
      7 C5         0.9572    1.5661    0.8191 C.ar      1 RES1    0.0000
      8 H1         0.6727    4.3048    3.3002 H         1 RES1    0.0000
      9 H2         2.5289    4.2290    1.8515 H         1 RES1    0.0000
     10 H3         2.6872    2.4522    0.3032 H         1 RES1    0.0000
     11 H4         1.0256    0.8630    0.1688 H         1 RES1    0.0000
     12 C1B       -1.3892    2.6024    3.4793 C.ar      1 RES1    0.0000
     13 N1B       -1.4711    1.6099    4.4194 N.pl3     1 RES1    0.0000
     14 O1B       -0.5067    0.7421    4.5356 O.2       1 RES1    0.0000
     15 C5B       -2.5490    1.5661    5.2615 C.ar      1 RES1    0.0000
     16 C4B       -3.5225    2.5218    5.1864 C.ar      1 RES1    0.0000
     17 C3B       -3.4395    3.5538    4.2714 C.ar      1 RES1    0.0000
     18 C2B       -2.3509    3.5933    3.4188 C.ar      1 RES1    0.0000
     19 H1B       -2.2645    4.3048    2.7804 H         1 RES1    0.0000
     20 H2B       -4.1207    4.2290    4.2291 H         1 RES1    0.0000
     21 H3B       -4.2790    2.4522    5.7774 H         1 RES1    0.0000
     22 H4B       -2.6175    0.8630    5.9118 H         1 RES1    0.0000
@<TRIPOS>BOND
     1    1    2 1
     2    2    3 ar
     3    3    4 ar
     4    4    5 ar
     5    5    6 ar
     6    6    7 ar
     7    7    2 ar
     8    8    4 1
     9    9    5 1
    10   10    6 1
    11   11    7 1
    12   12    3 1
    13   13   12 ar
    14   14   13 1
    15   15   13 ar
    16   16   15 ar
    17   17   16 ar
    18   18   12 ar
    19   19   18 1
    20   20   17 1
    21   21   16 1
    22   22   15 1
    23   17   18 ar
@<TRIPOS>SUBSTRUCTURE
     1 RES1 1

@<TRIPOS>CRYSIN
  12.6160    5.3360   12.5710  90.0000 104.6700  90.0000  15 1

