# MOL2 file generated by ConQuest
# Please check atom types

@<TRIPOS>MOLECULE
NARLIB
    38    41     1
SMALL
NO_CHARGES
****
Generated from CSD

@<TRIPOS>ATOM
      1 O1        -1.6120   13.5517    5.2360 O.2       1 RES1    0.0000
      2 O2        -2.2389   16.4017    9.2066 O.3       1 RES1    0.0000
      3 O3        -1.0279   13.2921    8.4575 O.3       1 RES1    0.0000
      4 C1         0.6585   13.7396    6.0104 C.2       1 RES1    0.0000
      5 N1         2.7911   13.9519    6.7690 N.3       1 RES1    0.0000
      6 C2         1.4600   14.1504    7.0811 C.2       1 RES1    0.0000
      7 N2         0.2216   13.6205    9.2224 N.3       1 RES1    0.0000
      8 C3        -0.7946   13.8602    6.1173 C.2       1 RES1    0.0000
      9 C4         2.8741   13.4234    5.4624 C.ar      1 RES1    0.0000
     10 C5         1.5502   13.2631    4.9514 C.ar      1 RES1    0.0000
     11 C6        -0.9059   16.2810    9.2299 C.2       1 RES1    0.0000
     12 C7         0.8832   14.6774    8.3813 C.3       1 RES1    0.0000
     13 C8        -1.2583   14.3688    7.5043 C.3       1 RES1    0.0000
     14 O4        -0.2128   16.7499   10.1027 O.2       1 RES1    0.0000
     15 C9         4.0182   13.1027    4.6900 C.ar      1 RES1    0.0000
     16 C10       -0.3583   15.5128    8.0153 C.3       1 RES1    0.0000
     17 C11        3.9462   14.2512    7.6228 C.3       1 RES1    0.0000
     18 C12        3.8120   12.5926    3.4141 C.ar      1 RES1    0.0000
     19 C13        2.5151   12.3986    2.9031 C.ar      1 RES1    0.0000
     20 C14        1.3690   12.7255    3.6564 C.ar      1 RES1    0.0000
     21 C15        0.9568   12.3513    9.3325 C.3       1 RES1    0.0000
     22 C16       -2.8608   17.1669   10.2995 C.3       1 RES1    0.0000
     23 H1         1.5394   15.1966    8.8913 H         1 RES1    0.0000
     24 H2        -2.2006   14.6361    7.4895 H         1 RES1    0.0000
     25 H3         4.8765   13.2279    5.0244 H         1 RES1    0.0000
     26 H4        -0.1489   16.1329    7.2863 H         1 RES1    0.0000
     27 H5         4.7544   14.0160    7.1615 H         1 RES1    0.0000
     28 H6         3.8830   13.7457    8.4364 H         1 RES1    0.0000
     29 H7         3.9561   15.1890    7.8291 H         1 RES1    0.0000
     30 H8         4.5468   12.3742    2.8872 H         1 RES1    0.0000
     31 H9         2.4112   12.0473    2.0483 H         1 RES1    0.0000
     32 H10        0.5159   12.5911    3.3104 H         1 RES1    0.0000
     33 H11        0.4628   11.7419    9.8837 H         1 RES1    0.0000
     34 H12        1.8171   12.5147    9.7250 H         1 RES1    0.0000
     35 H13        1.0710   11.9710    8.4575 H         1 RES1    0.0000
     36 H14       -3.8132   17.1852   10.1767 H         1 RES1    0.0000
     37 H15       -2.5214   18.0649   10.2952 H         1 RES1    0.0000
     38 H16       -3.1206   16.7514   11.1395 H         1 RES1    0.0000
@<TRIPOS>BOND
     1    1    8 2
     2    2   11 1
     3    3    7 1
     4    4    6 2
     5    5    6 1
     6    6   12 1
     7    7   12 1
     8    8    4 1
     9    9    5 1
    10   10    4 1
    11   11   14 2
    12   12   16 1
    13   13    3 1
    14   15    9 ar
    15   16   11 1
    16   17    5 1
    17   18   15 ar
    18   19   18 ar
    19   20   10 ar
    20   21    7 1
    21   22    2 1
    22   23   12 1
    23   24   13 1
    24   25   15 1
    25   26   16 1
    26   27   17 1
    27   28   17 1
    28   29   17 1
    29   30   18 1
    30   31   19 1
    31   32   20 1
    32   33   21 1
    33   34   21 1
    34   35   21 1
    35   36   22 1
    36   37   22 1
    37   38   22 1
    38    8   13 1
    39    9   10 ar
    40   13   16 1
    41   19   20 ar
@<TRIPOS>SUBSTRUCTURE
     1 RES1 1

@<TRIPOS>CRYSIN
   9.3160   15.2730   11.0040  90.0000 105.9600  90.0000 231 1

