# MOL2 file generated by ConQuest
# Please check atom types

@<TRIPOS>MOLECULE
NARNOL
    26    26     1
SMALL
NO_CHARGES
****
Generated from CSD

@<TRIPOS>ATOM
      1 O1         3.7912    0.4488   -0.6149 O.2       1 RES1    0.0000
      2 O2         3.2369    0.6568    2.3433 O.3       1 RES1    0.0000
      3 O3         3.7316    4.6269    1.2426 O.2       1 RES1    0.0000
      4 O4         3.7706    3.7705   -0.8329 O.3       1 RES1    0.0000
      5 N1         0.8779    2.3624   -0.1486 N.ar      1 RES1    0.0000
      6 N2         3.5344    1.9887    2.1144 N.2       1 RES1    0.0000
      7 C1        -0.3939    2.4658   -0.5544 C.ar      1 RES1    0.0000
      8 C2        -0.9791    1.6012   -1.4624 C.ar      1 RES1    0.0000
      9 C3        -0.2193    0.5750   -1.9840 C.ar      1 RES1    0.0000
     10 C4         1.0957    0.4354   -1.5660 C.ar      1 RES1    0.0000
     11 C5         1.5947    1.3551   -0.6591 C.ar      1 RES1    0.0000
     12 C6         3.0080    1.2670   -0.1905 C.2       1 RES1    0.0000
     13 C7         3.4105    2.2720    0.8721 C.2       1 RES1    0.0000
     14 C8         3.6635    3.6872    0.4839 C.2       1 RES1    0.0000
     15 C9         4.0763    5.0802   -1.3938 C.3       1 RES1    0.0000
     16 C10        3.8787    4.9628   -2.8762 C.3       1 RES1    0.0000
     17 H1        -0.9222    3.1709   -0.1999 H         1 RES1    0.0000
     18 H2        -1.8868    1.7122   -1.7210 H         1 RES1    0.0000
     19 H3         3.2795    0.5623    3.2585 H         1 RES1    0.0000
     20 H4        -0.5908   -0.0261   -2.6186 H         1 RES1    0.0000
     21 H5         1.6388   -0.2722   -1.8932 H         1 RES1    0.0000
     22 H6         5.0106    5.3345   -1.1880 H         1 RES1    0.0000
     23 H7         3.4707    5.7673   -1.0170 H         1 RES1    0.0000
     24 H8         2.9441    4.7388   -3.0649 H         1 RES1    0.0000
     25 H9         4.4612    4.2580   -3.2283 H         1 RES1    0.0000
     26 H10        4.1027    5.8153   -3.3038 H         1 RES1    0.0000
@<TRIPOS>BOND
     1    1   12 2
     2    2    6 1
     3    3   14 2
     4    4   14 1
     5    5    7 ar
     6    6   13 2
     7    7    8 ar
     8    8    9 ar
     9    9   10 ar
    10   10   11 ar
    11   11    5 ar
    12   12   11 1
    13   13   12 1
    14   14   13 1
    15   15    4 1
    16   16   15 1
    17   17    7 1
    18   18    8 1
    19   19    2 1
    20   20    9 1
    21   21   10 1
    22   22   15 1
    23   23   15 1
    24   24   16 1
    25   25   16 1
    26   26   16 1
@<TRIPOS>SUBSTRUCTURE
     1 RES1 1

@<TRIPOS>CRYSIN
  20.7192    8.1493   14.3365  90.0000 118.7320  90.0000  15 1

