# MOL2 file generated by ConQuest
# Please check atom types

@<TRIPOS>MOLECULE
NARNUR
    23    23     1
SMALL
NO_CHARGES
****
Generated from CSD

@<TRIPOS>ATOM
      1 O1         1.3144   -0.9453    4.5908 O.2       1 RES1    0.0000
      2 O2         4.3073   -1.8326    3.4528 O.3       1 RES1    0.0000
      3 O3         2.3557    0.5580    0.7344 O.2       1 RES1    0.0000
      4 O4         1.1867    1.2524    2.5034 O.3       1 RES1    0.0000
      5 N1         5.1213    1.4775    6.0822 N.ar      1 RES1    0.0000
      6 N2         3.7794   -1.0597    2.4545 N.2       1 RES1    0.0000
      7 C1         4.7109    1.3612    7.3484 C.ar      1 RES1    0.0000
      8 C2         3.5550    0.7154    7.7138 C.ar      1 RES1    0.0000
      9 C3         2.7622    0.1431    6.7399 C.ar      1 RES1    0.0000
     10 C4         3.1824    0.2299    5.4082 C.ar      1 RES1    0.0000
     11 C5         4.3645    0.9014    5.1314 C.ar      1 RES1    0.0000
     12 C6         2.3591   -0.3863    4.3455 C.2       1 RES1    0.0000
     13 C7         2.8240   -0.3224    2.9106 C.2       1 RES1    0.0000
     14 C8         2.1256    0.5304    1.9105 C.2       1 RES1    0.0000
     15 C9         0.4322    2.1529    1.6563 C.3       1 RES1    0.0000
     16 H1         5.2467    1.7456    8.0328 H         1 RES1    0.0000
     17 H2         3.3032    0.6629    8.6277 H         1 RES1    0.0000
     18 H3         4.9576   -2.2988    3.0338 H         1 RES1    0.0000
     19 H4         1.9527   -0.2986    6.9676 H         1 RES1    0.0000
     20 H5         4.6530    0.9558    4.2286 H         1 RES1    0.0000
     21 H6        -0.2307    1.6426    1.1454 H         1 RES1    0.0000
     22 H7         1.0413    2.6079    1.0380 H         1 RES1    0.0000
     23 H8        -0.0252    2.8187    2.2123 H         1 RES1    0.0000
@<TRIPOS>BOND
     1    1   12 2
     2    2    6 1
     3    3   14 2
     4    4   14 1
     5    5    7 ar
     6    6   13 2
     7    7    8 ar
     8    8    9 ar
     9    9   10 ar
    10   10   11 ar
    11   11    5 ar
    12   12   10 1
    13   13   12 1
    14   14   13 1
    15   15    4 1
    16   16    7 1
    17   17    8 1
    18   18    2 1
    19   19    9 1
    20   20   11 1
    21   21   15 1
    22   22   15 1
    23   23   15 1
@<TRIPOS>SUBSTRUCTURE
     1 RES1 1

@<TRIPOS>CRYSIN
   5.7247    9.5387   17.0440  90.0000  90.0000  90.0000  19 1

