# MOL2 file generated by ConQuest
# Please check atom types

@<TRIPOS>MOLECULE
NASCOC
    45    46     1
SMALL
NO_CHARGES
****
Generated from CSD

@<TRIPOS>ATOM
      1 O1         1.5667    2.5405    1.7387 O.3       1 RES1    0.0000
      2 C1         0.6145    2.1480    2.6366 C.ar      1 RES1    0.0000
      3 C2        -1.1288    1.3402    4.5909 C.ar      1 RES1    0.0000
      4 C3         0.9752    2.3307    3.9888 C.ar      1 RES1    0.0000
      5 O2        -1.6433    0.9412    6.8223 O.2       1 RES1    0.0000
      6 C4         2.3660    4.4617    4.0966 C.3       1 RES1    0.0000
      7 H1         2.1752    4.6165    3.1271 H         1 RES1    0.0000
      8 O3        -3.0427    0.2656    5.3075 O.2       1 RES1    0.0000
      9 N1        -2.0011    0.8261    5.6433 N.pl3     1 RES1    0.0000
     10 C5         1.3441    2.2273    0.3579 C.3       1 RES1    0.0000
     11 H2         1.2367    1.2588    0.2554 H         1 RES1    0.0000
     12 H3         2.1119    2.5283   -0.1729 H         1 RES1    0.0000
     13 H4         0.5340    2.6813    0.0461 H         1 RES1    0.0000
     14 C6         3.7525    5.0739    4.4087 C.3       1 RES1    0.0000
     15 C7         2.8501    5.3700    6.7872 C.2       1 RES1    0.0000
     16 C8         1.2912    5.1667    4.8973 C.2       1 RES1    0.0000
     17 C9         0.0782    1.9153    4.9521 C.ar      1 RES1    0.0000
     18 H5         0.2904    2.0246    5.8718 H         1 RES1    0.0000
     19 C10        1.6212    5.4582    6.2871 C.2       1 RES1    0.0000
     20 C11       -1.4936    1.1798    3.2722 C.ar      1 RES1    0.0000
     21 H6        -2.3311    0.7935    3.0427 H         1 RES1    0.0000
     22 C12        2.3042    2.9429    4.3516 C.3       1 RES1    0.0000
     23 H7         3.0158    2.4995    3.8261 H         1 RES1    0.0000
     24 H8         2.4847    2.7708    5.3099 H         1 RES1    0.0000
     25 C13       -0.6076    1.5963    2.2869 C.ar      1 RES1    0.0000
     26 H9        -0.8410    1.5032    1.3702 H         1 RES1    0.0000
     27 C14        3.1519    5.6327    8.2398 C.3       1 RES1    0.0000
     28 H10        3.7623    6.3960    8.3136 H         1 RES1    0.0000
     29 H11        3.5722    4.8398    8.6346 H         1 RES1    0.0000
     30 H12        2.3196    5.8325    8.7161 H         1 RES1    0.0000
     31 C15        3.7458    6.5410    3.9724 C.3       1 RES1    0.0000
     32 H13        4.6093    6.9502    4.1899 H         1 RES1    0.0000
     33 H14        3.0305    7.0181    4.4429 H         1 RES1    0.0000
     34 H15        3.5931    6.5937    3.0061 H         1 RES1    0.0000
     35 C16        4.0146    4.9899    5.9235 C.3       1 RES1    0.0000
     36 H16        4.2820    4.0628    6.1462 H         1 RES1    0.0000
     37 H17        4.7769    5.5814    6.1451 H         1 RES1    0.0000
     38 C17        0.1042    5.4564    4.3957 C.2       1 RES1    0.0000
     39 C18        4.8718    4.3542    3.6620 C.3       1 RES1    0.0000
     40 H18        4.7000    4.3961    2.6977 H         1 RES1    0.0000
     41 H19        4.9047    3.4174    3.9473 H         1 RES1    0.0000
     42 H20        5.7278    4.7871    3.8604 H         1 RES1    0.0000
     43 H21        0.9327    5.7754    6.7978 H         1 RES1    0.0000
     44 H22       -0.0960    5.2525    3.4479 H         1 RES1    0.0000
     45 H23       -0.6035    5.8753    4.8532 H         1 RES1    0.0000
@<TRIPOS>BOND
     1    1    2 1
     2    2    4 ar
     3    3    9 1
     4    4   17 ar
     5    5    9 2
     6    6    7 1
     7    8    9 2
     8   10    1 1
     9   11   10 1
    10   12   10 1
    11   13   10 1
    12   14    6 1
    13   15   19 2
    14   16    6 1
    15   17    3 ar
    16   18   17 1
    17   19   16 1
    18   20    3 ar
    19   21   20 1
    20   22    4 1
    21   23   22 1
    22   24   22 1
    23   25    2 ar
    24   26   25 1
    25   27   15 1
    26   28   27 1
    27   29   27 1
    28   30   27 1
    29   31   14 1
    30   32   31 1
    31   33   31 1
    32   34   31 1
    33   35   14 1
    34   36   35 1
    35   37   35 1
    36   38   16 2
    37   39   14 1
    38   40   39 1
    39   41   39 1
    40   42   39 1
    41   43   19 1
    42   44   38 1
    43   45   38 1
    44    6   22 1
    45   15   35 1
    46   20   25 ar
@<TRIPOS>SUBSTRUCTURE
     1 RES1 1

@<TRIPOS>CRYSIN
  13.7157   58.7530    8.1704  90.0000  90.0000  90.0000  43 1

