# MOL2 file generated by ConQuest
# Please check atom types

@<TRIPOS>MOLECULE
NASXEN
    40    42     1
SMALL
NO_CHARGES
****
Generated from CSD

@<TRIPOS>ATOM
      1 O1         2.8582    6.1286    1.7118 O.3       1 RES1    0.0000
      2 O2         4.3351    6.2932   -0.1237 O.3       1 RES1    0.0000
      3 N1         1.9472   10.2309    1.1205 N.pl3     1 RES1    0.0000
      4 H1         1.5538    9.8191    1.7649 H         1 RES1    0.0000
      5 O3         1.5048    7.7768    2.2630 O.2       1 RES1    0.0000
      6 C1         1.6292   11.5839    0.9342 C.ar      1 RES1    0.0000
      7 C2         2.4281    7.4059    1.5688 C.2       1 RES1    0.0000
      8 C3         0.9351   12.3195    1.9008 C.ar      1 RES1    0.0000
      9 C4         3.0931    8.2103    0.5698 C.2       1 RES1    0.0000
     10 N2         0.5010   11.7180    3.1624 N.pl3     1 RES1    0.0000
     11 C5         0.5973   13.6493    1.7092 C.ar      1 RES1    0.0000
     12 H2         0.1228   14.1086    2.3648 H         1 RES1    0.0000
     13 O4         0.2812   10.5124    3.2020 O.2       1 RES1    0.0000
     14 C6         2.8028    9.5326    0.3887 C.2       1 RES1    0.0000
     15 H3         3.2402    9.9768   -0.3020 H         1 RES1    0.0000
     16 C7         4.1740    5.7973    1.2127 C.3       1 RES1    0.0000
     17 C8         1.9877   12.2591   -0.2315 C.ar      1 RES1    0.0000
     18 H4         2.4497   11.8074   -0.9008 H         1 RES1    0.0000
     19 C9         4.0375    7.6021   -0.3562 C.2       1 RES1    0.0000
     20 O5         4.5246    8.1413   -1.3229 O.2       1 RES1    0.0000
     21 C10        5.2313    6.3709    2.1172 C.3       1 RES1    0.0000
     22 H5         5.1011    7.3294    2.1949 H         1 RES1    0.0000
     23 H6         6.1055    6.2185    1.7251 H         1 RES1    0.0000
     24 C11        0.9630   14.2879    0.5510 C.ar      1 RES1    0.0000
     25 H7         0.7403   15.1804    0.4132 H         1 RES1    0.0000
     26 O6         0.3779   12.4436    4.1275 O.2       1 RES1    0.0000
     27 C12        1.6646   13.5875   -0.4037 C.ar      1 RES1    0.0000
     28 H8         1.9275   14.0209   -1.1840 H         1 RES1    0.0000
     29 C13        4.2376    4.2974    1.1368 C.3       1 RES1    0.0000
     30 H9         5.0669    4.0322    0.7079 H         1 RES1    0.0000
     31 H10        3.5026    3.9706    0.5946 H         1 RES1    0.0000
     32 C14        5.1856    5.7427    3.5029 C.3       1 RES1    0.0000
     33 H11        5.9349    6.0655    4.0269 H         1 RES1    0.0000
     34 H12        4.3677    6.0110    3.9514 H         1 RES1    0.0000
     35 C15        5.2420    4.2280    3.4260 C.3       1 RES1    0.0000
     36 H13        5.1316    3.8568    4.3153 H         1 RES1    0.0000
     37 H14        6.1126    3.9563    3.0946 H         1 RES1    0.0000
     38 C16        4.1616    3.6754    2.5137 C.3       1 RES1    0.0000
     39 H15        4.2645    2.7138    2.4382 H         1 RES1    0.0000
     40 H16        3.2901    3.8544    2.9006 H         1 RES1    0.0000
@<TRIPOS>BOND
     1    1    7 1
     2    2   16 1
     3    3    4 1
     4    5    7 2
     5    6    3 1
     6    7    9 1
     7    8    6 ar
     8    9   14 2
     9   10    8 1
    10   11    8 ar
    11   12   11 1
    12   13   10 2
    13   14    3 1
    14   15   14 1
    15   16    1 1
    16   17    6 ar
    17   18   17 1
    18   19    2 1
    19   20   19 2
    20   21   16 1
    21   22   21 1
    22   23   21 1
    23   24   11 ar
    24   25   24 1
    25   26   10 2
    26   27   17 ar
    27   28   27 1
    28   29   16 1
    29   30   29 1
    30   31   29 1
    31   32   21 1
    32   33   32 1
    33   34   32 1
    34   35   32 1
    35   36   35 1
    36   37   35 1
    37   38   29 1
    38   39   38 1
    39   40   38 1
    40    9   19 1
    41   24   27 ar
    42   35   38 1
@<TRIPOS>SUBSTRUCTURE
     1 RES1 1

@<TRIPOS>CRYSIN
  12.4720   11.8560   10.6430  90.0000  99.8300  90.0000  14 1

