# MOL2 file generated by ConQuest
# Please check atom types

@<TRIPOS>MOLECULE
NASYEM
    38    39     1
SMALL
NO_CHARGES
****
Generated from CSD

@<TRIPOS>ATOM
      1 C1         9.4801    1.0544    0.8652 C.ar      1 RES1    0.0000
      2 C2        10.7341    1.6314    0.9051 C.ar      1 RES1    0.0000
      3 C3        11.8486    1.0623    1.5563 C.ar      1 RES1    0.0000
      4 C4        13.1551    1.6427    1.5675 C.ar      1 RES1    0.0000
      5 H1        13.3148    2.4629    1.1165 H         1 RES1    0.0000
      6 C5        14.1695    1.0193    2.2238 C.ar      1 RES1    0.0000
      7 H2        15.0388    1.4028    2.2135 H         1 RES1    0.0000
      8 C6        13.9534   -0.1765    2.9135 C.ar      1 RES1    0.0000
      9 H3        14.6691   -0.5838    3.3851 H         1 RES1    0.0000
     10 C7        12.7265   -0.7603    2.9135 C.ar      1 RES1    0.0000
     11 H4        12.5913   -1.5737    3.3874 H         1 RES1    0.0000
     12 C8        11.6528   -0.1720    2.2158 C.ar      1 RES1    0.0000
     13 C9        10.3724   -0.7885    2.1561 C.ar      1 RES1    0.0000
     14 H5        10.2373   -1.6235    2.5876 H         1 RES1    0.0000
     15 C10        9.3362   -0.2059    1.4940 C.ar      1 RES1    0.0000
     16 H6         8.4982   -0.6539    1.4539 H         1 RES1    0.0000
     17 C11        8.3446    1.7128    0.2100 C.2       1 RES1    0.0000
     18 H7         8.5158    2.1597   -0.6105 H         1 RES1    0.0000
     19 C12        7.0772    1.7377    0.6724 C.2       1 RES1    0.0000
     20 C13        6.6403    1.0804    1.9496 C.2       1 RES1    0.0000
     21 O1         5.8852    0.1485    1.9827 O.2       1 RES1    0.0000
     22 O2         7.1705    1.6714    3.0154 O.3       1 RES1    0.0000
     23 C14        6.7877    1.1200    4.3192 C.3       1 RES1    0.0000
     24 H8         5.8318    0.8643    4.2951 H         1 RES1    0.0000
     25 H9         6.8995    1.8169    5.0122 H         1 RES1    0.0000
     26 C15        7.6052   -0.0735    4.6864 C.3       1 RES1    0.0000
     27 H10        7.3183   -0.4095    5.5607 H         1 RES1    0.0000
     28 H11        8.5521    0.1799    4.7277 H         1 RES1    0.0000
     29 H12        7.4845   -0.7727    4.0105 H         1 RES1    0.0000
     30 C16        5.9941    2.4799   -0.0390 C.2       1 RES1    0.0000
     31 O3         4.9408    2.6722    0.5410 O.2       1 RES1    0.0000
     32 C17        6.2379    3.0059   -1.4126 C.3       1 RES1    0.0000
     33 H13        5.4336    3.4630   -1.7350 H         1 RES1    0.0000
     34 H14        6.4537    2.2615   -2.0127 H         1 RES1    0.0000
     35 H15        6.9867    3.6372   -1.3919 H         1 RES1    0.0000
     36 N1        10.9117    2.9764    0.3146 N.pl3     1 RES1    0.0000
     37 O4        11.2119    3.8845    1.0685 O.2       1 RES1    0.0000
     38 O5        10.7607    3.1198   -0.8802 O.2       1 RES1    0.0000
@<TRIPOS>BOND
     1    1    2 ar
     2    2    3 ar
     3    3    4 ar
     4    4    5 1
     5    6    4 ar
     6    7    6 1
     7    8    6 ar
     8    9    8 1
     9   10    8 ar
    10   11   10 1
    11   12    3 ar
    12   13   12 ar
    13   14   13 1
    14   15    1 ar
    15   16   15 1
    16   17    1 1
    17   18   17 1
    18   19   17 2
    19   20   19 1
    20   21   20 2
    21   22   20 1
    22   23   22 1
    23   24   23 1
    24   25   23 1
    25   26   23 1
    26   27   26 1
    27   28   26 1
    28   29   26 1
    29   30   19 1
    30   31   30 2
    31   32   30 1
    32   33   32 1
    33   34   32 1
    34   35   32 1
    35   36    2 1
    36   37   36 2
    37   38   36 2
    38   10   12 ar
    39   13   15 ar
@<TRIPOS>SUBSTRUCTURE
     1 RES1 1

@<TRIPOS>CRYSIN
  11.6178   11.3133   11.8311  90.0000 104.0950  90.0000 231 1

