# MOL2 file generated by ConQuest
# Please check atom types

@<TRIPOS>MOLECULE
NATHAS
    40    41     1
SMALL
NO_CHARGES
****
Generated from CSD

@<TRIPOS>ATOM
      1 N1         4.1894    5.8276    3.0833 N.pl3     1 RES1    0.0000
      2 N2         3.0979    1.3084    4.3768 N.pl3     1 RES1    0.0000
      3 N3         0.3788    4.8597    6.2330 N.pl3     1 RES1    0.0000
      4 N4         2.0280    6.8039    4.8349 N.pl3     1 RES1    0.0000
      5 H1         1.3250    7.0574    5.2604 H         1 RES1    0.0000
      6 N5         2.8580    7.7494    4.2784 N.2       1 RES1    0.0000
      7 O1         3.7195    6.1444    2.0229 O.2       1 RES1    0.0000
      8 O2         5.3022    6.1166    3.4699 O.2       1 RES1    0.0000
      9 O3         3.9720    0.9621    3.5921 O.2       1 RES1    0.0000
     10 O4         2.4290    0.5336    5.0377 O.2       1 RES1    0.0000
     11 O5        -0.2352    3.9629    6.7820 O.2       1 RES1    0.0000
     12 O6         0.0742    6.0394    6.3703 O.2       1 RES1    0.0000
     13 O7         6.3969   10.1068    1.6118 O.3       1 RES1    0.0000
     14 C1         2.2942    5.4968    4.7265 C.ar      1 RES1    0.0000
     15 C2         3.3590    4.9684    3.9529 C.ar      1 RES1    0.0000
     16 C3         3.6460    3.6432    3.8537 C.ar      1 RES1    0.0000
     17 H2         4.3678    3.3520    3.3445 H         1 RES1    0.0000
     18 C4         2.8395    2.7312    4.5282 C.ar      1 RES1    0.0000
     19 C5         1.7799    3.1580    5.2837 C.ar      1 RES1    0.0000
     20 H3         1.2389    2.5411    5.7214 H         1 RES1    0.0000
     21 C6         1.5185    4.5022    5.3924 C.ar      1 RES1    0.0000
     22 C7         1.1958    9.4250    5.0134 C.3       1 RES1    0.0000
     23 H4         0.4765    8.8581    4.7274 H         1 RES1    0.0000
     24 H5         1.0092   10.3318    4.7594 H         1 RES1    0.0000
     25 H6         1.2860    9.3728    5.9673 H         1 RES1    0.0000
     26 C8         2.4778    8.9757    4.3624 C.2       1 RES1    0.0000
     27 C9         3.3937    9.9754    3.7523 C.ar      1 RES1    0.0000
     28 C10        4.4675    9.5398    2.9665 C.ar      1 RES1    0.0000
     29 H7         4.5963    8.6294    2.8287 H         1 RES1    0.0000
     30 C11        5.3352   10.4454    2.3957 C.ar      1 RES1    0.0000
     31 C12        5.1552   11.8072    2.6154 C.ar      1 RES1    0.0000
     32 H8         5.7520   12.4213    2.2510 H         1 RES1    0.0000
     33 C13        4.0990   12.2421    3.3679 C.ar      1 RES1    0.0000
     34 H9         3.9735   13.1544    3.5001 H         1 RES1    0.0000
     35 C14        3.2157   11.3404    3.9345 C.ar      1 RES1    0.0000
     36 H10        2.4987   11.6500    4.4392 H         1 RES1    0.0000
     37 C15        6.5333    8.7365    1.2502 C.3       1 RES1    0.0000
     38 H11        6.7248    8.2158    2.0337 H         1 RES1    0.0000
     39 H12        7.2522    8.6425    0.6200 H         1 RES1    0.0000
     40 H13        5.7165    8.4270    0.8521 H         1 RES1    0.0000
@<TRIPOS>BOND
     1    1    7 2
     2    2    9 2
     3    3   11 2
     4    4    5 1
     5    6    4 1
     6    8    1 2
     7   10    2 2
     8   12    3 2
     9   13   30 1
    10   14    4 1
    11   15    1 1
    12   16   15 ar
    13   17   16 1
    14   18    2 1
    15   19   18 ar
    16   20   19 1
    17   21    3 1
    18   22   23 1
    19   24   22 1
    20   25   22 1
    21   26    6 2
    22   27   26 1
    23   28   27 ar
    24   29   28 1
    25   30   28 ar
    26   31   30 ar
    27   32   31 1
    28   33   31 ar
    29   34   33 1
    30   35   27 ar
    31   36   35 1
    32   37   13 1
    33   38   37 1
    34   39   37 1
    35   40   37 1
    36   14   15 ar
    37   14   21 ar
    38   16   18 ar
    39   19   21 ar
    40   22   26 1
    41   33   35 ar
@<TRIPOS>SUBSTRUCTURE
     1 RES1 1

@<TRIPOS>CRYSIN
   9.7926   14.6633   11.6359  90.0000 100.5760  90.0000 231 1

