# MOL2 file generated by ConQuest
# Please check atom types

@<TRIPOS>MOLECULE
NAVHEA
    48    50     1
SMALL
NO_CHARGES
****
Generated from CSD

@<TRIPOS>ATOM
      1 N1        -1.1547    2.7498    9.8585 N.3       1 RES1    0.0000
      2 H1        -1.9583    2.6388    9.6033 H         1 RES1    0.0000
      3 C1        -0.2232    3.3660    8.9064 C.3       1 RES1    0.0000
      4 H2        -0.7286    3.9375    8.2913 H         1 RES1    0.0000
      5 C2         0.6807    4.2734    9.8214 C.3       1 RES1    0.0000
      6 C3         0.3879    3.7448   11.2261 C.3       1 RES1    0.0000
      7 H3         0.9068    2.9491   11.4232 H         1 RES1    0.0000
      8 H4         0.5608    4.4179   11.9031 H         1 RES1    0.0000
      9 C4        -1.0931    3.4310   11.1166 C.3       1 RES1    0.0000
     10 H5        -1.6068    4.2642   11.0686 H         1 RES1    0.0000
     11 C5         0.5233    2.3191    8.1054 C.ar      1 RES1    0.0000
     12 C6         0.7557    1.0412    8.5942 C.ar      1 RES1    0.0000
     13 H6         0.4343    0.8030    9.4336 H         1 RES1    0.0000
     14 C7         1.4628    0.1147    7.8399 C.ar      1 RES1    0.0000
     15 H7         1.6082   -0.7427    8.1684 H         1 RES1    0.0000
     16 C8         1.9496    0.4766    6.5940 C.ar      1 RES1    0.0000
     17 C9         1.7302    1.7508    6.0981 C.ar      1 RES1    0.0000
     18 H8         2.0578    1.9897    5.2607 H         1 RES1    0.0000
     19 C10        1.0207    2.6704    6.8573 C.ar      1 RES1    0.0000
     20 H9         0.8761    3.5276    6.5284 H         1 RES1    0.0000
     21 N2         2.6277   -0.5497    5.7972 N.pl3     1 RES1    0.0000
     22 O1         3.0441   -0.2062    4.7109 O.2       1 RES1    0.0000
     23 O2         2.7355   -1.6740    6.2421 O.2       1 RES1    0.0000
     24 C11        2.1693    4.1872    9.4707 C.2       1 RES1    0.0000
     25 O3         2.9695    3.5061   10.0170 O.2       1 RES1    0.0000
     26 O4         2.4221    4.9603    8.4173 O.3       1 RES1    0.0000
     27 C12        3.7791    4.9511    7.9342 C.3       1 RES1    0.0000
     28 H10        4.3694    5.2457    8.6320 H         1 RES1    0.0000
     29 H11        3.8545    5.5425    7.1806 H         1 RES1    0.0000
     30 H12        4.0183    4.0610    7.6669 H         1 RES1    0.0000
     31 C13        0.2603    5.7371    9.7118 C.2       1 RES1    0.0000
     32 O5        -0.6019    6.1667    9.0181 O.2       1 RES1    0.0000
     33 O6         0.9781    6.4714   10.5530 O.3       1 RES1    0.0000
     34 C14        0.7490    7.8848   10.5621 C.3       1 RES1    0.0000
     35 H13        0.5670    8.1738   11.4599 H         1 RES1    0.0000
     36 H14       -0.0024    8.0906   10.0010 H         1 RES1    0.0000
     37 H15        1.5288    8.3369   10.2315 H         1 RES1    0.0000
     38 C15       -1.5954    2.5716   12.3026 C.ar      1 RES1    0.0000
     39 C16       -2.0916    3.1946   13.4404 C.ar      1 RES1    0.0000
     40 H16       -2.1653    4.1210   13.4697 H         1 RES1    0.0000
     41 C17       -2.4778    2.4332   14.5334 C.ar      1 RES1    0.0000
     42 H17       -2.8059    2.8511   15.2959 H         1 RES1    0.0000
     43 C18       -2.3773    1.0551   14.4944 C.ar      1 RES1    0.0000
     44 H18       -2.6460    0.5476   15.2262 H         1 RES1    0.0000
     45 C19       -1.8754    0.4336   13.3655 C.ar      1 RES1    0.0000
     46 H19       -1.8002   -0.4936   13.3405 H         1 RES1    0.0000
     47 C20       -1.4859    1.1862   12.2727 C.ar      1 RES1    0.0000
     48 H20       -1.1498    0.7645   11.5156 H         1 RES1    0.0000
@<TRIPOS>BOND
     1    1    2 1
     2    3    1 1
     3    4    3 1
     4    5    3 1
     5    6    5 1
     6    7    6 1
     7    8    6 1
     8    9    1 1
     9   10    9 1
    10   11    3 1
    11   12   11 ar
    12   13   12 1
    13   14   12 ar
    14   15   14 1
    15   16   14 ar
    16   17   16 ar
    17   18   17 1
    18   19   11 ar
    19   20   19 1
    20   21   16 1
    21   22   21 2
    22   23   21 2
    23   24    5 1
    24   25   24 2
    25   26   24 1
    26   27   26 1
    27   28   27 1
    28   29   27 1
    29   30   27 1
    30   31    5 1
    31   32   31 2
    32   33   31 1
    33   34   33 1
    34   35   34 1
    35   36   34 1
    36   37   34 1
    37   38    9 1
    38   39   38 ar
    39   40   39 1
    40   41   39 ar
    41   42   41 1
    42   43   41 ar
    43   44   43 1
    44   45   43 ar
    45   46   45 1
    46   47   38 ar
    47   48   47 1
    48    6    9 1
    49   17   19 ar
    50   45   47 ar
@<TRIPOS>SUBSTRUCTURE
     1 RES1 1

@<TRIPOS>CRYSIN
   7.5847    9.9044   12.6738  88.3340  88.3180  82.3130   2 1

