# MOL2 file generated by ConQuest
# Please check atom types

@<TRIPOS>MOLECULE
NAWKAX
    49    51     1
SMALL
NO_CHARGES
****
Generated from CSD

@<TRIPOS>ATOM
      1 O1         2.5248    3.3433    4.4616 O.2       1 RES1    0.0000
      2 O2         0.8889    3.1858    5.8669 O.2       1 RES1    0.0000
      3 O3         0.2340    5.3288    0.3745 O.3       1 RES1    0.0000
      4 O4        -3.7091    2.6311   -8.8003 O.3       1 RES1    0.0000
      5 N1         1.3404    3.4793    4.7702 N.pl3     1 RES1    0.0000
      6 N2        -1.9734    5.5492    0.8270 N.2       1 RES1    0.0000
      7 N3        -1.5651    7.8764   -5.2062 N.3       1 RES1    0.0000
      8 C1         0.4258    4.0214    3.7574 C.ar      1 RES1    0.0000
      9 C2        -0.9106    4.1220    4.0885 C.ar      1 RES1    0.0000
     10 C3        -1.8213    4.6026    3.1747 C.ar      1 RES1    0.0000
     11 C4        -1.3290    4.9879    1.9177 C.ar      1 RES1    0.0000
     12 C5         0.0261    4.8563    1.6450 C.ar      1 RES1    0.0000
     13 C6         0.9450    4.3889    2.5214 C.ar      1 RES1    0.0000
     14 C7        -1.0194    5.7363   -0.0509 C.2       1 RES1    0.0000
     15 C8        -1.1238    6.2902   -1.3663 C.ar      1 RES1    0.0000
     16 C9        -2.3494    6.7295   -1.8248 C.ar      1 RES1    0.0000
     17 C10       -2.4985    7.2486   -3.0758 C.ar      1 RES1    0.0000
     18 C11       -1.4327    7.3543   -3.9732 C.ar      1 RES1    0.0000
     19 C12       -0.1719    6.8921   -3.4833 C.ar      1 RES1    0.0000
     20 C13       -0.0311    6.3922   -2.2248 C.ar      1 RES1    0.0000
     21 C14       -0.4293    7.8735   -6.1396 C.3       1 RES1    0.0000
     22 C15       -2.8393    8.3512   -5.7081 C.3       1 RES1    0.0000
     23 C16       -3.7680    7.2856   -6.2534 C.3       1 RES1    0.0000
     24 C17       -3.2941    6.6533   -7.5209 C.3       1 RES1    0.0000
     25 C18       -4.2896    5.5980   -8.0722 C.3       1 RES1    0.0000
     26 C19       -3.8154    4.9325   -9.2857 C.3       1 RES1    0.0000
     27 C20       -3.6271    3.7345   -9.3771 C.3       1 RES1    0.0000
     28 H1        -2.6763    8.9553   -6.4122 H         1 RES1    0.0000
     29 H2        -3.2697    8.8074   -5.0039 H         1 RES1    0.0000
     30 H3        -4.6309    7.6464   -6.3972 H         1 RES1    0.0000
     31 H4        -3.8244    6.6037   -5.5882 H         1 RES1    0.0000
     32 H5        -2.4479    6.2266   -7.3711 H         1 RES1    0.0000
     33 H6        -3.1876    7.3358   -8.1801 H         1 RES1    0.0000
     34 H7        -5.1093    6.0269   -8.2550 H         1 RES1    0.0000
     35 H8        -4.4195    4.9325   -7.4010 H         1 RES1    0.0000
     36 H9        -2.9609    5.3392   -9.4386 H         1 RES1    0.0000
     37 H10       -4.4174    5.1987   -9.9629 H         1 RES1    0.0000
     38 H11       -2.7283    3.7197   -9.6783 H         1 RES1    0.0000
     39 H12       -4.2344    3.5496  -10.0978 H         1 RES1    0.0000
     40 H13       -3.3772    7.5577   -3.3410 H         1 RES1    0.0000
     41 H14       -3.1147    6.6703   -1.2585 H         1 RES1    0.0000
     42 H15        0.8410    6.1157   -1.9327 H         1 RES1    0.0000
     43 H16        0.5784    6.9365   -4.0451 H         1 RES1    0.0000
     44 H17       -2.7540    4.6662    3.3859 H         1 RES1    0.0000
     45 H18       -1.2247    3.8602    4.9590 H         1 RES1    0.0000
     46 H19        1.8843    4.3187    2.3072 H         1 RES1    0.0000
     47 H20       -0.6913    8.2750   -6.9666 H         1 RES1    0.0000
     48 H21        0.2845    8.3563   -5.7680 H         1 RES1    0.0000
     49 H22       -0.1696    6.9735   -6.2924 H         1 RES1    0.0000
@<TRIPOS>BOND
     1    1    5 2
     2    2    5 2
     3    3   12 1
     4    4   27 1
     5    5    8 1
     6    6   11 1
     7    7   18 1
     8    8    9 ar
     9    9   10 ar
    10   10   11 ar
    11   11   12 ar
    12   12   13 ar
    13   13    8 ar
    14   14    3 1
    15   15   14 1
    16   16   15 ar
    17   17   16 ar
    18   18   17 ar
    19   19   18 ar
    20   20   15 ar
    21   21    7 1
    22   22    7 1
    23   23   22 1
    24   24   23 1
    25   25   24 1
    26   26   25 1
    27   27   26 1
    28   28   22 1
    29   29   22 1
    30   30   23 1
    31   31   23 1
    32   32   24 1
    33   33   24 1
    34   34   25 1
    35   35   25 1
    36   36   26 1
    37   37   26 1
    38   38   27 1
    39   39   27 1
    40   40   17 1
    41   41   16 1
    42   42   20 1
    43   43   19 1
    44   44   10 1
    45   45    9 1
    46   46   13 1
    47   47   21 1
    48   48   21 1
    49   49   21 1
    50    6   14 2
    51   19   20 ar
@<TRIPOS>SUBSTRUCTURE
     1 RES1 1

@<TRIPOS>CRYSIN
  33.4140    7.3950   22.3770  90.0000 137.9700  90.0000  15 1

