# MOL2 file generated by ConQuest
# Please check atom types

@<TRIPOS>MOLECULE
NAWLAA
    56    58     1
SMALL
NO_CHARGES
****
Generated from CSD

@<TRIPOS>ATOM
      1 O1        -5.0016   -6.3115   -7.3501 O.2       1 RES1    0.0000
      2 O2        -3.0381   -7.0728   -8.1326 O.3       1 RES1    0.0000
      3 O3        -4.0077  -10.1060  -11.8808 O.2       1 RES1    0.0000
      4 O4        -5.3073   -9.4861  -13.4732 O.2       1 RES1    0.0000
      5 O5        -5.3617   -4.6894  -11.7287 O.2       1 RES1    0.0000
      6 O6        -8.2765   -4.7109   -9.6469 O.3       1 RES1    0.0000
      7 O7       -10.0366   -3.9109   -8.5023 O.2       1 RES1    0.0000
      8 N1        -4.7264   -9.2905  -12.4157 N.pl3     1 RES1    0.0000
      9 N2        -5.9077   -5.8271   -9.8452 N.am      1 RES1    0.0000
     10 C1        -4.2661   -6.5930   -8.2571 C.2       1 RES1    0.0000
     11 C2        -4.6582   -6.5257   -9.7255 C.3       1 RES1    0.0000
     12 C3        -4.6958   -7.9800  -10.2948 C.3       1 RES1    0.0000
     13 C4        -4.8637   -7.9130  -11.8128 C.3       1 RES1    0.0000
     14 C5        -2.5499   -7.2354   -6.7694 C.3       1 RES1    0.0000
     15 C6        -5.7517   -8.8096   -9.5809 C.ar      1 RES1    0.0000
     16 C7        -5.4090   -9.4757   -8.4066 C.ar      1 RES1    0.0000
     17 C8        -6.3779  -10.1244   -7.6645 C.ar      1 RES1    0.0000
     18 C9        -7.6789  -10.1673   -8.0986 C.ar      1 RES1    0.0000
     19 C10       -8.0181   -9.5429   -9.2861 C.ar      1 RES1    0.0000
     20 C11       -7.0660   -8.8583  -10.0098 C.ar      1 RES1    0.0000
     21 C12       -6.1410   -4.9096  -10.8109 C.2       1 RES1    0.0000
     22 C13       -7.4386   -4.1474  -10.7223 C.3       1 RES1    0.0000
     23 C14       -7.3467   -2.6479  -10.2927 C.3       1 RES1    0.0000
     24 C15       -8.9013   -2.5414  -10.2152 C.3       1 RES1    0.0000
     25 C16       -9.1882   -3.7312   -9.3280 C.2       1 RES1    0.0000
     26 C17       -9.3303   -3.0396  -11.6274 C.3       1 RES1    0.0000
     27 C18       -8.3092   -4.1448  -11.9647 C.3       1 RES1    0.0000
     28 C19       -6.6537   -2.4512   -8.9417 C.3       1 RES1    0.0000
     29 C20       -6.7080   -1.7272  -11.3249 C.3       1 RES1    0.0000
     30 C21       -9.5372   -1.2511   -9.7547 C.3       1 RES1    0.0000
     31 H1        -4.0188   -6.0353  -10.2033 H         1 RES1    0.0000
     32 H2        -3.7611   -8.3405  -10.1189 H         1 RES1    0.0000
     33 H3        -5.7670   -7.5875  -12.1179 H         1 RES1    0.0000
     34 H4        -4.0954   -7.3790  -12.2392 H         1 RES1    0.0000
     35 H5        -1.6368   -7.4022   -6.8831 H         1 RES1    0.0000
     36 H6        -3.0367   -7.9466   -6.3477 H         1 RES1    0.0000
     37 H7        -2.6815   -6.3596   -6.3293 H         1 RES1    0.0000
     38 H8        -4.3949   -9.4757   -8.0962 H         1 RES1    0.0000
     39 H9        -6.0804  -10.5414   -6.8435 H         1 RES1    0.0000
     40 H10       -8.3301  -10.6225   -7.5899 H         1 RES1    0.0000
     41 H11       -8.9709   -9.5684   -9.6653 H         1 RES1    0.0000
     42 H12       -7.3272   -8.3521  -10.8204 H         1 RES1    0.0000
     43 H13      -10.2525   -3.3941  -11.5852 H         1 RES1    0.0000
     44 H14       -9.2913   -2.3168  -12.2524 H         1 RES1    0.0000
     45 H15       -8.7202   -5.0622  -12.1311 H         1 RES1    0.0000
     46 H16       -7.7312   -3.8806  -12.7219 H         1 RES1    0.0000
     47 H17       -6.7282   -1.4480   -8.6738 H         1 RES1    0.0000
     48 H18       -7.0695   -2.9655   -8.1569 H         1 RES1    0.0000
     49 H19       -5.6347   -2.7338   -8.9691 H         1 RES1    0.0000
     50 H20       -6.7282   -0.7877  -10.9839 H         1 RES1    0.0000
     51 H21       -7.1670   -1.7724  -12.2129 H         1 RES1    0.0000
     52 H22       -5.8227   -1.9693  -11.4534 H         1 RES1    0.0000
     53 H23      -10.4893   -1.3553   -9.7313 H         1 RES1    0.0000
     54 H24       -9.3331   -0.5676  -10.3853 H         1 RES1    0.0000
     55 H25       -9.2356   -1.0194   -8.8979 H         1 RES1    0.0000
     56 H26       -6.5645   -5.8661   -9.1775 H         1 RES1    0.0000
@<TRIPOS>BOND
     1    1   10 2
     2    2   10 1
     3    3    8 2
     4    4    8 2
     5    5   21 2
     6    6   22 1
     7    7   25 2
     8    8   13 1
     9    9   11 1
    10   10   11 1
    11   11   12 1
    12   12   13 1
    13   13   33 1
    14   14    2 1
    15   15   12 1
    16   16   15 ar
    17   17   16 ar
    18   18   17 ar
    19   19   18 ar
    20   20   15 ar
    21   21    9 1
    22   22   21 1
    23   23   22 1
    24   24   23 1
    25   25    6 1
    26   26   24 1
    27   27   22 1
    28   28   23 1
    29   29   23 1
    30   30   24 1
    31   31   11 1
    32   32   12 1
    33   34   13 1
    34   35   14 1
    35   36   14 1
    36   37   14 1
    37   38   16 1
    38   39   17 1
    39   40   18 1
    40   41   19 1
    41   42   20 1
    42   43   26 1
    43   44   26 1
    44   45   27 1
    45   46   27 1
    46   47   28 1
    47   48   28 1
    48   49   28 1
    49   50   29 1
    50   51   29 1
    51   52   29 1
    52   53   30 1
    53   54   30 1
    54   55   30 1
    55   56    9 1
    56   19   20 ar
    57   24   25 1
    58   26   27 1
@<TRIPOS>SUBSTRUCTURE
     1 RES1 1

@<TRIPOS>CRYSIN
   6.9650   11.5840   26.3720  90.0000  90.0000  90.0000  19 1

