# MOL2 file generated by ConQuest
# Please check atom types

@<TRIPOS>MOLECULE
NAWPUW
    30    31     1
SMALL
NO_CHARGES
****
Generated from CSD

@<TRIPOS>ATOM
      1 C1         0.9041    2.1418   12.5693 C.ar      1 RES1    0.0000
      2 C2         1.4272    1.4804   11.3974 C.ar      1 RES1    0.0000
      3 C3         1.6872    2.1401   10.2309 C.ar      1 RES1    0.0000
      4 H1         1.9449    1.6501    9.4459 H         1 RES1    0.0000
      5 C4         1.5831    3.5154   10.1888 C.ar      1 RES1    0.0000
      6 C5         1.3699    4.2388   11.3498 C.ar      1 RES1    0.0000
      7 H2         1.4073    5.1982   11.3355 H         1 RES1    0.0000
      8 C6         1.1138    3.5697   12.5242 C.ar      1 RES1    0.0000
      9 C7        -0.6115    2.1961   14.5388 C.3       1 RES1    0.0000
     10 H3        -0.8591    3.0840   14.2702 H         1 RES1    0.0000
     11 H4        -0.1131    2.2443   15.3579 H         1 RES1    0.0000
     12 C8        -1.8170    1.3064   14.7012 C.3       1 RES1    0.0000
     13 H5        -2.5318    1.6199   14.1425 H         1 RES1    0.0000
     14 H6        -2.1170    1.3082   15.6139 H         1 RES1    0.0000
     15 C9        -1.4218   -0.0078   14.3163 C.3       1 RES1    0.0000
     16 H7        -1.1720   -0.5176   15.0903 H         1 RES1    0.0000
     17 H8        -2.1502   -0.4573   13.8818 H         1 RES1    0.0000
     18 C10       -0.2570    0.1094   13.3747 C.3       1 RES1    0.0000
     19 H9         0.4503   -0.4857   13.6355 H         1 RES1    0.0000
     20 H10       -0.5206   -0.0930   12.4745 H         1 RES1    0.0000
     21 N1         1.8475    0.0827   11.4460 N.pl3     1 RES1    0.0000
     22 N2         1.8361    4.2113    8.9418 N.pl3     1 RES1    0.0000
     23 N3         1.2001    4.3628   13.7466 N.pl3     1 RES1    0.0000
     24 N4         0.1771    1.5243   13.4904 N.3       1 RES1    0.0000
     25 O1         2.3973   -0.3092   12.4627 O.2       1 RES1    0.0000
     26 O2         1.7011   -0.6063   10.4467 O.2       1 RES1    0.0000
     27 O3         2.1058    3.5516    7.9493 O.2       1 RES1    0.0000
     28 O4         1.7775    5.4385    8.9455 O.2       1 RES1    0.0000
     29 O5         0.8524    5.5306   13.6994 O.2       1 RES1    0.0000
     30 O6         1.6664    3.8168   14.7370 O.2       1 RES1    0.0000
@<TRIPOS>BOND
     1    1    2 ar
     2    2    3 ar
     3    3    4 1
     4    5    3 ar
     5    6    5 ar
     6    7    6 1
     7    8    1 ar
     8    9   10 1
     9   11    9 1
    10   12    9 1
    11   13   12 1
    12   14   12 1
    13   15   12 1
    14   16   15 1
    15   17   15 1
    16   18   15 1
    17   19   18 1
    18   20   18 1
    19   21    2 1
    20   22    5 1
    21   23    8 1
    22   24    1 1
    23   25   21 2
    24   26   21 2
    25   27   22 2
    26   28   22 2
    27   29   23 2
    28   30   23 2
    29    6    8 ar
    30    9   24 1
    31   18   24 1
@<TRIPOS>SUBSTRUCTURE
     1 RES1 1

@<TRIPOS>CRYSIN
   6.6600    8.6120   20.6960  90.0000  90.7300  90.0000 231 1

