# MOL2 file generated by ConQuest
# Please check atom types

@<TRIPOS>MOLECULE
NAWQAD
    31    32     1
SMALL
NO_CHARGES
****
Generated from CSD

@<TRIPOS>ATOM
      1 C1         0.4691    2.7726   -0.0415 C.ar      1 RES1    0.0000
      2 C2        -0.7359    2.1407    0.4020 C.ar      1 RES1    0.0000
      3 C3        -1.4113    1.1735   -0.2897 C.ar      1 RES1    0.0000
      4 H1        -2.1921    0.7544    0.0814 H         1 RES1    0.0000
      5 C4        -0.9534    0.8167   -1.5275 C.ar      1 RES1    0.0000
      6 C5         0.1964    1.3734   -2.0565 C.ar      1 RES1    0.0000
      7 H2         0.4899    1.1348   -2.9386 H         1 RES1    0.0000
      8 C6         0.9014    2.2804   -1.2964 C.ar      1 RES1    0.0000
      9 C7         1.8464    4.8445    0.0065 C.3       1 RES1    0.0000
     10 H3         1.6104    4.9004   -0.9228 H         1 RES1    0.0000
     11 H4         2.7818    4.6425    0.0692 H         1 RES1    0.0000
     12 C8         1.5825    6.1599    0.6868 C.3       1 RES1    0.0000
     13 H5         2.1056    6.8541    0.2783 H         1 RES1    0.0000
     14 H6         0.6547    6.3834    0.5819 H         1 RES1    0.0000
     15 C9         1.0542    5.1153    2.6937 C.3       1 RES1    0.0000
     16 H7         0.1349    5.3539    2.5570 H         1 RES1    0.0000
     17 H8         1.2226    5.1003    3.6385 H         1 RES1    0.0000
     18 C10        1.3142    3.7505    2.0898 C.3       1 RES1    0.0000
     19 H9         2.2256    3.4948    2.2485 H         1 RES1    0.0000
     20 H10        0.7407    3.1014    2.5024 H         1 RES1    0.0000
     21 N1        -1.4375    2.6157    1.6138 N.pl3     1 RES1    0.0000
     22 N2        -1.6852   -0.1784   -2.3169 N.pl3     1 RES1    0.0000
     23 N3         2.2187    2.6651   -1.8441 N.pl3     1 RES1    0.0000
     24 N4         1.0501    3.7914    0.6470 N.3       1 RES1    0.0000
     25 O1        -1.7969    3.7785    1.6203 O.2       1 RES1    0.0000
     26 O2        -1.6363    1.8162    2.5008 O.2       1 RES1    0.0000
     27 O3        -2.6576   -0.6942   -1.8026 O.2       1 RES1    0.0000
     28 O4        -1.2597   -0.4535   -3.4448 O.2       1 RES1    0.0000
     29 O5         2.2654    3.0606   -2.9964 O.2       1 RES1    0.0000
     30 O6         3.1800    2.5598   -1.1035 O.2       1 RES1    0.0000
     31 O7         1.8771    6.0782    2.0793 O.3       1 RES1    0.0000
@<TRIPOS>BOND
     1    1    2 ar
     2    2    3 ar
     3    3    4 1
     4    5    3 ar
     5    6    5 ar
     6    7    6 1
     7    8    1 ar
     8    9   10 1
     9   11    9 1
    10   12    9 1
    11   13   12 1
    12   14   12 1
    13   15   16 1
    14   17   15 1
    15   18   15 1
    16   19   18 1
    17   20   18 1
    18   21    2 1
    19   22    5 1
    20   23    8 1
    21   24    1 1
    22   25   21 2
    23   26   21 2
    24   27   22 2
    25   28   22 2
    26   29   23 2
    27   30   23 2
    28   31   12 1
    29    6    8 ar
    30    9   24 1
    31   15   31 1
    32   18   24 1
@<TRIPOS>SUBSTRUCTURE
     1 RES1 1

@<TRIPOS>CRYSIN
   7.0900   21.4930    8.2980  90.0000 101.2700  90.0000 231 1

