# MOL2 file generated by ConQuest
# Please check atom types

@<TRIPOS>MOLECULE
NAWQEH
    33    34     1
SMALL
NO_CHARGES
****
Generated from CSD

@<TRIPOS>ATOM
      1 C1         4.8639    2.7504    2.8073 C.ar      1 RES1    0.0000
      2 C2         4.7015    3.6829    3.8631 C.ar      1 RES1    0.0000
      3 C3         4.2544    4.9718    3.6910 C.ar      1 RES1    0.0000
      4 H1         4.1444    5.5560    4.4444 H         1 RES1    0.0000
      5 C4         3.9644    5.4035    2.4152 C.ar      1 RES1    0.0000
      6 C5         4.0089    4.5492    1.3434 C.ar      1 RES1    0.0000
      7 H2         3.7749    4.8594    0.4658 H         1 RES1    0.0000
      8 C6         4.4081    3.2493    1.5585 C.ar      1 RES1    0.0000
      9 C7         6.2313    0.9064    1.8818 C.3       1 RES1    0.0000
     10 H3         6.4560    1.5589    1.2131 H         1 RES1    0.0000
     11 H4         5.7124    0.2138    1.4651 H         1 RES1    0.0000
     12 C8         7.4821    0.3021    2.4742 C.3       1 RES1    0.0000
     13 H5         8.0020    1.0008    2.8786 H         1 RES1    0.0000
     14 H6         8.0101   -0.0984    1.7797 H         1 RES1    0.0000
     15 C9         7.1352   -0.7338    3.5263 C.3       1 RES1    0.0000
     16 H7         7.9450   -1.0620    3.9257 H         1 RES1    0.0000
     17 H8         6.6798   -1.4726    3.1170 H         1 RES1    0.0000
     18 C10        6.2503   -0.1315    4.6054 C.3       1 RES1    0.0000
     19 H9         5.9621   -0.8201    5.2102 H         1 RES1    0.0000
     20 H10        6.7598    0.5099    5.1045 H         1 RES1    0.0000
     21 C11        5.0486    0.5752    4.0007 C.3       1 RES1    0.0000
     22 H11        4.4661   -0.0873    3.6222 H         1 RES1    0.0000
     23 H12        4.5644    1.0419    4.6866 H         1 RES1    0.0000
     24 N1         5.1489    3.3798    5.2360 N.pl3     1 RES1    0.0000
     25 N2         3.5527    6.7937    2.2099 N.pl3     1 RES1    0.0000
     26 N3         4.1190    2.3268    0.4437 N.pl3     1 RES1    0.0000
     27 N4         5.4393    1.5298    2.9511 N.3       1 RES1    0.0000
     28 O1         6.2518    2.8819    5.3896 O.2       1 RES1    0.0000
     29 O2         4.4017    3.7030    6.1541 O.2       1 RES1    0.0000
     30 O3         3.6198    7.5586    3.1600 O.2       1 RES1    0.0000
     31 O4         3.1583    7.1099    1.0878 O.2       1 RES1    0.0000
     32 O5         4.2741    2.7414   -0.6969 O.2       1 RES1    0.0000
     33 O6         3.6757    1.2216    0.7215 O.2       1 RES1    0.0000
@<TRIPOS>BOND
     1    1    2 ar
     2    2    3 ar
     3    3    4 1
     4    5    3 ar
     5    6    5 ar
     6    7    6 1
     7    8    1 ar
     8    9   10 1
     9   11    9 1
    10   12    9 1
    11   13   12 1
    12   14   12 1
    13   15   12 1
    14   16   15 1
    15   17   15 1
    16   18   15 1
    17   19   18 1
    18   20   18 1
    19   21   18 1
    20   22   21 1
    21   23   21 1
    22   24    2 1
    23   25    5 1
    24   26    8 1
    25   27    1 1
    26   28   24 2
    27   29   24 2
    28   30   25 2
    29   31   25 2
    30   32   26 2
    31   33   26 2
    32    6    8 ar
    33    9   27 1
    34   21   27 1
@<TRIPOS>SUBSTRUCTURE
     1 RES1 1

@<TRIPOS>CRYSIN
  10.4260   10.0380   12.2910  90.0000  90.0400  90.0000 231 1

