# MOL2 file generated by ConQuest
# Please check atom types

@<TRIPOS>MOLECULE
NAWZER
    47    48     1
SMALL
NO_CHARGES
****
Generated from CSD

@<TRIPOS>ATOM
      1 O1         1.6995   -5.7342    3.5049 O.2       1 RES1    0.0000
      2 O2         2.2828   -6.9640    1.7341 O.3       1 RES1    0.0000
      3 O3         5.2481   -4.6094    0.8184 O.3       1 RES1    0.0000
      4 H1         5.5893   -4.8815    0.1242 H         1 RES1    0.0000
      5 O4         4.0436    0.9904    3.4380 O.3       1 RES1    0.0000
      6 O5         6.2853    6.0770    6.3919 O.3       1 RES1    0.0000
      7 O6         2.0630    1.2316    1.8292 O.3       1 RES1    0.0000
      8 N1         4.1711   -5.4165    1.1523 N.2       1 RES1    0.0000
      9 C1         3.4189   -2.5957    2.7429 C.ar      1 RES1    0.0000
     10 C2         4.0016   -1.4445    3.2691 C.ar      1 RES1    0.0000
     11 H2         4.7300   -1.5297    3.8404 H         1 RES1    0.0000
     12 C3         3.5334   -0.1840    2.9694 C.ar      1 RES1    0.0000
     13 C4         2.4442   -0.0562    2.0917 C.ar      1 RES1    0.0000
     14 C5         1.8544   -1.1877    1.5871 C.ar      1 RES1    0.0000
     15 H3         1.1233   -1.1075    1.0180 H         1 RES1    0.0000
     16 C6         2.3310   -2.4468    1.9128 C.ar      1 RES1    0.0000
     17 H4         1.9106   -3.2010    1.5664 H         1 RES1    0.0000
     18 C7         3.9745   -3.9485    3.1312 C.3       1 RES1    0.0000
     19 H5         4.9429   -3.8882    3.1510 H         1 RES1    0.0000
     20 H6         3.6776   -4.1557    4.0306 H         1 RES1    0.0000
     21 C8         3.5890   -5.0778    2.2345 C.2       1 RES1    0.0000
     22 C9         2.4136   -5.9479    2.5741 C.2       1 RES1    0.0000
     23 C10        1.2103   -7.8949    2.0011 C.3       1 RES1    0.0000
     24 H7         1.2087   -8.5820    1.3297 H         1 RES1    0.0000
     25 H8         0.3706   -7.4305    1.9842 H         1 RES1    0.0000
     26 H9         1.3384   -8.2925    2.8651 H         1 RES1    0.0000
     27 C11        5.1004    0.9168    4.4070 C.3       1 RES1    0.0000
     28 H10        5.8988    0.5441    4.0008 H         1 RES1    0.0000
     29 H11        4.8368    0.3454    5.1443 H         1 RES1    0.0000
     30 C12        5.3758    2.3047    4.9028 C.ar      1 RES1    0.0000
     31 C13        6.5232    2.9906    4.5389 C.ar      1 RES1    0.0000
     32 H12        7.1237    2.6016    3.9439 H         1 RES1    0.0000
     33 C14        6.7818    4.2426    5.0486 C.ar      1 RES1    0.0000
     34 H13        7.5539    4.6918    4.7899 H         1 RES1    0.0000
     35 C15        5.9239    4.8354    5.9276 C.ar      1 RES1    0.0000
     36 C16        4.7861    4.1779    6.2942 C.ar      1 RES1    0.0000
     37 H14        4.1916    4.5683    6.8944 H         1 RES1    0.0000
     38 C17        4.5251    2.9322    5.7716 C.ar      1 RES1    0.0000
     39 H15        3.7399    2.5005    6.0187 H         1 RES1    0.0000
     40 C18        5.4845    6.6913    7.3459 C.3       1 RES1    0.0000
     41 H16        5.8730    7.5330    7.5955 H         1 RES1    0.0000
     42 H17        5.4185    6.1267    8.1194 H         1 RES1    0.0000
     43 H18        4.6091    6.8386    6.9811 H         1 RES1    0.0000
     44 C19        0.9866    1.4183    0.9119 C.3       1 RES1    0.0000
     45 H19        0.8340    2.3570    0.7839 H         1 RES1    0.0000
     46 H20        0.1922    1.0094    1.2638 H         1 RES1    0.0000
     47 H21        1.2092    1.0130    0.0711 H         1 RES1    0.0000
@<TRIPOS>BOND
     1    1   22 2
     2    2   22 1
     3    3    4 1
     4    5   12 1
     5    6   35 1
     6    7   13 1
     7    8    3 1
     8    9   10 ar
     9   10   11 1
    10   12   10 ar
    11   13   12 ar
    12   14   13 ar
    13   15   14 1
    14   16    9 ar
    15   17   16 1
    16   18    9 1
    17   19   18 1
    18   20   18 1
    19   21    8 2
    20   22   21 1
    21   23    2 1
    22   24   23 1
    23   25   23 1
    24   26   23 1
    25   27    5 1
    26   28   27 1
    27   29   27 1
    28   30   27 1
    29   31   30 ar
    30   32   31 1
    31   33   31 ar
    32   34   33 1
    33   35   33 ar
    34   36   35 ar
    35   37   36 1
    36   38   30 ar
    37   39   38 1
    38   40    6 1
    39   41   40 1
    40   42   40 1
    41   43   40 1
    42   44    7 1
    43   45   44 1
    44   46   44 1
    45   47   44 1
    46   14   16 ar
    47   18   21 1
    48   36   38 ar
@<TRIPOS>SUBSTRUCTURE
     1 RES1 1

@<TRIPOS>CRYSIN
   5.7137   12.2011   13.3578  75.5590  86.9840  80.0490   2 1

