# MOL2 file generated by ConQuest
# Please check atom types

@<TRIPOS>MOLECULE
NAXHUR
    30    31     1
SMALL
NO_CHARGES
****
Generated from CSD

@<TRIPOS>ATOM
      1 C1         0.3996    2.2213    2.6311 C.ar      1 RES1    0.0000
      2 H1         0.8904    2.9708    2.3821 H         1 RES1    0.0000
      3 C2         0.0322    1.2816    1.6744 C.ar      1 RES1    0.0000
      4 H2         0.2769    1.4025    0.7859 H         1 RES1    0.0000
      5 C3        -0.7010    0.1607    2.0473 C.ar      1 RES1    0.0000
      6 H3        -0.9464   -0.4679    1.4076 H         1 RES1    0.0000
      7 C4        -1.0665   -0.0206    3.3756 C.ar      1 RES1    0.0000
      8 H4        -1.5577   -0.7700    3.6257 H         1 RES1    0.0000
      9 C5        -0.6991    0.9191    4.3323 C.ar      1 RES1    0.0000
     10 H5        -0.9437    0.7983    5.2208 H         1 RES1    0.0000
     11 C6         0.0341    2.0401    3.9595 C.ar      1 RES1    0.0000
     12 O1        -2.2524    7.6706    9.0720 O.3       1 RES1    0.0000
     13 H6        -1.8622    7.5587    8.3598 H         1 RES1    0.0000
     14 O2        -1.0925    5.2217    4.7721 O.2       1 RES1    0.0000
     15 N1        -0.4256    3.4336    5.9587 N.am      1 RES1    0.0000
     16 H7        -0.5437    2.9528    6.6609 H         1 RES1    0.0000
     17 N2        -2.2958    4.5661   10.3189 N.2       1 RES1    0.0000
     18 O3        -1.6265    3.4259    9.9237 O.3       1 RES1    0.0000
     19 C7        -1.1387    4.5584    5.7902 C.2       1 RES1    0.0000
     20 N3        -1.4046    3.4516    8.5775 N.2       1 RES1    0.0000
     21 C8        -2.4569    5.2603    9.2651 C.2       1 RES1    0.0000
     22 C9        -3.1266    6.6036    9.2975 C.3       1 RES1    0.0000
     23 H8        -3.8243    6.6216    8.6244 H         1 RES1    0.0000
     24 H9        -3.5487    6.7219   10.1626 H         1 RES1    0.0000
     25 C10        0.5251    3.0376    4.9775 C.3       1 RES1    0.0000
     26 H10        1.2930    2.6571    5.4318 H         1 RES1    0.0000
     27 H11        0.8273    3.8295    4.5075 H         1 RES1    0.0000
     28 C11       -1.9255    4.5481    8.1433 C.2       1 RES1    0.0000
     29 N4        -1.8663    5.0045    6.8930 N.am      1 RES1    0.0000
     30 H12       -2.3618    5.6896    6.7401 H         1 RES1    0.0000
@<TRIPOS>BOND
     1    1    2 1
     2    3    1 ar
     3    4    3 1
     4    5    3 ar
     5    6    5 1
     6    7    5 ar
     7    8    7 1
     8    9    7 ar
     9   10    9 1
    10   11    1 ar
    11   12   13 1
    12   14   19 2
    13   15   16 1
    14   17   18 1
    15   18   20 1
    16   19   15 1
    17   20   28 2
    18   21   17 2
    19   22   12 1
    20   23   22 1
    21   24   22 1
    22   25   11 1
    23   26   25 1
    24   27   25 1
    25   28   21 1
    26   29   19 1
    27   30   29 1
    28    9   11 ar
    29   15   25 1
    30   21   22 1
    31   28   29 1
@<TRIPOS>SUBSTRUCTURE
     1 RES1 1

@<TRIPOS>CRYSIN
   8.1390   12.8550   11.8150  90.0000 109.1260  90.0000 231 1

