# MOL2 file generated by ConQuest
# Please check atom types

@<TRIPOS>MOLECULE
NAXJUT
    37    39     1
SMALL
NO_CHARGES
****
Generated from CSD

@<TRIPOS>ATOM
      1 N1         6.1990    1.3940    0.1652 N.am      1 RES1    0.0000
      2 H1         6.3116    2.0469   -0.3832 H         1 RES1    0.0000
      3 O1         4.7601   -1.6596   -0.5946 O.3       1 RES1    0.0000
      4 O2         7.2807    2.6459    1.6764 O.2       1 RES1    0.0000
      5 C1         5.5231    0.3012   -0.3617 C.2       1 RES1    0.0000
      6 C2         4.9143    0.2212   -1.5806 C.2       1 RES1    0.0000
      7 N2         5.4926   -0.8844    0.2989 N.2       1 RES1    0.0000
      8 C3         6.9364    0.5634    3.6121 C.ar      1 RES1    0.0000
      9 N3         6.5981    0.5650    2.2908 N.am      1 RES1    0.0000
     10 C4         3.3842    3.1562   -4.6873 C.ar      1 RES1    0.0000
     11 C5         4.6281    1.2669   -2.6228 C.2       1 RES1    0.0000
     12 C6         4.4921    1.0163   -3.8829 C.2       1 RES1    0.0000
     13 C7         4.0741    1.9344   -4.9614 C.ar      1 RES1    0.0000
     14 N4         4.4155   -0.9816   -1.7408 N.2       1 RES1    0.0000
     15 C8         7.5789    1.5546    4.3602 C.ar      1 RES1    0.0000
     16 C9         6.6927    1.5915    1.3626 C.2       1 RES1    0.0000
     17 C10        4.2882    1.6102   -6.2629 C.ar      1 RES1    0.0000
     18 C11        3.1811    3.6338   -6.9863 C.ar      1 RES1    0.0000
     19 C12        6.6681   -0.6513    4.3735 C.ar      1 RES1    0.0000
     20 C13        6.8993   -0.7488    5.6634 C.ar      1 RES1    0.0000
     21 C14        2.9642    3.9538   -5.6848 C.ar      1 RES1    0.0000
     22 C15        7.4941    0.2770    6.3686 C.ar      1 RES1    0.0000
     23 C16        3.8633    2.4334   -7.3051 C.ar      1 RES1    0.0000
     24 C17        7.8102    1.4696    5.6468 C.ar      1 RES1    0.0000
     25 H2         6.0304   -0.2277    1.5690 H         1 RES1    0.0000
     26 H3         3.2436    3.4454   -3.6335 H         1 RES1    0.0000
     27 H4         7.5901    2.2704    3.7491 H         1 RES1    0.0000
     28 H5         4.7470    0.8179   -6.5073 H         1 RES1    0.0000
     29 H6         2.8650    4.3297   -7.7791 H         1 RES1    0.0000
     30 H7         6.0915   -1.2805    3.7657 H         1 RES1    0.0000
     31 H8         6.8855   -1.5730    6.2266 H         1 RES1    0.0000
     32 H9         2.5994    4.6716   -5.5164 H         1 RES1    0.0000
     33 H10        7.6884    0.2066    7.4157 H         1 RES1    0.0000
     34 H11        3.8840    2.2127   -8.3406 H         1 RES1    0.0000
     35 H12        8.4181    2.1300    6.2926 H         1 RES1    0.0000
     36 H13        4.7199    1.9050   -2.0150 H         1 RES1    0.0000
     37 H14        4.6009    0.0804   -4.3107 H         1 RES1    0.0000
@<TRIPOS>BOND
     1    1    2 1
     2    3    7 1
     3    4   16 2
     4    5    1 1
     5    6    5 1
     6    7    5 2
     7    8    9 1
     8    9   16 1
     9   10   13 ar
    10   11    6 1
    11   12   11 2
    12   13   12 1
    13   14    3 1
    14   15    8 ar
    15   16    1 1
    16   17   13 ar
    17   18   21 ar
    18   19    8 ar
    19   20   19 ar
    20   21   10 ar
    21   22   20 ar
    22   23   17 ar
    23   24   15 ar
    24   25    9 1
    25   26   10 1
    26   27   15 1
    27   28   17 1
    28   29   18 1
    29   30   19 1
    30   31   20 1
    31   32   21 1
    32   33   22 1
    33   34   23 1
    34   35   24 1
    35   36   11 1
    36   37   12 1
    37    6   14 2
    38   18   23 ar
    39   22   24 ar
@<TRIPOS>SUBSTRUCTURE
     1 RES1 1

@<TRIPOS>CRYSIN
   7.4510    5.9620   16.7660  88.3400  80.3700  93.7800   2 1

