# MOL2 file generated by ConQuest
# Please check atom types

@<TRIPOS>MOLECULE
NAYDID
    93    98     1
SMALL
NO_CHARGES
****
Generated from CSD

@<TRIPOS>ATOM
      1 O1         1.9905    6.4510   11.5647 O.3       1 RES1    0.0000
      2 H1         2.4851    5.9987   12.0718 H         1 RES1    0.0000
      3 O2         8.0606    4.6248    1.7240 O.3       1 RES1    0.0000
      4 O3         8.6419    3.4674   -0.5252 O.3       1 RES1    0.0000
      5 O4         7.1783    5.0365   -1.2072 O.2       1 RES1    0.0000
      6 O5        11.7881    5.2158   -0.3047 O.3       1 RES1    0.0000
      7 C1         3.1511    4.7680    6.9384 C.3       1 RES1    0.0000
      8 H2         3.4987    3.8916    7.2402 H         1 RES1    0.0000
      9 H3         2.1934    4.6575    6.7120 H         1 RES1    0.0000
     10 C2         5.4296    5.1763    5.9532 C.3       1 RES1    0.0000
     11 H4         5.6526    4.2198    6.1404 H         1 RES1    0.0000
     12 C3         2.6648    6.6766   10.3176 C.3       1 RES1    0.0000
     13 H5         2.2066    7.4515    9.8823 H         1 RES1    0.0000
     14 C4         2.5070    5.4730    9.3542 C.3       1 RES1    0.0000
     15 C5         3.2990    5.7934    8.0629 C.3       1 RES1    0.0000
     16 H6         2.8785    6.6281    7.7059 H         1 RES1    0.0000
     17 C6         3.9205    5.2271    5.7051 C.3       1 RES1    0.0000
     18 H7         3.6547    6.1532    5.4773 H         1 RES1    0.0000
     19 H8         3.6920    4.6451    4.9375 H         1 RES1    0.0000
     20 C7         6.2855    5.5937    4.7344 C.3       1 RES1    0.0000
     21 C8         6.4379    4.5413    3.6419 C.2       1 RES1    0.0000
     22 C9         7.8758    4.5345    3.1239 C.3       1 RES1    0.0000
     23 H9         8.3203    3.6976    3.4445 H         1 RES1    0.0000
     24 C10        9.4694    4.4375    1.4640 C.3       1 RES1    0.0000
     25 H10        9.7418    3.5340    1.7963 H         1 RES1    0.0000
     26 C11        9.5837    4.4589   -0.0609 C.3       1 RES1    0.0000
     27 H11        9.3024    5.3580   -0.3961 H         1 RES1    0.0000
     28 C12        7.4215    3.8893   -0.9286 C.2       1 RES1    0.0000
     29 C13        6.4541    2.7591   -0.9344 C.3       1 RES1    0.0000
     30 H12        6.0475    2.6722   -0.0464 H         1 RES1    0.0000
     31 H13        6.9227    1.9289   -1.1622 H         1 RES1    0.0000
     32 H14        5.7544    2.9316   -1.5989 H         1 RES1    0.0000
     33 C14        4.1046    7.0984   10.5512 C.3       1 RES1    0.0000
     34 H15        4.5793    6.3788   11.0373 H         1 RES1    0.0000
     35 H16        4.1184    7.9095   11.1171 H         1 RES1    0.0000
     36 C15        4.8370    7.3872    9.2410 C.3       1 RES1    0.0000
     37 H17        5.7855    7.5993    9.4297 H         1 RES1    0.0000
     38 H18        4.4281    8.1700    8.7956 H         1 RES1    0.0000
     39 C16        4.7526    6.1678    8.3226 C.3       1 RES1    0.0000
     40 C17        5.8144    5.9783    7.2387 C.3       1 RES1    0.0000
     41 C18        5.8476    5.1459    8.5025 C.3       1 RES1    0.0000
     42 H19        5.6016    4.1905    8.4314 H         1 RES1    0.0000
     43 H20        6.5564    5.3444    9.1656 H         1 RES1    0.0000
     44 C19        6.8218    7.1312    7.1053 C.3       1 RES1    0.0000
     45 H21        7.2736    7.2406    7.9787 H         1 RES1    0.0000
     46 H22        6.3096    7.9614    6.9355 H         1 RES1    0.0000
     47 C20        7.9225    7.0251    6.0141 C.3       1 RES1    0.0000
     48 H23        7.8675    7.8158    5.4207 H         1 RES1    0.0000
     49 H24        8.8120    7.0330    6.4494 H         1 RES1    0.0000
     50 C21        7.7880    5.7674    5.1813 C.3       1 RES1    0.0000
     51 C22        8.2566    4.5695    6.0446 C.3       1 RES1    0.0000
     52 H25        9.2288    4.6112    6.1621 H         1 RES1    0.0000
     53 H26        8.0187    3.7303    5.5963 H         1 RES1    0.0000
     54 H27        7.8197    4.6067    6.9195 H         1 RES1    0.0000
     55 C23        8.5200    5.7257    3.8450 C.3       1 RES1    0.0000
     56 H28        8.2324    6.5423    3.3444 H         1 RES1    0.0000
     57 C24       10.9641    4.0946   -0.6819 C.3       1 RES1    0.0000
     58 C25       10.8196    4.0641   -2.2083 C.3       1 RES1    0.0000
     59 H29       10.3952    4.8932   -2.5130 H         1 RES1    0.0000
     60 H30       10.2659    3.2982   -2.4680 H         1 RES1    0.0000
     61 H31       11.7049    3.9807   -2.6189 H         1 RES1    0.0000
     62 C26       11.4784    2.7715   -0.1494 C.3       1 RES1    0.0000
     63 H32       12.2516    2.4838   -0.6790 H         1 RES1    0.0000
     64 H33       10.7703    2.0969   -0.2118 H         1 RES1    0.0000
     65 H34       11.7466    2.8786    0.7879 H         1 RES1    0.0000
     66 C27       13.1872    5.0320   -0.5165 C.3       1 RES1    0.0000
     67 H35       13.5579    4.4826    0.2046 H         1 RES1    0.0000
     68 H36       13.6343    5.9039   -0.5267 H         1 RES1    0.0000
     69 H37       13.3315    4.5819   -1.3755 H         1 RES1    0.0000
     70 C28       10.3125    5.4944    2.1648 C.3       1 RES1    0.0000
     71 H38       10.1528    6.3698    1.7295 H         1 RES1    0.0000
     72 H39       11.2694    5.2711    2.0429 H         1 RES1    0.0000
     73 C29       10.0232    5.6321    3.6738 C.3       1 RES1    0.0000
     74 H40       10.3551    4.8143    4.1453 H         1 RES1    0.0000
     75 C30       10.7649    6.8559    4.2150 C.3       1 RES1    0.0000
     76 H41       10.3258    7.6715    3.8958 H         1 RES1    0.0000
     77 H42       11.6930    6.8413    3.9016 H         1 RES1    0.0000
     78 H43       10.7515    6.8390    5.1944 H         1 RES1    0.0000
     79 C31        5.7292    6.8661    4.0815 C.3       1 RES1    0.0000
     80 H44        6.3435    7.1684    3.3807 H         1 RES1    0.0000
     81 H45        5.6356    7.5677    4.7605 H         1 RES1    0.0000
     82 H46        4.8526    6.6743    3.6883 H         1 RES1    0.0000
     83 C32        1.0125    5.3252    9.0495 C.3       1 RES1    0.0000
     84 H47        0.8610    4.4973    8.5475 H         1 RES1    0.0000
     85 H48        0.7105    6.0911    8.5170 H         1 RES1    0.0000
     86 H49        0.5093    5.2937    9.8896 H         1 RES1    0.0000
     87 C33        2.9918    4.1815   10.0260 C.3       1 RES1    0.0000
     88 H50        2.3830    3.9457   10.7558 H         1 RES1    0.0000
     89 H51        3.8940    4.3191   10.3844 H         1 RES1    0.0000
     90 H52        3.0089    3.4573    9.3673 H         1 RES1    0.0000
     91 N1         5.5275    3.6716    3.4097 N.2       1 RES1    0.0000
     92 O6         5.9430    2.7410    2.4448 O.3       1 RES1    0.0000
     93 H53        5.3586    2.1421    2.3650 H         1 RES1    0.0000
@<TRIPOS>BOND
     1    1    2 1
     2    3   22 1
     3    4   26 1
     4    5   28 2
     5    6   57 1
     6    7    8 1
     7    9    7 1
     8   10   11 1
     9   12    1 1
    10   13   12 1
    11   14   12 1
    12   15    7 1
    13   16   15 1
    14   17    7 1
    15   18   17 1
    16   19   17 1
    17   20   10 1
    18   21   20 1
    19   22   21 1
    20   23   22 1
    21   24    3 1
    22   25   24 1
    23   26   24 1
    24   27   26 1
    25   28    4 1
    26   29   28 1
    27   30   29 1
    28   31   29 1
    29   32   29 1
    30   33   12 1
    31   34   33 1
    32   35   33 1
    33   36   33 1
    34   37   36 1
    35   38   36 1
    36   39   15 1
    37   40   10 1
    38   41   39 1
    39   42   41 1
    40   43   41 1
    41   44   40 1
    42   45   44 1
    43   46   44 1
    44   47   44 1
    45   48   47 1
    46   49   47 1
    47   50   20 1
    48   51   50 1
    49   52   51 1
    50   53   51 1
    51   54   51 1
    52   55   22 1
    53   56   55 1
    54   57   26 1
    55   58   57 1
    56   59   58 1
    57   60   58 1
    58   61   58 1
    59   62   57 1
    60   63   62 1
    61   64   62 1
    62   65   62 1
    63   66    6 1
    64   67   66 1
    65   68   66 1
    66   69   66 1
    67   70   24 1
    68   71   70 1
    69   72   70 1
    70   73   55 1
    71   74   73 1
    72   75   73 1
    73   76   75 1
    74   77   75 1
    75   78   75 1
    76   79   20 1
    77   80   79 1
    78   81   79 1
    79   82   79 1
    80   83   14 1
    81   84   83 1
    82   85   83 1
    83   86   83 1
    84   87   14 1
    85   88   87 1
    86   89   87 1
    87   90   87 1
    88   91   21 2
    89   92   91 1
    90   93   92 1
    91   10   17 1
    92   14   15 1
    93   36   39 1
    94   39   40 1
    95   40   41 1
    96   47   50 1
    97   50   55 1
    98   70   73 1
@<TRIPOS>SUBSTRUCTURE
     1 RES1 1

@<TRIPOS>CRYSIN
   9.5634   11.2799   14.9190  90.0000 103.4570  90.0000   4 1

