# MOL2 file generated by ConQuest
# Please check atom types

@<TRIPOS>MOLECULE
NAYDUO
    63    65     1
SMALL
NO_CHARGES
****
Generated from CSD

@<TRIPOS>ATOM
      1 O1        12.6268    6.3798    0.9046 O.3       1 RES1    0.0000
      2 O2        12.8519    8.8587   -2.4461 O.3       1 RES1    0.0000
      3 O3        13.1567    9.9588    1.6941 O.2       1 RES1    0.0000
      4 O4        14.7296    5.2261   -0.2973 O.2       1 RES1    0.0000
      5 O5        16.0875    5.8578    1.3420 O.3       1 RES1    0.0000
      6 H1        16.6191    5.3829    0.9359 H         1 RES1    0.0000
      7 O6        14.0116   11.7599    0.9131 O.2       1 RES1    0.0000
      8 O7        16.2616    8.2887   -1.8620 O.3       1 RES1    0.0000
      9 H2        16.6418    7.9973   -1.1956 H         1 RES1    0.0000
     10 O8        14.7877    9.2469   -0.5766 O.2       1 RES1    0.0000
     11 C1        10.9058    8.0324    1.1948 C.ar      1 RES1    0.0000
     12 C2        11.5567    6.8833    1.6515 C.ar      1 RES1    0.0000
     13 C3        11.0524   10.1903   -0.1851 C.ar      1 RES1    0.0000
     14 C4        11.4053    8.7010   -0.0807 C.3       1 RES1    0.0000
     15 H3        12.3840    8.6410   -0.0686 H         1 RES1    0.0000
     16 C5         9.8376    8.5221    1.9360 C.ar      1 RES1    0.0000
     17 H4         9.4062    9.2958    1.6530 H         1 RES1    0.0000
     18 C6        10.9297    7.9780   -1.3510 C.ar      1 RES1    0.0000
     19 C7         9.3942    7.8774    3.0992 C.ar      1 RES1    0.0000
     20 C8        11.1218    6.1861    2.7960 C.ar      1 RES1    0.0000
     21 C9        11.6823    8.0941   -2.5136 C.ar      1 RES1    0.0000
     22 C10       11.8768   11.2324    0.2381 C.ar      1 RES1    0.0000
     23 C11        9.8762   10.5961   -0.8149 C.ar      1 RES1    0.0000
     24 H5         9.2790    9.9459   -1.1058 H         1 RES1    0.0000
     25 C12        9.7355    7.2762   -1.4103 C.ar      1 RES1    0.0000
     26 H6         9.2265    7.1885   -0.6370 H         1 RES1    0.0000
     27 C13        9.5650   11.9268   -1.0241 C.ar      1 RES1    0.0000
     28 H7         8.7589   12.1537   -1.4276 H         1 RES1    0.0000
     29 C14        9.2757    6.6979   -2.5905 C.ar      1 RES1    0.0000
     30 C15       13.9004    6.6269    1.4749 C.3       1 RES1    0.0000
     31 H8        13.8966    6.3715    2.4109 H         1 RES1    0.0000
     32 H9        14.1080    7.5722    1.4194 H         1 RES1    0.0000
     33 C16       10.0389    6.7164    3.4796 C.ar      1 RES1    0.0000
     34 H10        9.7301    6.2673    4.2337 H         1 RES1    0.0000
     35 C17       11.2632    7.5537   -3.7164 C.ar      1 RES1    0.0000
     36 C18       11.5931   12.5594   -0.0147 C.ar      1 RES1    0.0000
     37 H11       12.1974   13.2151    0.2450 H         1 RES1    0.0000
     38 C19       10.4391   12.9191   -0.6386 C.ar      1 RES1    0.0000
     39 H12       10.2469   13.8146   -0.8020 H         1 RES1    0.0000
     40 C20       10.0709    6.8695   -3.7257 C.ar      1 RES1    0.0000
     41 H13        9.7786    6.5024   -4.5293 H         1 RES1    0.0000
     42 C21        8.2579    8.4317    3.9168 C.3       1 RES1    0.0000
     43 H14        7.4512    7.9549    3.7078 H         1 RES1    0.0000
     44 H15        8.1403    9.3622    3.7127 H         1 RES1    0.0000
     45 H16        8.4563    8.3302    4.8511 H         1 RES1    0.0000
     46 C22       11.7740    4.9162    3.2782 C.3       1 RES1    0.0000
     47 H17       12.4190    5.1256    3.9560 H         1 RES1    0.0000
     48 H18       12.2120    4.4828    2.5415 H         1 RES1    0.0000
     49 H19       11.1048    4.3307    3.6408 H         1 RES1    0.0000
     50 C23       14.9397    5.8348    0.7383 C.2       1 RES1    0.0000
     51 C24       15.0550    8.6456   -1.5517 C.2       1 RES1    0.0000
     52 C25        7.9525    5.9823   -2.6608 C.3       1 RES1    0.0000
     53 H20        7.7847    5.5360   -1.8277 H         1 RES1    0.0000
     54 H21        7.9747    5.3358   -3.3713 H         1 RES1    0.0000
     55 H22        7.2539    6.6177   -2.8306 H         1 RES1    0.0000
     56 C26       12.0444    7.7806   -4.9998 C.3       1 RES1    0.0000
     57 H23       12.7775    7.1618   -5.0422 H         1 RES1    0.0000
     58 H24       12.3828    8.6788   -5.0145 H         1 RES1    0.0000
     59 H25       11.4667    7.6441   -5.7544 H         1 RES1    0.0000
     60 C27       14.0787    8.1569   -2.5709 C.3       1 RES1    0.0000
     61 H26       14.4428    8.2897   -3.4611 H         1 RES1    0.0000
     62 H27       13.9250    7.2070   -2.4468 H         1 RES1    0.0000
     63 N1        13.1022   10.9622    0.9830 N.pl3     1 RES1    0.0000
@<TRIPOS>BOND
     1    1   12 1
     2    2   21 1
     3    3   63 2
     4    4   50 2
     5    5    6 1
     6    7   63 2
     7    8    9 1
     8   10   51 2
     9   11   12 ar
    10   12   20 ar
    11   13   14 1
    12   14   11 1
    13   15   14 1
    14   16   11 ar
    15   17   16 1
    16   18   14 1
    17   19   16 ar
    18   20   33 ar
    19   21   18 ar
    20   22   13 ar
    21   23   13 ar
    22   24   23 1
    23   25   18 ar
    24   26   25 1
    25   27   23 ar
    26   28   27 1
    27   29   25 ar
    28   30    1 1
    29   31   30 1
    30   32   30 1
    31   33   19 ar
    32   34   33 1
    33   35   21 ar
    34   36   22 ar
    35   37   36 1
    36   38   27 ar
    37   39   38 1
    38   40   29 ar
    39   41   40 1
    40   42   19 1
    41   43   42 1
    42   44   42 1
    43   45   42 1
    44   46   20 1
    45   47   46 1
    46   48   46 1
    47   49   46 1
    48   50    5 1
    49   51    8 1
    50   52   29 1
    51   53   52 1
    52   54   52 1
    53   55   52 1
    54   56   35 1
    55   57   56 1
    56   58   56 1
    57   59   56 1
    58   60    2 1
    59   61   60 1
    60   62   60 1
    61   63   22 1
    62   30   50 1
    63   35   40 ar
    64   36   38 ar
    65   51   60 1
@<TRIPOS>SUBSTRUCTURE
     1 RES1 1

@<TRIPOS>CRYSIN
  16.2970    9.2220   16.3740  90.0000  94.0190  90.0000 231 1

