# MOL2 file generated by ConQuest
# Please check atom types

@<TRIPOS>MOLECULE
NAYNUX01
    30    33     1
SMALL
NO_CHARGES
****
Generated from CSD

@<TRIPOS>ATOM
      1 C1         3.1623    4.7629    2.0570 C.3       1 RES1    0.0000
      2 O1         2.5841    5.1134    0.8170 O.3       1 RES1    0.0000
      3 C2         2.6318    6.5266    0.7380 C.3       1 RES1    0.0000
      4 N1         3.8452    6.9826    0.0545 N.3       1 RES1    0.0000
      5 C3         5.0763    6.5996    0.6721 C.3       1 RES1    0.0000
      6 O2         5.2326    5.1767    0.7641 O.3       1 RES1    0.0000
      7 C4         4.7215    4.7985    2.0261 C.3       1 RES1    0.0000
      8 N2         5.1999    5.8171    2.9293 N.3       1 RES1    0.0000
      9 C5         5.0996    7.0892    2.1766 C.3       1 RES1    0.0000
     10 N3         3.8723    7.7632    2.4582 N.3       1 RES1    0.0000
     11 C6         2.6590    7.0268    2.2133 C.3       1 RES1    0.0000
     12 N4         2.6640    5.7662    2.9798 N.3       1 RES1    0.0000
     13 N5         3.8407    6.6255   -1.3491 N.pl3     1 RES1    0.0000
     14 O3         2.7515    6.4075   -1.8381 O.2       1 RES1    0.0000
     15 O4         4.9050    6.6216   -1.9049 O.2       1 RES1    0.0000
     16 N6         6.4238    5.5771    3.5778 N.pl3     1 RES1    0.0000
     17 O5         7.0806    6.5170    3.9163 O.2       1 RES1    0.0000
     18 O6         6.6699    4.3885    3.8211 O.2       1 RES1    0.0000
     19 N7         3.8890    8.5447    3.6706 N.pl3     1 RES1    0.0000
     20 O7         2.8242    8.7108    4.1881 O.2       1 RES1    0.0000
     21 O8         4.9543    8.9479    4.0205 O.2       1 RES1    0.0000
     22 N8         1.5410    5.4340    3.7390 N.pl3     1 RES1    0.0000
     23 O9         1.4911    4.2762    4.1100 O.2       1 RES1    0.0000
     24 O10        0.7749    6.3288    4.0506 O.2       1 RES1    0.0000
     25 H1         2.8990    3.9075    2.2377 H         1 RES1    0.0000
     26 H2         1.8735    6.7397    0.3255 H         1 RES1    0.0000
     27 H3         5.7758    6.9894    0.1627 H         1 RES1    0.0000
     28 H4         4.9665    4.0515    2.2051 H         1 RES1    0.0000
     29 H5         5.8978    7.5654    2.3109 H         1 RES1    0.0000
     30 H6         1.8846    7.6038    2.3272 H         1 RES1    0.0000
@<TRIPOS>BOND
     1    1    2 1
     2    2    3 1
     3    3    4 1
     4    4    5 1
     5    5    6 1
     6    6    7 1
     7    7    1 1
     8    8    7 1
     9    9    5 1
    10   10    9 1
    11   11    3 1
    12   12    1 1
    13   13    4 1
    14   14   13 2
    15   15   13 2
    16   16    8 1
    17   17   16 2
    18   18   16 2
    19   19   10 1
    20   20   19 2
    21   21   19 2
    22   22   12 1
    23   23   22 2
    24   24   22 2
    25   25    1 1
    26   26    3 1
    27   27    5 1
    28   28    7 1
    29   29    9 1
    30   30   11 1
    31    8    9 1
    32   10   11 1
    33   11   12 1
@<TRIPOS>SUBSTRUCTURE
     1 RES1 1

@<TRIPOS>CRYSIN
  11.0860   11.0860    8.1370  90.0000  90.0000 120.0000 144 1

