# MOL2 file generated by ConQuest
# Please check atom types

@<TRIPOS>MOLECULE
NAYRIR
    47    51     1
SMALL
NO_CHARGES
****
Generated from CSD

@<TRIPOS>ATOM
      1 C1         9.8212    1.0463    2.1184 C.2       1 RES1    0.0000
      2 N1        10.6115    1.3451    3.1412 N.2       1 RES1    0.0000
      3 N2        11.8910    1.3173    2.6244 N.pl3     1 RES1    0.0000
      4 C2        11.8564    0.9957    1.3140 C.2       1 RES1    0.0000
      5 O1        12.9925    0.9191    0.5879 O.3       1 RES1    0.0000
      6 C3        12.7567    0.3367   -0.7171 C.3       1 RES1    0.0000
      7 H1        12.7363   -0.6295   -0.6332 H         1 RES1    0.0000
      8 H2        13.4924    0.5684   -1.3051 H         1 RES1    0.0000
      9 C4        11.4535    0.8090   -1.3428 C.3       1 RES1    0.0000
     10 H3        11.4859    1.7863   -1.4024 H         1 RES1    0.0000
     11 C5        11.3301    0.2632   -2.7488 C.3       1 RES1    0.0000
     12 H4        10.5664    0.6752   -3.1820 H         1 RES1    0.0000
     13 H5        12.1236    0.5036   -3.2527 H         1 RES1    0.0000
     14 O2        11.1719   -1.1600   -2.7792 O.3       1 RES1    0.0000
     15 C6        10.4602   -1.7539   -1.7870 C.ar      1 RES1    0.0000
     16 C7        10.2770   -3.1282   -1.9357 C.ar      1 RES1    0.0000
     17 H6        10.6123   -3.5584   -2.6888 H         1 RES1    0.0000
     18 C8         9.6097   -3.8493   -0.9853 C.ar      1 RES1    0.0000
     19 H7         9.4957   -4.7677   -1.0784 H         1 RES1    0.0000
     20 C9         9.1069   -3.1806    0.1190 C.ar      1 RES1    0.0000
     21 C10        9.2907   -1.8197    0.2855 C.ar      1 RES1    0.0000
     22 H8         8.9495   -1.3991    1.0411 H         1 RES1    0.0000
     23 C11        9.9776   -1.0753   -0.6615 C.ar      1 RES1    0.0000
     24 C12       10.2123    0.4247   -0.4922 C.3       1 RES1    0.0000
     25 C13       10.5568    0.7858    0.9355 C.2       1 RES1    0.0000
     26 C14        8.3357    1.0873    2.3530 C.3       1 RES1    0.0000
     27 H9         8.1634    1.2761    3.2780 H         1 RES1    0.0000
     28 H10        7.9524    0.2384    2.1222 H         1 RES1    0.0000
     29 H11        7.9450    1.7739    1.8076 H         1 RES1    0.0000
     30 C15        8.9783    1.2103   -0.9753 C.3       1 RES1    0.0000
     31 H12        8.2083    0.9404   -0.4692 H         1 RES1    0.0000
     32 H13        8.8288    1.0310   -1.9063 H         1 RES1    0.0000
     33 H14        9.1283    2.1507   -0.8505 H         1 RES1    0.0000
     34 C16       13.0035    1.1483    4.7624 C.ar      1 RES1    0.0000
     35 H15       12.2790    0.6724    5.0976 H         1 RES1    0.0000
     36 C17       14.1083    1.4258    5.5655 C.ar      1 RES1    0.0000
     37 H16       14.1206    1.1321    6.4480 H         1 RES1    0.0000
     38 C18       15.1800    2.1287    5.0696 C.ar      1 RES1    0.0000
     39 H17       15.9220    2.2870    5.6069 H         1 RES1    0.0000
     40 C19       15.1541    2.5941    3.7926 C.ar      1 RES1    0.0000
     41 H18       15.8721    3.0872    3.4660 H         1 RES1    0.0000
     42 C20       14.0669    2.3376    2.9757 C.ar      1 RES1    0.0000
     43 H19       14.0493    2.6638    2.1049 H         1 RES1    0.0000
     44 C21       13.0107    1.5969    3.4598 C.ar      1 RES1    0.0000
     45 N3         8.3805   -3.9304    1.1382 N.pl3     1 RES1    0.0000
     46 O3         7.8035   -3.3110    2.0212 O.2       1 RES1    0.0000
     47 O4         8.3856   -5.1544    1.0702 O.2       1 RES1    0.0000
@<TRIPOS>BOND
     1    1    2 2
     2    2    3 1
     3    3    4 1
     4    4    5 1
     5    5    6 1
     6    6    7 1
     7    8    6 1
     8    9    6 1
     9   10    9 1
    10   11    9 1
    11   12   11 1
    12   13   11 1
    13   14   11 1
    14   15   14 1
    15   16   15 ar
    16   17   16 1
    17   18   16 ar
    18   19   18 1
    19   20   18 ar
    20   21   20 ar
    21   22   21 1
    22   23   15 ar
    23   24    9 1
    24   25    1 1
    25   26    1 1
    26   27   26 1
    27   28   26 1
    28   29   26 1
    29   30   24 1
    30   31   30 1
    31   32   30 1
    32   33   30 1
    33   34   35 1
    34   36   34 ar
    35   37   36 1
    36   38   36 ar
    37   39   38 1
    38   40   38 ar
    39   41   40 1
    40   42   40 ar
    41   43   42 1
    42   44    3 1
    43   45   20 1
    44   46   45 2
    45   47   45 2
    46    4   25 2
    47   21   23 ar
    48   23   24 1
    49   24   25 1
    50   34   44 ar
    51   42   44 ar
@<TRIPOS>SUBSTRUCTURE
     1 RES1 1

@<TRIPOS>CRYSIN
  14.4663    9.5373   13.4477  90.0000  97.5650  90.0000  14 1

