# MOL2 file generated by ConQuest
# Please check atom types

@<TRIPOS>MOLECULE
NAYTIR
    54    56     1
SMALL
NO_CHARGES
****
Generated from CSD

@<TRIPOS>ATOM
      1 O1         2.0638    9.6256   10.0003 O.3       1 RES1    0.0000
      2 O2         1.2917    5.9366    7.1901 O.3       1 RES1    0.0000
      3 O3         5.4917    8.3327    7.0429 O.3       1 RES1    0.0000
      4 C1         1.6819    7.7332    8.6388 C.ar      1 RES1    0.0000
      5 C2        -6.9822    6.4514   14.1581 C.ar      1 RES1    0.0000
      6 C3         2.1515    6.9223    7.5908 C.ar      1 RES1    0.0000
      7 C4        -1.7800    6.6021    9.9953 C.ar      1 RES1    0.0000
      8 C5         4.2243    8.0847    7.4936 C.ar      1 RES1    0.0000
      9 C6         2.5479    8.7776    9.0341 C.ar      1 RES1    0.0000
     10 N1       -10.5700    5.8786   16.3156 N.pl3     1 RES1    0.0000
     11 C7        -4.1311    6.2813   11.5588 C.ar      1 RES1    0.0000
     12 C8        -9.3265    6.0941   15.5718 C.ar      1 RES1    0.0000
     13 C9        -0.5948    6.7300    9.1558 C.2       1 RES1    0.0000
     14 C10        3.7976    8.9443    8.4864 C.ar      1 RES1    0.0000
     15 C11       -3.1250    7.1691   11.9397 C.ar      1 RES1    0.0000
     16 O4       -11.2756    4.9227   15.9994 O.2       1 RES1    0.0000
     17 C12        0.4305    7.5471    9.3668 C.2       1 RES1    0.0000
     18 C13       -5.3758    6.0930   12.2981 C.2       1 RES1    0.0000
     19 C14        3.4013    7.0914    7.0148 C.ar      1 RES1    0.0000
     20 C15       -3.9205    5.5420   10.3968 C.ar      1 RES1    0.0000
     21 C16       -2.7830    5.6974    9.6422 C.ar      1 RES1    0.0000
     22 C17       -7.1627    7.0293   15.4057 C.ar      1 RES1    0.0000
     23 C18       -5.7224    6.6596   13.4427 C.2       1 RES1    0.0000
     24 C19       -1.9869    7.3214   11.1776 C.ar      1 RES1    0.0000
     25 O5       -10.8443    6.6575   17.2135 O.2       1 RES1    0.0000
     26 C20       -9.1900    5.4965   14.3432 C.ar      1 RES1    0.0000
     27 C21       -8.3314    6.8667   16.1121 C.ar      1 RES1    0.0000
     28 C22       -8.0240    5.6870   13.6501 C.ar      1 RES1    0.0000
     29 C23        2.8364   10.7847   10.3164 C.3       1 RES1    0.0000
     30 C24        1.7235    4.9838    6.2191 C.3       1 RES1    0.0000
     31 C25        6.0014    7.5389    5.9832 C.3       1 RES1    0.0000
     32 H1         0.3515    8.0785   10.1464 H         1 RES1    0.0000
     33 H2         3.6942    6.5353    6.3623 H         1 RES1    0.0000
     34 H3        -6.0022    5.4789   11.8859 H         1 RES1    0.0000
     35 H4         4.4006    9.6424    8.7548 H         1 RES1    0.0000
     36 H5        -2.6793    5.1371    8.8495 H         1 RES1    0.0000
     37 H6        -5.1161    7.2706   13.8877 H         1 RES1    0.0000
     38 H7        -8.4214    7.2395   16.9227 H         1 RES1    0.0000
     39 H8        -4.6152    4.9196   10.1048 H         1 RES1    0.0000
     40 H9         2.2999   11.3409   10.9227 H         1 RES1    0.0000
     41 H10       -0.5882    6.1728    8.4094 H         1 RES1    0.0000
     42 H11        3.7156   10.5434   10.7085 H         1 RES1    0.0000
     43 H12        5.4593    7.6849    5.1796 H         1 RES1    0.0000
     44 H13        2.9644   11.3616    9.5155 H         1 RES1    0.0000
     45 H14       -1.3266    7.9024   11.4939 H         1 RES1    0.0000
     46 H15       -3.1926    7.7263   12.7310 H         1 RES1    0.0000
     47 H16       -7.9478    5.2924   12.7998 H         1 RES1    0.0000
     48 H17        2.5298    4.4535    6.5479 H         1 RES1    0.0000
     49 H18       -6.4388    7.5399   15.7804 H         1 RES1    0.0000
     50 H19        0.9578    4.3292    6.1221 H         1 RES1    0.0000
     51 H20        6.8522    7.8817    5.8508 H         1 RES1    0.0000
     52 H21       -9.9384    4.9921   13.9811 H         1 RES1    0.0000
     53 H22        1.8993    5.4271    5.4133 H         1 RES1    0.0000
     54 H23        6.0105    6.5249    6.2052 H         1 RES1    0.0000
@<TRIPOS>BOND
     1    1    9 1
     2    2    6 1
     3    3    8 1
     4    4    6 ar
     5    5   22 ar
     6    6   19 ar
     7    7   13 1
     8    8   14 ar
     9    9    4 ar
    10   10   12 1
    11   11   15 ar
    12   12   26 ar
    13   13   17 2
    14   14    9 ar
    15   15   24 ar
    16   16   10 2
    17   17    4 1
    18   18   11 1
    19   19    8 ar
    20   20   11 ar
    21   21    7 ar
    22   22   27 ar
    23   23    5 1
    24   24    7 ar
    25   25   10 2
    26   26   28 ar
    27   27   12 ar
    28   28    5 ar
    29   29    1 1
    30   30    2 1
    31   31    3 1
    32   32   17 1
    33   33   19 1
    34   34   18 1
    35   35   14 1
    36   36   21 1
    37   37   23 1
    38   38   27 1
    39   39   20 1
    40   40   29 1
    41   41   13 1
    42   42   29 1
    43   43   31 1
    44   44   29 1
    45   45   24 1
    46   46   15 1
    47   47   28 1
    48   48   30 1
    49   49   22 1
    50   50   30 1
    51   51   31 1
    52   52   26 1
    53   53   30 1
    54   54   31 1
    55   18   23 2
    56   20   21 ar
@<TRIPOS>SUBSTRUCTURE
     1 RES1 1

@<TRIPOS>CRYSIN
  15.7850   10.3570   13.5020  90.0000 105.9600  90.0000  14 1

