# MOL2 file generated by ConQuest
# Please check atom types

@<TRIPOS>MOLECULE
NAZYAP
    72    74     1
SMALL
NO_CHARGES
****
Generated from CSD

@<TRIPOS>ATOM
      1 O1        -2.4566    8.6484    4.2055 O.2       1 RES1    0.0000
      2 O2        -2.3071    7.2527    5.8355 O.2       1 RES1    0.0000
      3 O3        -0.3513    2.4039    4.7956 O.2       1 RES1    0.0000
      4 O4         0.8318    0.6234    5.1025 O.2       1 RES1    0.0000
      5 O5         4.2255   -0.5077    2.7857 O.2       1 RES1    0.0000
      6 O6        -0.3085    3.3430    0.3531 O.2       1 RES1    0.0000
      7 N1        -0.3049    9.7598    3.1704 N.3       1 RES1    0.0000
      8 N2        -1.7664    7.9780    4.9883 N.pl3     1 RES1    0.0000
      9 N3         0.7143    1.8325    5.0252 N.pl3     1 RES1    0.0000
     10 N4         3.4732    0.9340    4.3505 N.am      1 RES1    0.0000
     11 N5         2.2842    2.2578    2.0397 N.ar      1 RES1    0.0000
     12 N6         0.6037    4.8694    1.7583 N.am      1 RES1    0.0000
     13 C1        -0.6042   11.6824    1.7388 C.3       1 RES1    0.0000
     14 C2         0.3835   10.6988    2.2844 C.3       1 RES1    0.0000
     15 C3         0.3195    8.9081    4.0059 C.ar      1 RES1    0.0000
     16 C4        -0.3422    8.0370    4.9163 C.ar      1 RES1    0.0000
     17 C5         0.3721    7.1835    5.7794 C.ar      1 RES1    0.0000
     18 C6         1.7378    7.1289    5.7666 C.ar      1 RES1    0.0000
     19 C7         2.4087    7.9923    4.8793 C.ar      1 RES1    0.0000
     20 C8         1.7386    8.8414    4.0392 C.ar      1 RES1    0.0000
     21 C9         2.5217    6.1593    6.6298 C.3       1 RES1    0.0000
     22 C10        2.7500    4.8135    5.9520 C.ar      1 RES1    0.0000
     23 C11        1.6856    3.9305    5.7587 C.ar      1 RES1    0.0000
     24 C12        1.9096    2.6784    5.2051 C.ar      1 RES1    0.0000
     25 C13        3.1816    2.2553    4.8085 C.ar      1 RES1    0.0000
     26 C14        4.2171    3.1732    4.9416 C.ar      1 RES1    0.0000
     27 C15        3.9937    4.4273    5.5089 C.ar      1 RES1    0.0000
     28 C16        3.7904   -0.0597    5.4072 C.3       1 RES1    0.0000
     29 C17        5.1735    0.0477    5.9428 C.3       1 RES1    0.0000
     30 C18        3.7499    0.5871    3.0710 C.2       1 RES1    0.0000
     31 C19        3.4209    1.5448    1.9589 C.ar      1 RES1    0.0000
     32 C20        4.2626    1.5784    0.8543 C.ar      1 RES1    0.0000
     33 C21        3.9069    2.3632   -0.2340 C.ar      1 RES1    0.0000
     34 C22        2.7273    3.0663   -0.1811 C.ar      1 RES1    0.0000
     35 C23        1.9470    2.9994    0.9696 C.ar      1 RES1    0.0000
     36 C24        0.6397    3.7454    1.0211 C.2       1 RES1    0.0000
     37 C25        1.7564    5.3918    2.4925 C.3       1 RES1    0.0000
     38 C26        2.6052    6.3495    1.6655 C.3       1 RES1    0.0000
     39 C27       -0.6366    5.6481    1.7933 C.3       1 RES1    0.0000
     40 C28       -1.5982    5.1327    2.8400 C.3       1 RES1    0.0000
     41 H1        -1.1328    9.7750    3.1588 H         1 RES1    0.0000
     42 H2        -1.2988   11.2157    1.2305 H         1 RES1    0.0000
     43 H3        -1.0242   12.1805    2.4776 H         1 RES1    0.0000
     44 H4        -0.1316   12.3120    1.1524 H         1 RES1    0.0000
     45 H5         1.0795   11.1734    2.7936 H         1 RES1    0.0000
     46 H6         0.8049   10.2086    1.5465 H         1 RES1    0.0000
     47 H7        -0.1255    6.6089    6.3983 H         1 RES1    0.0000
     48 H8         3.3915    7.9791    4.8605 H         1 RES1    0.0000
     49 H9         2.2609    9.4280    3.4476 H         1 RES1    0.0000
     50 H10        3.3947    6.5586    6.8335 H         1 RES1    0.0000
     51 H11        2.0298    6.0110    7.4643 H         1 RES1    0.0000
     52 H12        0.7750    4.1958    6.0111 H         1 RES1    0.0000
     53 H13        5.1172    2.9298    4.6316 H         1 RES1    0.0000
     54 H14        4.7465    5.0547    5.5897 H         1 RES1    0.0000
     55 H15        3.1614    0.0649    6.1498 H         1 RES1    0.0000
     56 H16        3.6754   -0.9595    5.0326 H         1 RES1    0.0000
     57 H17        5.8069   -0.0770    5.2042 H         1 RES1    0.0000
     58 H18        5.2930    0.9474    6.3214 H         1 RES1    0.0000
     59 H19        5.3870   -0.6063    6.6429 H         1 RES1    0.0000
     60 H20        5.1006    1.0613    0.8421 H         1 RES1    0.0000
     61 H21        4.4832    2.4137   -1.0246 H         1 RES1    0.0000
     62 H22        2.4443    3.6076   -0.9488 H         1 RES1    0.0000
     63 H23        1.4294    5.8746    3.2860 H         1 RES1    0.0000
     64 H24        2.3159    4.6421    2.7796 H         1 RES1    0.0000
     65 H25        2.9334    5.8685    0.8751 H         1 RES1    0.0000
     66 H26        2.0469    7.1010    1.3815 H         1 RES1    0.0000
     67 H27        3.3765    6.6987    2.1596 H         1 RES1    0.0000
     68 H28       -0.4171    6.5843    1.9950 H         1 RES1    0.0000
     69 H29       -1.0676    5.6008    0.9129 H         1 RES1    0.0000
     70 H30       -1.8244    4.1983    2.6423 H         1 RES1    0.0000
     71 H31       -1.1739    5.1818    3.7245 H         1 RES1    0.0000
     72 H32       -2.4343    5.6537    2.8697 H         1 RES1    0.0000
@<TRIPOS>BOND
     1    1    8 2
     2    2    8 2
     3    3    9 2
     4    4    9 2
     5    5   30 2
     6    6   36 2
     7    7   14 1
     8    8   16 1
     9    9   24 1
    10   10   25 1
    11   11   31 ar
    12   12   36 1
    13   13   14 1
    14   14   45 1
    15   15    7 1
    16   16   15 ar
    17   17   16 ar
    18   18   17 ar
    19   19   18 ar
    20   20   15 ar
    21   21   18 1
    22   22   21 1
    23   23   22 ar
    24   24   23 ar
    25   25   24 ar
    26   26   25 ar
    27   27   22 ar
    28   28   10 1
    29   29   28 1
    30   30   10 1
    31   31   30 1
    32   32   31 ar
    33   33   32 ar
    34   34   33 ar
    35   35   11 ar
    36   36   35 1
    37   37   12 1
    38   38   37 1
    39   39   12 1
    40   40   39 1
    41   41    7 1
    42   42   13 1
    43   43   13 1
    44   44   13 1
    45   46   14 1
    46   47   17 1
    47   48   19 1
    48   49   20 1
    49   50   21 1
    50   51   21 1
    51   52   23 1
    52   53   26 1
    53   54   27 1
    54   55   28 1
    55   56   28 1
    56   57   29 1
    57   58   29 1
    58   59   29 1
    59   60   32 1
    60   61   33 1
    61   62   34 1
    62   63   37 1
    63   64   37 1
    64   65   38 1
    65   66   38 1
    66   67   38 1
    67   68   39 1
    68   69   39 1
    69   70   40 1
    70   71   40 1
    71   72   40 1
    72   19   20 ar
    73   26   27 ar
    74   34   35 ar
@<TRIPOS>SUBSTRUCTURE
     1 RES1 1

@<TRIPOS>CRYSIN
   8.1231   11.7282   15.4242  72.5800  77.8680  89.8540   2 1

