# MOL2 file generated by ConQuest
# Please check atom types

@<TRIPOS>MOLECULE
NBARBA
    15    15     1
SMALL
NO_CHARGES
****
Generated from CSD

@<TRIPOS>ATOM
      1 C1         0.3291    0.7402    1.8716 C.2       1 RES1    0.0000
      2 C2         1.0529    2.5023    3.3165 C.2       1 RES1    0.0000
      3 C3         1.5651    3.2287    2.2245 C.2       1 RES1    0.0000
      4 C4         1.4717    2.6801    0.8841 C.2       1 RES1    0.0000
      5 H1         0.7819    1.1585    0.0550 H         1 RES1    0.0000
      6 H2         0.2988    0.9393    3.8267 H         1 RES1    0.0000
      7 H3         1.6162    3.7134    4.4535 H         1 RES1    0.0000
      8 N1         0.8359    1.4547    0.8236 N.am      1 RES1    0.0000
      9 N2         0.5138    1.2850    3.1042 N.am      1 RES1    0.0000
     10 N3         2.2238    4.4448    2.4786 N.pl3     1 RES1    0.0000
     11 O1        -0.2396   -0.3350    1.7253 O.2       1 RES1    0.0000
     12 O2         1.0637    2.8962    4.5569 O.3       1 RES1    0.0000
     13 O3         1.8488    3.2199   -0.1463 O.2       1 RES1    0.0000
     14 O4         2.2495    4.8988    3.6519 O.2       1 RES1    0.0000
     15 O5         2.7729    5.0578    1.5747 O.2       1 RES1    0.0000
@<TRIPOS>BOND
     1    1    8 1
     2    2    3 2
     3    3    4 1
     4    4    8 1
     5    5    8 1
     6    6    9 1
     7    7   12 1
     8    9    1 1
     9   10    3 1
    10   11    1 2
    11   12    2 1
    12   13    4 2
    13   14   10 2
    14   15   10 2
    15    2    9 1
@<TRIPOS>SUBSTRUCTURE
     1 RES1 1

@<TRIPOS>CRYSIN
   8.9370    6.2620   11.8750  90.0000 112.1800  90.0000  14 1

