# MOL2 file generated by ConQuest
# Please check atom types

@<TRIPOS>MOLECULE
NBEPXP10
    44    48     1
SMALL
NO_CHARGES
****
Generated from CSD

@<TRIPOS>ATOM
      1 O1         0.4558   11.6301    3.5532 O.2       1 RES1    0.0000
      2 O2        -1.9345   14.2262    3.6050 O.3       1 RES1    0.0000
      3 O3        -2.5171   12.2179    2.7535 O.3       1 RES1    0.0000
      4 O4        -3.4786   12.5985    3.7806 O.3       1 RES1    0.0000
      5 O5         4.8565   16.4008    1.2686 O.2       1 RES1    0.0000
      6 O6         3.5847   18.0839    1.5884 O.2       1 RES1    0.0000
      7 N1         3.7693   16.8938    1.5053 N.pl3     1 RES1    0.0000
      8 C1        -0.4655   12.3170    3.9970 C.2       1 RES1    0.0000
      9 C2        -1.3649   13.1075    2.9652 C.3       1 RES1    0.0000
     10 C3        -2.8487   13.6676    4.5599 C.3       1 RES1    0.0000
     11 C4        -2.0821   13.0900    5.7391 C.ar      1 RES1    0.0000
     12 C5        -2.4818   13.1688    7.0406 C.ar      1 RES1    0.0000
     13 C6        -1.7254   12.6073    8.0316 C.ar      1 RES1    0.0000
     14 C7        -0.5527   11.9728    7.7619 C.ar      1 RES1    0.0000
     15 C8        -0.0999   11.8605    6.4526 C.ar      1 RES1    0.0000
     16 C9        -0.8729   12.4206    5.4208 C.ar      1 RES1    0.0000
     17 C10       -3.9171   14.6740    4.8845 C.ar      1 RES1    0.0000
     18 C11       -5.1564   14.1766    5.3079 C.ar      1 RES1    0.0000
     19 C12       -6.1397   15.1057    5.6058 C.ar      1 RES1    0.0000
     20 C13       -5.9105   16.4738    5.5306 C.ar      1 RES1    0.0000
     21 C14       -4.6802   16.9624    5.0884 C.ar      1 RES1    0.0000
     22 C15       -3.6923   16.0289    4.7779 C.ar      1 RES1    0.0000
     23 C16       -0.7925   13.4197    1.6104 C.3       1 RES1    0.0000
     24 C17        0.4186   14.3706    1.6888 C.ar      1 RES1    0.0000
     25 C18        1.7190   13.8062    1.5367 C.ar      1 RES1    0.0000
     26 C19        2.8167   14.6506    1.5053 C.ar      1 RES1    0.0000
     27 C20        2.6148   15.9968    1.6167 C.ar      1 RES1    0.0000
     28 C21        1.3490   16.5540    1.8001 C.ar      1 RES1    0.0000
     29 C22        0.2779   15.7080    1.8535 C.ar      1 RES1    0.0000
     30 H1         1.8288   12.8202    1.3015 H         1 RES1    0.0000
     31 H2         3.7653   14.3371    1.2545 H         1 RES1    0.0000
     32 H3         1.2178   17.5239    2.0777 H         1 RES1    0.0000
     33 H4        -0.6756   16.0727    1.9601 H         1 RES1    0.0000
     34 H5        -0.4710   12.5285    1.0929 H         1 RES1    0.0000
     35 H6        -1.5312   13.8922    1.0239 H         1 RES1    0.0000
     36 H7        -5.3132   13.1761    5.4145 H         1 RES1    0.0000
     37 H8        -7.0490   14.7527    5.8849 H         1 RES1    0.0000
     38 H9        -6.6947   17.1374    5.6450 H         1 RES1    0.0000
     39 H10       -4.5445   17.9687    4.9708 H         1 RES1    0.0000
     40 H11       -2.7449   16.3571    4.5160 H         1 RES1    0.0000
     41 H12       -3.3571   13.5932    7.2758 H         1 RES1    0.0000
     42 H13       -2.0683   12.6496    8.9850 H         1 RES1    0.0000
     43 H14       -0.1501   11.3763    8.4675 H         1 RES1    0.0000
     44 H15        0.6390   11.2013    6.2095 H         1 RES1    0.0000
@<TRIPOS>BOND
     1    1    8 2
     2    2    9 1
     3    3    4 1
     4    4   10 1
     5    5    7 2
     6    6    7 2
     7    7   27 1
     8    8    9 1
     9    9    3 1
    10   10    2 1
    11   11   10 1
    12   12   11 ar
    13   13   12 ar
    14   14   13 ar
    15   15   14 ar
    16   16    8 1
    17   17   10 1
    18   18   17 ar
    19   19   18 ar
    20   20   19 ar
    21   21   20 ar
    22   22   17 ar
    23   23    9 1
    24   24   23 1
    25   25   24 ar
    26   26   25 ar
    27   27   26 ar
    28   28   27 ar
    29   29   24 ar
    30   30   25 1
    31   31   26 1
    32   32   28 1
    33   33   29 1
    34   34   23 1
    35   35   23 1
    36   36   18 1
    37   37   19 1
    38   38   20 1
    39   39   21 1
    40   40   22 1
    41   41   12 1
    42   42   13 1
    43   43   14 1
    44   44   15 1
    45   11   16 ar
    46   15   16 ar
    47   21   22 ar
    48   28   29 ar
@<TRIPOS>SUBSTRUCTURE
     1 RES1 1

@<TRIPOS>CRYSIN
   8.2050   14.5850   15.9250  90.0000 100.0500  90.0000  14 1

