# MOL2 file generated by ConQuest
# Please check atom types

@<TRIPOS>MOLECULE
NBZANO11
    33    35     1
SMALL
USER_CHARGES
****
Generated from CSD

@<TRIPOS>ATOM
      1 O1        -2.8416    1.7864   10.5360 O.2       1 RES1    0.0000
      2 O2        -3.1902    3.8419   10.0853 O.2       1 RES1    0.0000
      3 N1        -2.6702    2.7656    9.8353 N.pl3     1 RES1    0.0000
      4 C1        -0.3966    1.3342    7.2947 C.ar      1 RES1    0.0000
      5 H1        -0.0126    0.5409    7.1097 H         1 RES1    0.0000
      6 C2        -1.2553    1.4424    8.3981 C.ar      1 RES1    0.0000
      7 H2        -1.4258    0.7323    8.9238 H         1 RES1    0.0000
      8 C3        -1.8249    2.6546    8.6598 C.ar      1 RES1    0.0000
      9 C4        -1.5888    3.7642    7.8730 C.ar      1 RES1    0.0000
     10 H3        -1.9501    4.5603    8.0838 H         1 RES1    0.0000
     11 C5        -0.8066    3.6310    6.7930 C.ar      1 RES1    0.0000
     12 H4        -0.7125    4.3384    6.2433 H         1 RES1    0.0000
     13 C6        -0.1302    2.4438    6.4675 C.ar      1 RES1    0.0000
     14 N2         0.6923    2.2801    5.4009 N.pl3     1 RES1    1.0000
     15 H5         1.0528    1.4785    5.2153 H         1 RES1    0.0000
     16 N3         0.9477    3.3647    4.6188 N.2       1 RES1    0.0000
     17 C7         1.7409    3.2150    3.5867 C.ar      1 RES1    0.0000
     18 C8         1.8577    4.4382    2.7432 C.ar      1 RES1    0.0000
     19 C9         1.1914    5.6782    3.0183 C.ar      1 RES1    0.0000
     20 H6         0.6948    5.7364    3.7665 H         1 RES1    0.0000
     21 C10        1.2679    6.7572    2.2298 C.ar      1 RES1    0.0000
     22 H7         0.8360    7.5228    2.4329 H         1 RES1    0.0000
     23 C11        2.0266    6.6657    1.1099 C.ar      1 RES1    0.0000
     24 H8         2.0812    7.3703    0.5532 H         1 RES1    0.0000
     25 C12        2.7231    5.5034    0.7903 C.ar      1 RES1    0.0000
     26 H9         3.2045    5.4729    0.0304 H         1 RES1    0.0000
     27 C13        2.6870    4.3911    1.6157 C.ar      1 RES1    0.0000
     28 C14        3.2701    3.1789    1.2621 C.ar      1 RES1    0.0000
     29 H10        3.7288    3.1567    0.4882 H         1 RES1    0.0000
     30 C15        3.2104    2.0555    1.9792 C.ar      1 RES1    0.0000
     31 H11        3.6591    1.3232    1.7105 H         1 RES1    0.0000
     32 C16        2.4105    2.0277    3.1893 C.ar      1 RES1    0.0000
     33 O3         2.2643    0.9625    3.8642 O.2       1 RES1   -1.0000
@<TRIPOS>BOND
     1    1    3 2
     2    2    3 2
     3    3    8 1
     4    4    5 1
     5    6    4 ar
     6    7    6 1
     7    8    6 ar
     8    9    8 ar
     9   10    9 1
    10   11    9 ar
    11   12   11 1
    12   13    4 ar
    13   14   13 1
    14   15   14 1
    15   16   14 2
    16   17   16 1
    17   18   17 ar
    18   19   18 ar
    19   20   19 1
    20   21   19 ar
    21   22   21 1
    22   23   21 ar
    23   24   23 1
    24   25   23 ar
    25   26   25 1
    26   27   18 ar
    27   28   27 ar
    28   29   28 1
    29   30   28 ar
    30   31   30 1
    31   32   17 ar
    32   33   32 1
    33   11   13 ar
    34   25   27 ar
    35   30   32 ar
@<TRIPOS>SUBSTRUCTURE
     1 RES1 1

@<TRIPOS>CRYSIN
   8.4020   27.7390    5.8540  90.0000  90.0000  90.0000  19 1

