# MOL2 file generated by ConQuest
# Please check atom types

@<TRIPOS>MOLECULE
NBZMAA
    35    36     1
SMALL
NO_CHARGES
****
Generated from CSD

@<TRIPOS>ATOM
      1 C1        -0.9344    2.4340   -5.3521 C.ar      1 RES1    0.0000
      2 C2         3.1856    3.6281    2.2967 C.ar      1 RES1    0.0000
      3 C3         2.5942    2.7413    3.1487 C.ar      1 RES1    0.0000
      4 C4         1.5737    1.9335    2.7393 C.ar      1 RES1    0.0000
      5 C5         1.1494    1.9832    1.4400 C.ar      1 RES1    0.0000
      6 C6        -2.7018    1.9165   -6.9581 C.3       1 RES1    0.0000
      7 C7        -0.8355    3.4450   -7.5792 C.3       1 RES1    0.0000
      8 C8         0.1677    3.1998   -4.9569 C.ar      1 RES1    0.0000
      9 C9         0.6323    3.1432   -3.6592 C.ar      1 RES1    0.0000
     10 C10        0.0319    2.3471   -2.6950 C.ar      1 RES1    0.0000
     11 C11       -1.0681    1.5945   -3.0933 C.ar      1 RES1    0.0000
     12 C12       -1.5541    1.6371   -4.3863 C.ar      1 RES1    0.0000
     13 C13        1.2894    2.9779   -0.8362 C.2       1 RES1    0.0000
     14 C14        1.7257    2.8724    0.5532 C.ar      1 RES1    0.0000
     15 C15        2.7358    3.6948    1.0085 C.ar      1 RES1    0.0000
     16 H1         0.6725    3.8174   -5.6588 H         1 RES1    0.0000
     17 H2        -2.9465    2.0794   -7.8559 H         1 RES1    0.0000
     18 H3        -3.4130    2.4286   -6.4333 H         1 RES1    0.0000
     19 H4        -2.7200    0.9544   -6.7178 H         1 RES1    0.0000
     20 H5         0.2044    3.2743   -7.6978 H         1 RES1    0.0000
     21 H6        -1.0224    4.3761   -7.2552 H         1 RES1    0.0000
     22 H7        -1.2869    3.3131   -8.3775 H         1 RES1    0.0000
     23 H8         1.3499    3.6467   -3.4300 H         1 RES1    0.0000
     24 H9        -1.4936    0.9854   -2.3868 H         1 RES1    0.0000
     25 H10       -2.2816    1.1018   -4.6155 H         1 RES1    0.0000
     26 H11        1.7249    3.6622   -1.3752 H         1 RES1    0.0000
     27 H12        3.0631    4.3450    0.3794 H         1 RES1    0.0000
     28 H13        3.8129    4.2442    2.5132 H         1 RES1    0.0000
     29 H14        1.2581    1.3889    3.3668 H         1 RES1    0.0000
     30 H15        0.4163    1.4897    1.1697 H         1 RES1    0.0000
     31 N1         0.4206    2.2206   -1.3388 N.2       1 RES1    0.0000
     32 N2         3.0907    2.6489    4.5365 N.pl3     1 RES1    0.0000
     33 N3        -1.3865    2.4712   -6.6625 N.3       1 RES1    0.0000
     34 O1         4.0394    3.3449    4.8558 O.2       1 RES1    0.0000
     35 O2         2.5105    1.8792    5.2984 O.2       1 RES1    0.0000
@<TRIPOS>BOND
     1    1    8 ar
     2    2    3 ar
     3    3    4 ar
     4    4    5 ar
     5    5   14 ar
     6    6   17 1
     7    7   20 1
     8    8    9 ar
     9    9   10 ar
    10   10   11 ar
    11   11   12 ar
    12   12    1 ar
    13   13   14 1
    14   14   15 ar
    15   15    2 ar
    16   16    8 1
    17   18    6 1
    18   19    6 1
    19   21    7 1
    20   22    7 1
    21   23    9 1
    22   24   11 1
    23   25   12 1
    24   26   13 1
    25   27   15 1
    26   28    2 1
    27   29    4 1
    28   30    5 1
    29   31   10 1
    30   32    3 1
    31   33    1 1
    32   34   32 2
    33   35   32 2
    34    6   33 1
    35    7   33 1
    36   13   31 2
@<TRIPOS>SUBSTRUCTURE
     1 RES1 1

@<TRIPOS>CRYSIN
  11.0650    7.7590   16.4880  90.0000 106.5300  90.0000  14 1

