# MOL2 file generated by ConQuest
# Please check atom types

@<TRIPOS>MOLECULE
NBZOAO05
    17    17     1
SMALL
NO_CHARGES
****
Generated from CSD

@<TRIPOS>ATOM
      1 O1        -1.5935   -0.0436    4.3092 O.3       1 RES1    0.0000
      2 O2         0.2704   -1.1854    3.7998 O.2       1 RES1    0.0000
      3 O3         0.6567   -1.0906    0.9874 O.2       1 RES1    0.0000
      4 O4         2.7025   -0.4968    1.4002 O.2       1 RES1    0.0000
      5 N1         1.4877   -0.3116    1.4322 N.pl3     1 RES1    0.0000
      6 C1         0.0010    1.0187    2.9432 C.ar      1 RES1    0.0000
      7 C2         1.0136    0.9692    1.9771 C.ar      1 RES1    0.0000
      8 C3         1.5715    2.1129    1.4267 C.ar      1 RES1    0.0000
      9 C4         1.0681    3.3597    1.8089 C.ar      1 RES1    0.0000
     10 C5         0.0204    3.4380    2.7240 C.ar      1 RES1    0.0000
     11 C6        -0.4957    2.2761    3.3008 C.ar      1 RES1    0.0000
     12 C7        -0.4353   -0.1827    3.7012 C.2       1 RES1    0.0000
     13 H1        -1.7828   -0.8657    4.8842 H         1 RES1    0.0000
     14 H2         2.3640    2.0300    0.6888 H         1 RES1    0.0000
     15 H3         1.5120    4.2598    1.3965 H         1 RES1    0.0000
     16 H4        -0.4049    4.4006    2.9919 H         1 RES1    0.0000
     17 H5        -1.2665    2.3229    4.0630 H         1 RES1    0.0000
@<TRIPOS>BOND
     1    1   12 1
     2    2   12 2
     3    3    5 2
     4    4    5 2
     5    5    7 1
     6    6    7 ar
     7    7    8 ar
     8    8    9 ar
     9    9   10 ar
    10   10   11 ar
    11   11    6 ar
    12   12    6 1
    13   13    1 1
    14   14    8 1
    15   15    9 1
    16   16   10 1
    17   17   11 1
@<TRIPOS>SUBSTRUCTURE
     1 RES1 1

@<TRIPOS>CRYSIN
   4.9472    7.4767   10.3691  68.8560  86.7080  70.8640   2 1

