# MOL2 file generated by ConQuest
# Please check atom types

@<TRIPOS>MOLECULE
NBZOAO06
    17    17     1
SMALL
NO_CHARGES
****
Generated from CSD

@<TRIPOS>ATOM
      1 O1         1.5793    5.5861   12.2546 O.2       1 RES1    0.0000
      2 H1         2.6344    7.6541   11.9446 H         1 RES1    0.0000
      3 O2         2.8214    7.1134   11.2792 O.3       1 RES1    0.0000
      4 O3         1.2644    7.1033    9.0239 O.2       1 RES1    0.0000
      5 O4         2.5938    7.0032    7.3505 O.2       1 RES1    0.0000
      6 N1         2.1374    6.5575    8.3856 N.pl3     1 RES1    0.0000
      7 C1         2.6547    4.9964   10.2476 C.ar      1 RES1    0.0000
      8 C2         2.6652    5.2780    8.8915 C.ar      1 RES1    0.0000
      9 C3         3.0942    4.3664    7.9537 C.ar      1 RES1    0.0000
     10 H2         3.0880    4.5817    7.0484 H         1 RES1    0.0000
     11 C4         3.5331    3.1293    8.3750 C.ar      1 RES1    0.0000
     12 H3         3.8369    2.5065    7.7547 H         1 RES1    0.0000
     13 C5         3.5216    2.8176    9.7104 C.ar      1 RES1    0.0000
     14 H4         3.8155    1.9816    9.9907 H         1 RES1    0.0000
     15 C6         3.0782    3.7327   10.6384 C.ar      1 RES1    0.0000
     16 H5         3.0620    3.5023   11.5381 H         1 RES1    0.0000
     17 C7         2.3022    5.9671   11.3249 C.2       1 RES1    0.0000
@<TRIPOS>BOND
     1    1   17 2
     2    2    3 1
     3    3   17 1
     4    4    6 2
     5    5    6 2
     6    6    8 1
     7    7    8 ar
     8    8    9 ar
     9    9   10 1
    10   11    9 ar
    11   12   11 1
    12   13   11 ar
    13   14   13 1
    14   15    7 ar
    15   16   15 1
    16   17    7 1
    17   13   15 ar
@<TRIPOS>SUBSTRUCTURE
     1 RES1 1

@<TRIPOS>CRYSIN
   3.9356    7.2005   25.4100  90.0000  90.5780  90.0000  14 1

