# MOL2 file generated by ConQuest
# Please check atom types

@<TRIPOS>MOLECULE
NBZOAC13
    17    17     1
SMALL
NO_CHARGES
****
Generated from CSD

@<TRIPOS>ATOM
      1 O1         0.7101    3.3197    1.4443 O.3       1 RES1    0.0000
      2 O2        -0.8411    8.4774    5.7501 O.2       1 RES1    0.0000
      3 O3        -1.1140    3.8012    0.2482 O.2       1 RES1    0.0000
      4 C1        -0.6900    5.0685    2.2123 C.ar      1 RES1    0.0000
      5 C2        -1.8285    5.8397    2.0083 C.ar      1 RES1    0.0000
      6 H1        -2.3816    5.6810    1.2523 H         1 RES1    0.0000
      7 O4        -2.7926    8.6387    4.8227 O.2       1 RES1    0.0000
      8 C3        -2.1562    6.8405    2.9087 C.ar      1 RES1    0.0000
      9 H2        -2.9348    7.3715    2.7869 H         1 RES1    0.0000
     10 C4        -0.1922    6.3012    4.2272 C.ar      1 RES1    0.0000
     11 H3         0.3559    6.4698    4.9845 H         1 RES1    0.0000
     12 C5        -1.3216    7.0456    3.9876 C.ar      1 RES1    0.0000
     13 N1        -1.6787    8.1283    4.9258 N.pl3     1 RES1    0.0000
     14 C6        -0.3655    4.0018    1.2287 C.2       1 RES1    0.0000
     15 C7         0.1208    5.2922    3.3226 C.ar      1 RES1    0.0000
     16 H4         0.8905    4.7535    3.4621 H         1 RES1    0.0000
     17 H5         0.8343    2.5984    0.7268 H         1 RES1    0.0000
@<TRIPOS>BOND
     1    1   14 1
     2    2   13 2
     3    3   14 2
     4    4    5 ar
     5    5    6 1
     6    7   13 2
     7    8    5 ar
     8    9    8 1
     9   10   11 1
    10   12    8 ar
    11   13   12 1
    12   14    4 1
    13   15    4 ar
    14   16   15 1
    15   17    1 1
    16   10   12 ar
    17   10   15 ar
@<TRIPOS>SUBSTRUCTURE
     1 RES1 1

@<TRIPOS>CRYSIN
   5.4205    5.1556   24.6892  90.0000  95.9990  90.0000 231 1

