# MOL2 file generated by ConQuest
# Please check atom types

@<TRIPOS>MOLECULE
NBZOAC16
    17    17     1
SMALL
NO_CHARGES
****
Generated from CSD

@<TRIPOS>ATOM
      1 O1         2.2232    0.7458   13.7111 O.3       1 RES1    0.0000
      2 H1         2.3548    0.1130   13.0569 H         1 RES1    0.0000
      3 O2         0.3992    1.2269   12.5086 O.2       1 RES1    0.0000
      4 O3         0.6952    5.9140   18.0011 O.2       1 RES1    0.0000
      5 O4        -1.2643    6.0646   17.0878 O.2       1 RES1    0.0000
      6 N1        -0.1489    5.5656   17.1851 N.pl3     1 RES1    0.0000
      7 C1         0.1990    4.4783   16.2484 C.ar      1 RES1    0.0000
      8 C2         0.8269    2.4957   14.4700 C.ar      1 RES1    0.0000
      9 C3        -0.6401    4.2734   15.1642 C.ar      1 RES1    0.0000
     10 H2        -1.4177    4.8050   15.0430 H         1 RES1    0.0000
     11 C4         1.1425    1.4284   13.4811 C.2       1 RES1    0.0000
     12 C5         1.3365    3.7253   16.4829 C.ar      1 RES1    0.0000
     13 H3         1.8882    3.8928   17.2376 H         1 RES1    0.0000
     14 C6         1.6463    2.7166   15.5788 C.ar      1 RES1    0.0000
     15 H4         2.4161    2.1768   15.7149 H         1 RES1    0.0000
     16 C7        -0.3155    3.2713   14.2621 C.ar      1 RES1    0.0000
     17 H5        -0.8679    3.1136   13.5056 H         1 RES1    0.0000
@<TRIPOS>BOND
     1    1    2 1
     2    3   11 2
     3    4    6 2
     4    5    6 2
     5    6    7 1
     6    7    9 ar
     7    8   11 1
     8    9   10 1
     9   11    1 1
    10   12    7 ar
    11   13   12 1
    12   14    8 ar
    13   15   14 1
    14   16    8 ar
    15   17   16 1
    16    9   16 ar
    17   12   14 ar
@<TRIPOS>SUBSTRUCTURE
     1 RES1 1

@<TRIPOS>CRYSIN
   5.3931    5.1363   24.6376  90.0000  95.5997  90.0000 231 1

