# MOL2 file generated by ConQuest
# Please check atom types

@<TRIPOS>MOLECULE
NBZOAC01
    17    17     1
SMALL
NO_CHARGES
****
Generated from CSD

@<TRIPOS>ATOM
      1 C1         5.1854   -2.5416    1.9082 C.ar      1 RES1    0.0000
      2 C2         6.0438   -1.8146    2.7536 C.ar      1 RES1    0.0000
      3 C3         5.5498   -0.8391    3.5970 C.ar      1 RES1    0.0000
      4 C4         4.1882   -0.5673    3.5480 C.ar      1 RES1    0.0000
      5 C5         3.3126   -1.2716    2.7281 C.ar      1 RES1    0.0000
      6 C6         3.8132   -2.2688    1.9082 C.ar      1 RES1    0.0000
      7 C7         5.7519   -3.6109    1.0435 C.2       1 RES1    0.0000
      8 H1         5.3085   -4.8976   -0.1491 H         1 RES1    0.0000
      9 H2         6.9503   -2.0179    2.7898 H         1 RES1    0.0000
     10 H3         6.1629   -0.3498    4.2593 H         1 RES1    0.0000
     11 H4         2.4132   -0.9481    2.7685 H         1 RES1    0.0000
     12 H5         3.2323   -2.6871    1.3630 H         1 RES1    0.0000
     13 N1         3.6316    0.4730    4.4403 N.pl3     1 RES1    0.0000
     14 O1         6.9705   -3.8497    1.0371 O.2       1 RES1    0.0000
     15 O2         4.8909   -4.2664    0.3131 O.3       1 RES1    0.0000
     16 O3         4.3577    0.9040    5.3326 O.2       1 RES1    0.0000
     17 O4         2.5029    0.8731    4.2231 O.2       1 RES1    0.0000
@<TRIPOS>BOND
     1    1    2 ar
     2    2    3 ar
     3    3    4 ar
     4    4    5 ar
     5    5    6 ar
     6    6    1 ar
     7    7    1 1
     8    8   15 1
     9    9    2 1
    10   10    3 1
    11   11    5 1
    12   12    6 1
    13   13    4 1
    14   14    7 2
    15   15    7 1
    16   16   13 2
    17   17   13 2
@<TRIPOS>SUBSTRUCTURE
     1 RES1 1

@<TRIPOS>CRYSIN
  12.9700    5.0700   21.4300  90.0000  96.4000  90.0000  15 2

