# MOL2 file generated by ConQuest
# Please check atom types

@<TRIPOS>MOLECULE
NDZABZ
    27    28     1
SMALL
NO_CHARGES
****
Generated from CSD

@<TRIPOS>ATOM
      1 C1         2.8781   -1.6632   -2.8312 C.ar      1 RES1    0.0000
      2 C2         7.3360    3.7338   -0.9588 C.ar      1 RES1    0.0000
      3 C3         7.7136    3.3995   -2.2574 C.ar      1 RES1    0.0000
      4 C4         7.0314    2.4155   -2.9275 C.ar      1 RES1    0.0000
      5 C5         2.3824   -2.5481   -3.7760 C.ar      1 RES1    0.0000
      6 C6         1.3696   -3.4260   -3.4020 C.ar      1 RES1    0.0000
      7 C7         0.8627   -3.3482   -2.1137 C.ar      1 RES1    0.0000
      8 C8         1.3182   -2.4333   -1.1933 C.ar      1 RES1    0.0000
      9 C9         2.3462   -1.5809   -1.5466 C.ar      1 RES1    0.0000
     10 C10        5.9758    1.7602   -2.2952 C.ar      1 RES1    0.0000
     11 C11        5.6064    2.0777   -0.9892 C.ar      1 RES1    0.0000
     12 C12        6.2805    3.0881   -0.3241 C.ar      1 RES1    0.0000
     13 H1         7.3042    2.1234   -3.8680 H         1 RES1    0.0000
     14 H2         5.7303    0.6198   -3.9472 H         1 RES1    0.0000
     15 H3         2.7710   -2.5857   -4.6903 H         1 RES1    0.0000
     16 H4         1.0187   -4.0843   -4.0812 H         1 RES1    0.0000
     17 H5         0.1214   -3.9573   -1.8578 H         1 RES1    0.0000
     18 H6         0.9357   -2.3774   -0.2741 H         1 RES1    0.0000
     19 H7         2.7069   -0.9195   -0.8832 H         1 RES1    0.0000
     20 H8         4.8547    1.6053   -0.5299 H         1 RES1    0.0000
     21 H9         6.0221    3.3782    0.6091 H         1 RES1    0.0000
     22 N1         3.9245   -0.8245   -3.3259 N.2       1 RES1    0.0000
     23 N2         4.3422    0.0295   -2.5029 N.2       1 RES1    0.0000
     24 N3         5.3454    0.7574   -3.0341 N.pl3     1 RES1    0.0000
     25 N4         8.0265    4.7788   -0.2997 N.pl3     1 RES1    0.0000
     26 O1         7.7313    5.0434    0.8960 O.2       1 RES1    0.0000
     27 O2         8.9124    5.4224   -0.8729 O.2       1 RES1    0.0000
@<TRIPOS>BOND
     1    1    5 ar
     2    2    3 ar
     3    3    4 ar
     4    4   10 ar
     5    5    6 ar
     6    6    7 ar
     7    7    8 ar
     8    8    9 ar
     9    9    1 ar
    10   10   11 ar
    11   11   12 ar
    12   12    2 ar
    13   13    4 1
    14   14   24 1
    15   15    5 1
    16   16    6 1
    17   17    7 1
    18   18    8 1
    19   19    9 1
    20   20   11 1
    21   21   12 1
    22   22    1 1
    23   23   22 2
    24   24   10 1
    25   25    2 1
    26   26   25 2
    27   27   25 2
    28   23   24 1
@<TRIPOS>SUBSTRUCTURE
     1 RES1 1

@<TRIPOS>CRYSIN
  18.8700    5.0800    6.1200  90.0000  84.4500  90.0000   4 1

