# MOL2 file generated by ConQuest
# Please check atom types

@<TRIPOS>MOLECULE
NEBHAG
    35    37     1
SMALL
USER_CHARGES
****
Generated from CSD

@<TRIPOS>ATOM
      1 O1         0.9823    5.9304    9.3394 O.3       1 RES1    0.0000
      2 N1         1.5455    5.2034   10.3617 N.2       1 RES1   -1.0000
      3 N2         2.6894    5.7978   10.5651 N.pl3     1 RES1    1.0000
      4 C1         2.9246    6.8581    9.7734 C.2       1 RES1    0.0000
      5 H1         3.6904    7.4195    9.7770 H         1 RES1    0.0000
      6 C2         1.8144    6.9601    8.9494 C.2       1 RES1    0.0000
      7 N3         1.3882    7.7211    7.9573 N.2       1 RES1    0.0000
      8 C3         2.2380    8.7427    7.6168 C.2       1 RES1    0.0000
      9 O2         3.2977    9.0141    8.1917 O.2       1 RES1    0.0000
     10 C4         1.7847    9.5880    6.4639 C.ar      1 RES1    0.0000
     11 C5         0.7575    9.1955    5.6028 C.ar      1 RES1    0.0000
     12 H2         0.3312    8.3551    5.7253 H         1 RES1    0.0000
     13 C6         0.3568   10.0330    4.5666 C.ar      1 RES1    0.0000
     14 H3        -0.3392    9.7613    3.9802 H         1 RES1    0.0000
     15 C7         0.9736   11.2659    4.3875 C.ar      1 RES1    0.0000
     16 H4         0.6911   11.8421    3.6875 H         1 RES1    0.0000
     17 C8         2.0057   11.6548    5.2362 C.ar      1 RES1    0.0000
     18 H5         2.4309   12.4951    5.1118 H         1 RES1    0.0000
     19 C9         2.4141   10.8172    6.2632 C.ar      1 RES1    0.0000
     20 H6         3.1266   11.0820    6.8331 H         1 RES1    0.0000
     21 C10        3.6001    5.2707   11.5545 C.ar      1 RES1    0.0000
     22 C11        3.9056    6.0681   12.6623 C.ar      1 RES1    0.0000
     23 C12        4.8269    5.5737   13.5825 C.ar      1 RES1    0.0000
     24 H7         5.0543    6.0840   14.3512 H         1 RES1    0.0000
     25 C13        5.4126    4.3313   13.3733 C.ar      1 RES1    0.0000
     26 H8         6.0399    4.0032   14.0065 H         1 RES1    0.0000
     27 C14        5.1036    3.5578   12.2618 C.ar      1 RES1    0.0000
     28 H9         5.5139    2.7110   12.1357 H         1 RES1    0.0000
     29 C15        4.1872    4.0385   11.3373 C.ar      1 RES1    0.0000
     30 H10        3.9667    3.5280   10.5661 H         1 RES1    0.0000
     31 O3         3.2698    7.2596   12.7353 O.3       1 RES1    0.0000
     32 C16        3.6353    8.1345   13.8160 C.3       1 RES1    0.0000
     33 H11        3.4463    7.6942   14.6721 H         1 RES1    0.0000
     34 H12        3.1174    8.9636   13.7551 H         1 RES1    0.0000
     35 H13        4.5913    8.3414   13.7594 H         1 RES1    0.0000
@<TRIPOS>BOND
     1    1    2 1
     2    2    3 1
     3    3    4 2
     4    4    5 1
     5    6    1 1
     6    7    6 2
     7    8    7 1
     8    9    8 2
     9   10    8 1
    10   11   10 ar
    11   12   11 1
    12   13   11 ar
    13   14   13 1
    14   15   13 ar
    15   16   15 1
    16   17   15 ar
    17   18   17 1
    18   19   10 ar
    19   20   19 1
    20   21    3 1
    21   22   21 ar
    22   23   22 ar
    23   24   23 1
    24   25   23 ar
    25   26   25 1
    26   27   25 ar
    27   28   27 1
    28   29   21 ar
    29   30   29 1
    30   31   22 1
    31   32   31 1
    32   33   32 1
    33   34   32 1
    34   35   32 1
    35    4    6 1
    36   17   19 ar
    37   27   29 ar
@<TRIPOS>SUBSTRUCTURE
     1 RES1 1

@<TRIPOS>CRYSIN
  11.4610   11.3954   21.6786  90.0000  90.0000  90.0000  61 1

