# MOL2 file generated by ConQuest
# Please check atom types

@<TRIPOS>MOLECULE
NECBUV
    85    88     2
SMALL
NO_CHARGES
****
Generated from CSD

@<TRIPOS>ATOM
      1 O1         4.5993    5.3973    5.4654 O.2       1 RES1    0.0000
      2 N1         6.4631    9.7194    2.1326 N.2       1 RES1    0.0000
      3 N2         5.1252    8.4384    3.6883 N.2       1 RES1    0.0000
      4 H1         4.5092    8.9730    3.7621 H         1 RES1    0.0000
      5 N3         4.3273    6.5779    5.0251 N.2       1 RES1    0.0000
      6 N4         2.6921    8.3649    5.0158 N.2       1 RES1    0.0000
      7 C1         6.2206    8.6472    2.8782 C.2       1 RES1    0.0000
      8 C2         7.0692    7.4539    2.9314 C.2       1 RES1    0.0000
      9 C3         6.4291    6.5682    3.7532 C.2       1 RES1    0.0000
     10 H2         6.7067    5.6790    3.9723 H         1 RES1    0.0000
     11 C4         5.2187    7.1855    4.2126 C.2       1 RES1    0.0000
     12 C5         3.1640    7.1573    5.4182 C.2       1 RES1    0.0000
     13 C6         2.2775    6.5163    6.3628 C.2       1 RES1    0.0000
     14 H3         2.4656    5.6752    6.7873 H         1 RES1    0.0000
     15 C7         1.2292    7.3613    6.5559 C.2       1 RES1    0.0000
     16 C8         1.5054    8.5284    5.6916 C.2       1 RES1    0.0000
     17 C9         8.3693    7.2426    2.1868 C.3       1 RES1    0.0000
     18 C10        9.3632    8.3615    2.5189 C.3       1 RES1    0.0000
     19 H4         9.0314    9.3107    2.2565 H         1 RES1    0.0000
     20 H5        10.2334    8.1818    2.0478 H         1 RES1    0.0000
     21 H6         9.5316    8.3825    3.5371 H         1 RES1    0.0000
     22 C11        8.0721    7.2011    0.6774 C.3       1 RES1    0.0000
     23 H7         7.6949    8.0409    0.3669 H         1 RES1    0.0000
     24 H8         7.3912    6.5011    0.4577 H         1 RES1    0.0000
     25 H9         8.9104    7.0375    0.2017 H         1 RES1    0.0000
     26 C12        8.9887    5.8963    2.5847 C.3       1 RES1    0.0000
     27 H10        9.2145    5.8778    3.5426 H         1 RES1    0.0000
     28 H11        9.8278    5.8353    2.0789 H         1 RES1    0.0000
     29 H12        8.3330    5.1078    2.3713 H         1 RES1    0.0000
     30 C13        0.0528    7.1714    7.4837 C.3       1 RES1    0.0000
     31 C14       -1.2531    7.1550    6.6788 C.3       1 RES1    0.0000
     32 H13       -1.2581    6.4084    6.0015 H         1 RES1    0.0000
     33 H14       -1.4420    8.0467    6.2521 H         1 RES1    0.0000
     34 H15       -2.0503    6.9391    7.3109 H         1 RES1    0.0000
     35 C15        0.0228    8.3180    8.5123 C.3       1 RES1    0.0000
     36 H16       -0.7142    8.1606    9.2144 H         1 RES1    0.0000
     37 H17       -0.1844    9.2412    8.0439 H         1 RES1    0.0000
     38 H18        0.8741    8.3651    8.9903 H         1 RES1    0.0000
     39 C16        0.1862    5.8365    8.2253 C.3       1 RES1    0.0000
     40 H19       -0.5751    5.7253    8.8522 H         1 RES1    0.0000
     41 H20        0.9859    5.8160    8.7808 H         1 RES1    0.0000
     42 H21        0.1991    5.0075    7.6095 H         1 RES1    0.0000
     43 H22        2.9141    8.8649    4.3904 Du        2 SUP2    0.0000
     44 O1B        2.5482   13.8994    2.2915 O.2       1 RES1    0.0000
     45 N1B        0.6843    9.5773    5.6243 N.2       1 RES1    0.0000
     46 N2B        2.0223   10.8583    4.0687 N.2       1 RES1    0.0000
     47 H1B        2.6383   10.3237    3.9948 H         1 RES1    0.0000
     48 N3B        2.8202   12.7188    2.7318 N.2       1 RES1    0.0000
     49 N4B        4.4554   10.9318    2.7411 N.2       1 RES1    0.0000
     50 C1B        0.9269   10.6495    4.8787 C.2       1 RES1    0.0000
     51 C2B        0.0783   11.8428    4.8255 C.2       1 RES1    0.0000
     52 C3B        0.7184   12.7285    4.0037 C.2       1 RES1    0.0000
     53 H2B        0.4408   13.6177    3.7846 H         1 RES1    0.0000
     54 C4B        1.9288   12.1112    3.5443 C.2       1 RES1    0.0000
     55 C5B        3.9835   12.1394    2.3387 C.2       1 RES1    0.0000
     56 C6B        4.8700   12.7804    1.3941 C.2       1 RES1    0.0000
     57 H3B        4.6819   13.6215    0.9696 H         1 RES1    0.0000
     58 C7B        5.9182   11.9354    1.2010 C.2       1 RES1    0.0000
     59 C8B        5.6420   10.7683    2.0654 C.2       1 RES1    0.0000
     60 C9B       -1.2218   12.0541    5.5701 C.3       1 RES1    0.0000
     61 C10B      -2.2157   10.9352    5.2380 C.3       1 RES1    0.0000
     62 H4B       -1.8839    9.9860    5.5004 H         1 RES1    0.0000
     63 H5B       -3.0859   11.1149    5.7091 H         1 RES1    0.0000
     64 H6B       -2.3841   10.9142    4.2198 H         1 RES1    0.0000
     65 C11B      -0.9246   12.0956    7.0795 C.3       1 RES1    0.0000
     66 H7B       -0.5474   11.2558    7.3900 H         1 RES1    0.0000
     67 H8B       -0.2437   12.7956    7.2992 H         1 RES1    0.0000
     68 H9B       -1.7630   12.2592    7.5552 H         1 RES1    0.0000
     69 C12B      -1.8412   13.4004    5.1722 C.3       1 RES1    0.0000
     70 H10B      -2.0670   13.4189    4.2143 H         1 RES1    0.0000
     71 H11B      -2.6803   13.4614    5.6781 H         1 RES1    0.0000
     72 H12B      -1.1855   14.1889    5.3856 H         1 RES1    0.0000
     73 C13B       7.0946   12.1253    0.2732 C.3       1 RES1    0.0000
     74 C14B       8.4006   12.1417    1.0781 C.3       1 RES1    0.0000
     75 H13B       8.4055   12.8883    1.7554 H         1 RES1    0.0000
     76 H14B       8.5895   11.2500    1.5048 H         1 RES1    0.0000
     77 H15B       9.1978   12.3576    0.4460 H         1 RES1    0.0000
     78 C15B       7.1246   10.9787   -0.7554 C.3       1 RES1    0.0000
     79 H16B       7.8617   11.1361   -1.4575 H         1 RES1    0.0000
     80 H17B       7.3319   10.0555   -0.2870 H         1 RES1    0.0000
     81 H18B       6.2734   10.9316   -1.2333 H         1 RES1    0.0000
     82 C16B       6.9612   13.4602   -0.4684 C.3       1 RES1    0.0000
     83 H19B       7.7225   13.5714   -1.0953 H         1 RES1    0.0000
     84 H20B       6.1616   13.4807   -1.0239 H         1 RES1    0.0000
     85 H21B       6.9483   14.2892    0.1474 H         1 RES1    0.0000
@<TRIPOS>BOND
     1    1    5 1
     2    2    7 1
     3    3    4 1
     4    5   11 1
     5    6   12 1
     6    7    3 1
     7    8    7 1
     8    9    8 1
     9   10    9 1
    10   11    3 1
    11   12    5 1
    12   13   12 1
    13   14   13 1
    14   15   13 1
    15   16    6 1
    16   17    8 1
    17   18   17 1
    18   19   18 1
    19   20   18 1
    20   21   18 1
    21   22   17 1
    22   23   22 1
    23   24   22 1
    24   25   22 1
    25   26   17 1
    26   27   26 1
    27   28   26 1
    28   29   26 1
    29   30   15 1
    30   31   30 1
    31   32   31 1
    32   33   31 1
    33   34   31 1
    34   35   30 1
    35   36   35 1
    36   37   35 1
    37   38   35 1
    38   39   30 1
    39   40   39 1
    40   41   39 1
    41   42   39 1
    42   44   48 1
    43   45   16 1
    44   46   47 1
    45   48   54 1
    46   49   55 1
    47   50   45 1
    48   51   50 1
    49   52   51 1
    50   53   52 1
    51   54   46 1
    52   55   48 1
    53   56   55 1
    54   57   56 1
    55   58   56 1
    56   59    2 1
    57   60   51 1
    58   61   60 1
    59   62   61 1
    60   63   61 1
    61   64   61 1
    62   65   60 1
    63   66   65 1
    64   67   65 1
    65   68   65 1
    66   69   60 1
    67   70   69 1
    68   71   69 1
    69   72   69 1
    70   73   58 1
    71   74   73 1
    72   75   74 1
    73   76   74 1
    74   77   74 1
    75   78   73 1
    76   79   78 1
    77   80   78 1
    78   81   78 1
    79   82   73 1
    80   83   82 1
    81   84   82 1
    82   85   82 1
    83    9   11 1
    84   15   16 1
    85   46   50 1
    86   49   59 1
    87   52   54 1
    88   58   59 1
@<TRIPOS>SUBSTRUCTURE
     1 RES1 1
     2 SUP2 43

@<TRIPOS>CRYSIN
  10.1923   19.2967    8.3331  90.0000 111.4316  90.0000  14 1

