# MOL2 file generated by ConQuest
# Please check atom types

@<TRIPOS>MOLECULE
NEDLEO
    41    43     1
SMALL
NO_CHARGES
****
Generated from CSD

@<TRIPOS>ATOM
      1 C1         2.9168   13.0550    1.0472 C.3       1 RES1    0.0000
      2 O1         1.9238   13.9117    0.4886 O.3       1 RES1    0.0000
      3 C2         3.2475   13.4078    2.4960 C.3       1 RES1    0.0000
      4 H1         3.9122   12.8019    2.8290 H         1 RES1    0.0000
      5 H2         2.4532   13.3370    3.0317 H         1 RES1    0.0000
      6 H3         3.5828   14.3064    2.5383 H         1 RES1    0.0000
      7 C3         4.1412   13.0562    0.1387 C.3       1 RES1    0.0000
      8 H4         4.8140   12.4779    0.5067 H         1 RES1    0.0000
      9 H5         4.4891   13.9477    0.0700 H         1 RES1    0.0000
     10 H6         3.8926   12.7419   -0.7335 H         1 RES1    0.0000
     11 N1        -0.4532    7.9643   -2.4237 N.1       1 RES1    0.0000
     12 O2         2.3608   11.7172    1.0266 O.3       1 RES1    0.0000
     13 N2         0.5226    9.3932    0.9699 N.3       1 RES1    0.0000
     14 C4         0.8463   13.1918   -0.0326 C.3       1 RES1    0.0000
     15 H7         0.7179   13.4042   -0.9699 H         1 RES1    0.0000
     16 H8         0.0324   13.4054    0.4488 H         1 RES1    0.0000
     17 O3        -0.8023    8.6758    0.9494 O.3       1 RES1    0.0000
     18 C5         1.2035   11.6645    0.1411 C.3       1 RES1    0.0000
     19 H9         1.4682   11.2541   -0.7359 H         1 RES1    0.0000
     20 C6         0.0740   10.8222    0.7359 C.3       1 RES1    0.0000
     21 H10       -0.2197   11.2061    1.5683 H         1 RES1    0.0000
     22 C7        -1.1041   10.7058   -0.2630 C.3       1 RES1    0.0000
     23 H11       -0.8416   10.9938   -1.1509 H         1 RES1    0.0000
     24 H12       -1.8659   11.2289    0.0302 H         1 RES1    0.0000
     25 C8        -1.4208    9.1893   -0.2352 C.3       1 RES1    0.0000
     26 H13       -2.4394    8.9385   -0.1689 H         1 RES1    0.0000
     27 C9        -0.8497    8.4826   -1.4622 C.1       1 RES1    0.0000
     28 C10        1.0208    9.1725    2.3513 C.3       1 RES1    0.0000
     29 H14        0.2740    9.2397    2.9677 H         1 RES1    0.0000
     30 H15        1.6486    9.8780    2.5733 H         1 RES1    0.0000
     31 C11        1.7087    7.8143    2.5527 C.ar      1 RES1    0.0000
     32 C12        1.4000    6.6769    1.7710 C.ar      1 RES1    0.0000
     33 H16        0.7619    6.7345    1.0966 H         1 RES1    0.0000
     34 C13        2.0694    5.4399    2.0159 C.ar      1 RES1    0.0000
     35 H17        1.8648    4.6924    1.5020 H         1 RES1    0.0000
     36 C14        3.0336    5.3463    3.0269 C.ar      1 RES1    0.0000
     37 H18        3.4614    4.5364    3.1897 H         1 RES1    0.0000
     38 C15        3.3515    6.4825    3.7953 C.ar      1 RES1    0.0000
     39 H19        4.0082    6.4345    4.4516 H         1 RES1    0.0000
     40 C16        2.6752    7.6811    3.5673 C.ar      1 RES1    0.0000
     41 H20        2.8694    8.4166    4.1030 H         1 RES1    0.0000
@<TRIPOS>BOND
     1    1    2 1
     2    2   14 1
     3    3    1 1
     4    4    3 1
     5    5    3 1
     6    6    3 1
     7    7    1 1
     8    8    7 1
     9    9    7 1
    10   10    7 1
    11   11   27 3
    12   12    1 1
    13   13   17 1
    14   14   15 1
    15   16   14 1
    16   17   25 1
    17   18   12 1
    18   19   18 1
    19   20   13 1
    20   21   20 1
    21   22   20 1
    22   23   22 1
    23   24   22 1
    24   25   22 1
    25   26   25 1
    26   27   25 1
    27   28   13 1
    28   29   28 1
    29   30   28 1
    30   31   28 1
    31   32   31 ar
    32   33   32 1
    33   34   32 ar
    34   35   34 1
    35   36   34 ar
    36   37   36 1
    37   38   36 ar
    38   39   38 1
    39   40   31 ar
    40   41   40 1
    41   14   18 1
    42   18   20 1
    43   38   40 ar
@<TRIPOS>SUBSTRUCTURE
     1 RES1 1

@<TRIPOS>CRYSIN
  11.5610   11.9980   12.0640  90.0000  90.0000  90.0000  19 1

