# MOL2 file generated by ConQuest
# Please check atom types

@<TRIPOS>MOLECULE
NEDSOH
    47    48     1
SMALL
NO_CHARGES
****
Generated from CSD

@<TRIPOS>ATOM
      1 C1        -2.3903    4.8164   12.4087 C.ar      1 RES1    0.0000
      2 C2        -3.5925    5.5407   12.4162 C.ar      1 RES1    0.0000
      3 H1        -4.3899    5.1482   12.0164 H         1 RES1    0.0000
      4 C3        -3.6438    6.8185   12.9672 C.ar      1 RES1    0.0000
      5 H2        -4.4825    7.3330   12.9434 H         1 RES1    0.0000
      6 C4        -2.4966    7.3742   13.5379 C.ar      1 RES1    0.0000
      7 C5        -1.3096    6.6443   13.5642 C.ar      1 RES1    0.0000
      8 H3        -0.4873    7.0221   13.9641 H         1 RES1    0.0000
      9 C6        -1.2514    5.3837   13.0028 C.ar      1 RES1    0.0000
     10 H4        -0.4308    4.8933   12.9827 H         1 RES1    0.0000
     11 C7        -2.2751    3.5296   11.7348 C.2       1 RES1    0.0000
     12 N1        -1.1388    3.0486   11.1759 N.pl3     1 RES1    0.0000
     13 N2        -3.2649    2.6231   11.5251 N.3       1 RES1    0.0000
     14 O1        -0.0140    3.6600   11.0675 O.2       1 RES1    0.0000
     15 O2        -4.4755    2.7174   11.9311 O.2       1 RES1    0.0000
     16 C8        -1.2799    1.6167   10.7596 C.3       1 RES1    0.0000
     17 C9        -2.8220    1.5296   10.5834 C.3       1 RES1    0.0000
     18 C10       -0.7425    0.7817   11.9273 C.3       1 RES1    0.0000
     19 H5         0.2073    1.0524   12.1038 H         1 RES1    0.0000
     20 H6        -0.7544   -0.1739   11.6720 H         1 RES1    0.0000
     21 H7        -1.2924    0.9125   12.7268 H         1 RES1    0.0000
     22 C11       -0.4663    1.3516    9.5074 C.3       1 RES1    0.0000
     23 H8        -0.6369    2.0229    8.8126 H         1 RES1    0.0000
     24 H9        -0.6689    0.4348    9.1937 H         1 RES1    0.0000
     25 H10        0.4923    1.3932    9.7142 H         1 RES1    0.0000
     26 C12       -3.2841    1.9551    9.1869 C.3       1 RES1    0.0000
     27 H11       -4.2815    2.0129    9.1887 H         1 RES1    0.0000
     28 H12       -3.0135    1.2613    8.5302 H         1 RES1    0.0000
     29 H13       -2.8433    2.8294    8.8632 H         1 RES1    0.0000
     30 C13       -3.4404    0.2011   10.9747 C.3       1 RES1    0.0000
     31 H14       -3.2117   -0.0430   11.9037 H         1 RES1    0.0000
     32 H15       -3.0829   -0.5077   10.3626 H         1 RES1    0.0000
     33 H16       -4.4371    0.2489   10.8438 H         1 RES1    0.0000
     34 O3        -2.4670    8.6753   13.9881 O.3       1 RES1    0.0000
     35 C14       -2.8925    8.9711   15.3648 C.3       1 RES1    0.0000
     36 C15       -2.2653   10.3308   15.6265 C.3       1 RES1    0.0000
     37 H17       -1.3114   10.2614   15.5736 H         1 RES1    0.0000
     38 H18       -2.5174   10.6731   16.5208 H         1 RES1    0.0000
     39 H19       -2.5865   11.0139   14.9746 H         1 RES1    0.0000
     40 C16       -2.3679    7.9309   16.3436 C.3       1 RES1    0.0000
     41 H20       -2.7280    7.0181   16.1308 H         1 RES1    0.0000
     42 H21       -2.6529    8.1795   17.2452 H         1 RES1    0.0000
     43 H22       -1.3757    7.8757   16.3106 H         1 RES1    0.0000
     44 C17       -4.4101    9.0554   15.3978 C.3       1 RES1    0.0000
     45 H23       -4.7302    9.7147   14.7163 H         1 RES1    0.0000
     46 H24       -4.7204    9.3409   16.2967 H         1 RES1    0.0000
     47 H25       -4.7917    8.1665   15.2000 H         1 RES1    0.0000
@<TRIPOS>BOND
     1    1    2 ar
     2    2    3 1
     3    4    2 ar
     4    5    4 1
     5    6    4 ar
     6    7    6 ar
     7    8    7 1
     8    9    1 ar
     9   10    9 1
    10   11    1 1
    11   12   11 2
    12   13   11 1
    13   14   12 1
    14   15   13 1
    15   16   12 1
    16   17   13 1
    17   18   16 1
    18   19   18 1
    19   20   18 1
    20   21   18 1
    21   22   16 1
    22   23   22 1
    23   24   22 1
    24   25   22 1
    25   26   17 1
    26   27   26 1
    27   28   26 1
    28   29   26 1
    29   30   17 1
    30   31   30 1
    31   32   30 1
    32   33   30 1
    33   34    6 1
    34   35   34 1
    35   36   35 1
    36   37   36 1
    37   38   36 1
    38   39   36 1
    39   40   35 1
    40   41   40 1
    41   42   40 1
    42   43   40 1
    43   44   35 1
    44   45   44 1
    45   46   44 1
    46   47   44 1
    47    7    9 ar
    48   16   17 1
@<TRIPOS>SUBSTRUCTURE
     1 RES1 1

@<TRIPOS>CRYSIN
  13.2560    9.9945   13.9180  90.0000 114.5130  90.0000 231 1

