# MOL2 file generated by ConQuest
# Please check atom types

@<TRIPOS>MOLECULE
NEFGOX
    36    38     1
SMALL
NO_CHARGES
****
Generated from CSD

@<TRIPOS>ATOM
      1 O1         0.6391    3.3332   17.9299 O.3       1 RES1    0.0000
      2 H1         1.2520    3.7743   18.2502 H         1 RES1    0.0000
      3 O2         0.3715    5.1881   16.7089 O.2       1 RES1    0.0000
      4 O3        -0.6274    4.5783   12.8264 O.3       1 RES1    0.0000
      5 N1         0.3705    5.0232   11.9207 N.2       1 RES1    0.0000
      6 N2         0.0634    6.5385   13.5806 N.2       1 RES1    0.0000
      7 C1         4.7060    9.6029    9.9710 C.3       1 RES1    0.0000
      8 H2         4.5730   10.5096   10.2568 H         1 RES1    0.0000
      9 H3         4.6180    9.5520    9.0159 H         1 RES1    0.0000
     10 H4         5.5846    9.3123   10.2264 H         1 RES1    0.0000
     11 C2         0.0409    4.0325   16.9791 C.2       1 RES1    0.0000
     12 C3        -0.7368    5.5394   13.7667 C.2       1 RES1    0.0000
     13 C4        -1.8649    3.9038   15.3046 C.ar      1 RES1    0.0000
     14 C5        -1.0505    3.2976   16.2802 C.ar      1 RES1    0.0000
     15 C6         0.7276    6.1828   12.4167 C.2       1 RES1    0.0000
     16 C7        -1.2475    1.9489   16.6073 C.ar      1 RES1    0.0000
     17 H5        -0.7165    1.5544   17.2600 H         1 RES1    0.0000
     18 C8        -2.8474    3.1200   14.6901 C.ar      1 RES1    0.0000
     19 H6        -3.3975    3.5078   14.0494 H         1 RES1    0.0000
     20 C9        -3.0243    1.7868   15.0069 C.ar      1 RES1    0.0000
     21 H7        -3.6793    1.2873   14.5741 H         1 RES1    0.0000
     22 C10        1.7592    7.0334   11.8057 C.ar      1 RES1    0.0000
     23 C11       -1.7433    5.3514   14.8471 C.3       1 RES1    0.0000
     24 H8        -2.6083    5.6550   14.5293 H         1 RES1    0.0000
     25 H9        -1.4975    5.9023   15.6073 H         1 RES1    0.0000
     26 C12       -2.2210    1.1949   15.9729 C.ar      1 RES1    0.0000
     27 H10       -2.3358    0.2980   16.1928 H         1 RES1    0.0000
     28 C13        3.6733    8.7132   10.6194 C.ar      1 RES1    0.0000
     29 C14        2.0206    8.2906   12.3381 C.ar      1 RES1    0.0000
     30 H11        1.5620    8.5808   13.0932 H         1 RES1    0.0000
     31 C15        2.9704    9.1159   11.7395 C.ar      1 RES1    0.0000
     32 H12        3.1345    9.9572   12.1012 H         1 RES1    0.0000
     33 C16        3.4098    7.4490   10.1062 C.ar      1 RES1    0.0000
     34 H13        3.8730    7.1591    9.3543 H         1 RES1    0.0000
     35 C17        2.4704    6.6091   10.6898 C.ar      1 RES1    0.0000
     36 H14        2.3183    5.7630   10.3338 H         1 RES1    0.0000
@<TRIPOS>BOND
     1    1    2 1
     2    3   11 2
     3    4    5 1
     4    5   15 2
     5    6   12 2
     6    7    8 1
     7    9    7 1
     8   10    7 1
     9   11    1 1
    10   12    4 1
    11   13   14 ar
    12   14   11 1
    13   15    6 1
    14   16   14 ar
    15   17   16 1
    16   18   13 ar
    17   19   18 1
    18   20   18 ar
    19   21   20 1
    20   22   15 1
    21   23   12 1
    22   24   23 1
    23   25   23 1
    24   26   16 ar
    25   27   26 1
    26   28    7 1
    27   29   22 ar
    28   30   29 1
    29   31   28 ar
    30   32   31 1
    31   33   28 ar
    32   34   33 1
    33   35   22 ar
    34   36   35 1
    35   13   23 1
    36   20   26 ar
    37   29   31 ar
    38   33   35 ar
@<TRIPOS>SUBSTRUCTURE
     1 RES1 1

@<TRIPOS>CRYSIN
   5.0752    8.1272   18.1626  97.3900  93.6520 107.4050   2 1

