# MOL2 file generated by ConQuest
# Please check atom types

@<TRIPOS>MOLECULE
NEGLUG
    29    33     1
SMALL
NO_CHARGES
****
Generated from CSD

@<TRIPOS>ATOM
      1 N1        16.0290    5.3779    7.8851 N.2       1 RES1    0.0000
      2 N2        20.8676    8.2210    5.3759 N.am      1 RES1    0.0000
      3 N3        14.8251   10.3619    5.4767 N.am      1 RES1    0.0000
      4 O1        15.3931    4.2674    7.3314 O.3       1 RES1    0.0000
      5 O2        17.3877    7.5725    8.6524 O.2       1 RES1    0.0000
      6 O3        21.1638   10.0709    4.0461 O.2       1 RES1    0.0000
      7 O4        20.0259    6.6739    6.8531 O.2       1 RES1    0.0000
      8 O5        15.7044   11.9881    4.1280 O.2       1 RES1    0.0000
      9 O6        14.5269    8.6612    6.9882 O.2       1 RES1    0.0000
     10 C1        14.6892    3.5707    8.3657 C.3       1 RES1    0.0000
     11 C2        16.5348    6.1346    6.9527 C.2       1 RES1    0.0000
     12 C3        17.1783    7.3851    7.4798 C.2       1 RES1    0.0000
     13 C4        17.5614    8.4693    6.4644 C.3       1 RES1    0.0000
     14 C5        19.0352    8.9049    6.6992 C.3       1 RES1    0.0000
     15 C6        19.9976    7.7799    6.3625 C.2       1 RES1    0.0000
     16 C7        21.9394    7.4152    4.8046 C.3       1 RES1    0.0000
     17 C8        20.5713    9.5043    4.9397 C.2       1 RES1    0.0000
     18 C9        19.4107   10.0327    5.7380 C.3       1 RES1    0.0000
     19 C10       16.7084    9.7471    6.7512 C.3       1 RES1    0.0000
     20 C11       15.2327    9.4888    6.4677 C.2       1 RES1    0.0000
     21 C12       13.4626   10.3610    4.9208 C.3       1 RES1    0.0000
     22 C13       15.8252   11.1759    5.0139 C.2       1 RES1    0.0000
     23 C14       17.0971   10.8658    5.7790 C.3       1 RES1    0.0000
     24 C15       18.2049   10.3692    4.8300 C.3       1 RES1    0.0000
     25 C16       17.7425    9.1023    4.1468 C.2       1 RES1    0.0000
     26 C17       17.6953    9.0504    2.6487 C.3       1 RES1    0.0000
     27 C18       17.3953    8.1155    4.9984 C.2       1 RES1    0.0000
     28 C19       16.8877    6.8112    4.6341 C.2       1 RES1    0.0000
     29 C20       16.4763    5.9017    5.5254 C.2       1 RES1    0.0000
@<TRIPOS>BOND
     1    1    4 1
     2    2   15 1
     3    3   20 1
     4    4   10 1
     5    5   12 2
     6    6   17 2
     7    7   15 2
     8    8   22 2
     9    9   20 2
    10   11    1 2
    11   12   11 1
    12   13   12 1
    13   14   13 1
    14   15   14 1
    15   16    2 1
    16   17    2 1
    17   18   14 1
    18   19   13 1
    19   20   19 1
    20   21    3 1
    21   22    3 1
    22   23   19 1
    23   24   18 1
    24   25   24 1
    25   26   25 1
    26   27   13 1
    27   28   27 1
    28   29   11 1
    29   17   18 1
    30   22   23 1
    31   23   24 1
    32   25   27 2
    33   28   29 2
@<TRIPOS>SUBSTRUCTURE
     1 RES1 1

@<TRIPOS>CRYSIN
  18.8710    9.0950   11.0730  90.0000  90.0000  90.0000  19 1

