# MOL2 file generated by ConQuest
# Please check atom types

@<TRIPOS>MOLECULE
NEGPIA
    59    64     1
SMALL
NO_CHARGES
****
Generated from CSD

@<TRIPOS>ATOM
      1 O1         4.0817    5.7265    8.5973 O.3       1 RES1    0.0000
      2 O2         5.0674    3.7044    8.9045 O.3       1 RES1    0.0000
      3 O3         2.9118    2.5744   11.5579 O.3       1 RES1    0.0000
      4 O4         2.2172    4.4579    9.0058 O.3       1 RES1    0.0000
      5 O5        -0.3536    4.8794   10.4995 O.3       1 RES1    0.0000
      6 H1         0.1655    5.4880   10.3207 H         1 RES1    0.0000
      7 O6         1.0763    0.3539   10.1235 O.2       1 RES1    0.0000
      8 N1         0.3799    3.7361   10.9018 N.3       1 RES1    0.0000
      9 N2        -1.0805    2.7292    6.5778 N.3       1 RES1    0.0000
     10 C1         3.3615    5.0539    9.5650 C.3       1 RES1    0.0000
     11 H2         3.1254    5.6463   10.3090 H         1 RES1    0.0000
     12 C2         4.2342    3.9127   10.0292 C.3       1 RES1    0.0000
     13 H3         4.7410    4.1308   10.8401 H         1 RES1    0.0000
     14 C3         3.3235    2.7159   10.2131 C.3       1 RES1    0.0000
     15 H4         3.7659    1.8983    9.9039 H         1 RES1    0.0000
     16 C4         2.1403    3.0606    9.3016 C.3       1 RES1    0.0000
     17 H5         2.2588    2.5709    8.4612 H         1 RES1    0.0000
     18 C5         0.7216    2.7658    9.8192 C.3       1 RES1    0.0000
     19 C6         0.6518    1.4065   10.5698 C.2       1 RES1    0.0000
     20 C7        -0.0326    1.6710   11.8247 C.ar      1 RES1    0.0000
     21 C8        -0.5379    0.7972   12.7853 C.ar      1 RES1    0.0000
     22 H6        -0.3737   -0.1161   12.7308 H         1 RES1    0.0000
     23 C9        -1.2831    1.3171   13.8124 C.ar      1 RES1    0.0000
     24 H7        -1.6349    0.7514   14.4617 H         1 RES1    0.0000
     25 C10       -1.5140    2.6842   13.8878 C.ar      1 RES1    0.0000
     26 H8        -2.0294    3.0135   14.5890 H         1 RES1    0.0000
     27 C11       -1.0109    3.5658   12.9653 C.ar      1 RES1    0.0000
     28 H9        -1.1785    4.4784   13.0294 H         1 RES1    0.0000
     29 C12       -0.2407    3.0444   11.9293 C.ar      1 RES1    0.0000
     30 C13        0.0300    2.8404    7.3599 C.2       1 RES1    0.0000
     31 H10        0.8910    2.9684    7.0328 H         1 RES1    0.0000
     32 C14       -0.2811    2.7398    8.6827 C.2       1 RES1    0.0000
     33 C15       -1.7094    2.5463    8.7442 C.ar      1 RES1    0.0000
     34 C16       -2.6678    2.3338    9.7494 C.ar      1 RES1    0.0000
     35 H11       -2.4144    2.3254   10.6440 H         1 RES1    0.0000
     36 C17       -3.9783    2.1389    9.3987 C.ar      1 RES1    0.0000
     37 H12       -4.6093    1.9876   10.0662 H         1 RES1    0.0000
     38 C18       -4.3906    2.1621    8.0626 C.ar      1 RES1    0.0000
     39 H13       -5.2905    2.0418    7.8613 H         1 RES1    0.0000
     40 C19       -3.5021    2.3577    7.0484 C.ar      1 RES1    0.0000
     41 H14       -3.7764    2.3648    6.1602 H         1 RES1    0.0000
     42 C20       -2.1670    2.5470    7.3958 C.ar      1 RES1    0.0000
     43 C21        5.2154    4.6887    6.7472 C.3       1 RES1    0.0000
     44 H15        5.3162    5.5161    6.2706 H         1 RES1    0.0000
     45 H16        4.3852    4.2757    6.5004 H         1 RES1    0.0000
     46 H17        5.9427    4.1019    6.5238 H         1 RES1    0.0000
     47 C22        6.4613    5.6590    8.6872 C.3       1 RES1    0.0000
     48 H18        6.4032    5.8314    9.6299 H         1 RES1    0.0000
     49 H19        6.5487    6.4906    8.2158 H         1 RES1    0.0000
     50 H20        7.2250    5.1074    8.5093 H         1 RES1    0.0000
     51 C23        3.7841    1.7583   12.3217 C.3       1 RES1    0.0000
     52 H21        4.6604    2.1530   12.3360 H         1 RES1    0.0000
     53 H22        3.8344    0.8851   11.9257 H         1 RES1    0.0000
     54 H23        3.4510    1.6851   13.2190 H         1 RES1    0.0000
     55 C24       -1.1010    2.7081    5.1237 C.3       1 RES1    0.0000
     56 H24       -1.8550    3.2119    4.8072 H         1 RES1    0.0000
     57 H25       -1.1716    1.8005    4.8175 H         1 RES1    0.0000
     58 H26       -0.2914    3.0972    4.7864 H         1 RES1    0.0000
     59 C25        5.2244    4.9575    8.2340 C.3       1 RES1    0.0000
@<TRIPOS>BOND
     1    1   10 1
     2    2   12 1
     3    3   14 1
     4    4   10 1
     5    5    6 1
     6    7   19 2
     7    8    5 1
     8    9   30 1
     9   10   11 1
    10   12   10 1
    11   13   12 1
    12   14   12 1
    13   15   14 1
    14   16    4 1
    15   17   16 1
    16   18    8 1
    17   19   18 1
    18   20   19 1
    19   21   20 ar
    20   22   21 1
    21   23   21 ar
    22   24   23 1
    23   25   23 ar
    24   26   25 1
    25   27   25 ar
    26   28   27 1
    27   29    8 1
    28   30   31 1
    29   32   18 1
    30   33   32 1
    31   34   33 ar
    32   35   34 1
    33   36   34 ar
    34   37   36 1
    35   38   36 ar
    36   39   38 1
    37   40   38 ar
    38   41   40 1
    39   42    9 1
    40   43   44 1
    41   45   43 1
    42   46   43 1
    43   47   48 1
    44   49   47 1
    45   50   47 1
    46   51    3 1
    47   52   51 1
    48   53   51 1
    49   54   51 1
    50   55    9 1
    51   56   55 1
    52   57   55 1
    53   58   55 1
    54   59    1 1
    55    2   59 1
    56   14   16 1
    57   16   18 1
    58   20   29 ar
    59   27   29 ar
    60   30   32 2
    61   33   42 ar
    62   40   42 ar
    63   43   59 1
    64   47   59 1
@<TRIPOS>SUBSTRUCTURE
     1 RES1 1

@<TRIPOS>CRYSIN
  12.1800    7.0359   13.2935  90.0000 102.3620  90.0000   4 1

