# MOL2 file generated by ConQuest
# Please check atom types

@<TRIPOS>MOLECULE
NEGQEX
    67    72     1
SMALL
NO_CHARGES
****
Generated from CSD

@<TRIPOS>ATOM
      1 C1         2.8040    1.2429   12.0401 C.ar      1 RES1    0.0000
      2 C2         2.6507    0.4586   13.1524 C.ar      1 RES1    0.0000
      3 H1         3.3448   -0.0809   13.4592 H         1 RES1    0.0000
      4 C3         1.4263    0.4952   13.8092 C.ar      1 RES1    0.0000
      5 H2         1.2869   -0.0237   14.5668 H         1 RES1    0.0000
      6 C4         0.4330    1.2979   13.3339 C.ar      1 RES1    0.0000
      7 C5         0.5785    2.0738   12.2050 C.ar      1 RES1    0.0000
      8 H3        -0.1170    2.6156   11.9085 H         1 RES1    0.0000
      9 C6         1.7791    2.0296   11.5250 C.ar      1 RES1    0.0000
     10 C7         2.2559    2.7087   10.2758 C.3       1 RES1    0.0000
     11 C8         3.7086    2.1898   10.1811 C.2       1 RES1    0.0000
     12 C9         5.1992    0.6501   11.4409 C.3       1 RES1    0.0000
     13 H4         5.7668    0.7935   10.6667 H         1 RES1    0.0000
     14 H5         5.0148   -0.3006   11.4968 H         1 RES1    0.0000
     15 C10        5.9503    1.0743   12.6805 C.ar      1 RES1    0.0000
     16 C11        6.2692    0.1801   13.6427 C.ar      1 RES1    0.0000
     17 H6         5.9871   -0.7027   13.5621 H         1 RES1    0.0000
     18 C12        7.0033    0.5585   14.7414 C.ar      1 RES1    0.0000
     19 H7         7.2147   -0.0687   15.3970 H         1 RES1    0.0000
     20 C13        7.4283    1.8610   14.8801 C.ar      1 RES1    0.0000
     21 H8         7.9335    2.1158   15.6163 H         1 RES1    0.0000
     22 C14        7.0961    2.7758   13.9179 C.ar      1 RES1    0.0000
     23 H9         7.3577    3.6624   14.0141 H         1 RES1    0.0000
     24 C15        6.3739    2.3912   12.8036 C.ar      1 RES1    0.0000
     25 H10        6.1718    3.0108   12.1413 H         1 RES1    0.0000
     26 C16        2.3151    4.2865   10.3221 C.3       1 RES1    0.0000
     27 C17        2.5003    4.6986    8.8453 C.3       1 RES1    0.0000
     28 H11        2.2260    5.6180    8.7043 H         1 RES1    0.0000
     29 H12        3.4249    4.5971    8.5700 H         1 RES1    0.0000
     30 C18        1.5965    3.7364    8.0905 C.3       1 RES1    0.0000
     31 H13        0.7110    4.1332    7.9592 H         1 RES1    0.0000
     32 C19        2.1838    3.3068    6.7620 C.2       1 RES1    0.0000
     33 C20        2.1959    1.3971    8.0693 C.2       1 RES1    0.0000
     34 C21        1.4883    2.4477    8.9173 C.3       1 RES1    0.0000
     35 C22        0.0428    1.9777    9.0981 C.3       1 RES1    0.0000
     36 H14       -0.4404    2.6224    9.6195 H         1 RES1    0.0000
     37 H15        0.0350    1.1300    9.5479 H         1 RES1    0.0000
     38 H16       -0.3746    1.8861    8.2389 H         1 RES1    0.0000
     39 C23        3.4277    4.7314   11.1947 C.1       1 RES1    0.0000
     40 C24        1.0668    4.8634   10.8658 C.1       1 RES1    0.0000
     41 C25        2.9740    1.1598    5.7265 C.ar      1 RES1    0.0000
     42 C26        2.1665    0.1930    5.1711 C.ar      1 RES1    0.0000
     43 C27        2.6863   -0.5410    4.1329 C.ar      1 RES1    0.0000
     44 H17        2.1558   -1.1857    3.7234 H         1 RES1    0.0000
     45 C28        3.9553   -0.3517    3.6876 C.ar      1 RES1    0.0000
     46 H18        4.2905   -0.8881    3.0051 H         1 RES1    0.0000
     47 C29        4.7467    0.6295    4.2380 C.ar      1 RES1    0.0000
     48 H19        5.6035    0.7744    3.9046 H         1 RES1    0.0000
     49 C30        4.2675    1.4116    5.2987 C.ar      1 RES1    0.0000
     50 C31        5.1341    2.4660    5.9006 C.3       1 RES1    0.0000
     51 H20        4.8256    3.3320    5.6231 H         1 RES1    0.0000
     52 H21        6.0406    2.3409    5.6097 H         1 RES1    0.0000
     53 H22        5.0943    2.4042    6.8583 H         1 RES1    0.0000
     54 C32        0.7602   -0.0595    5.6186 C.3       1 RES1    0.0000
     55 H23        0.7722   -0.5455    6.4465 H         1 RES1    0.0000
     56 H24        0.2996   -0.5730    4.9518 H         1 RES1    0.0000
     57 H25        0.3092    0.7783    5.7462 H         1 RES1    0.0000
     58 N1         3.9393    1.3604   11.2346 N.am      1 RES1    0.0000
     59 N2        -0.8272    1.3543   14.0618 N.pl3     1 RES1    0.0000
     60 N3         4.2858    5.0625   11.8369 N.1       1 RES1    0.0000
     61 N4         0.1255    5.3036   11.2977 N.1       1 RES1    0.0000
     62 N5         2.4484    1.9411    6.8227 N.am      1 RES1    0.0000
     63 O1         4.5151    2.4820    9.3187 O.2       1 RES1    0.0000
     64 O2         2.4444    0.2732    8.4105 O.2       1 RES1    0.0000
     65 O3         2.3766    4.0065    5.8106 O.2       1 RES1    0.0000
     66 O4        -1.0638    0.4990   14.8734 O.2       1 RES1    0.0000
     67 O5        -1.5819    2.2730   13.8356 O.2       1 RES1    0.0000
@<TRIPOS>BOND
     1    1    2 ar
     2    2    3 1
     3    4    2 ar
     4    5    4 1
     5    6    4 ar
     6    7    6 ar
     7    8    7 1
     8    9    1 ar
     9   10    9 1
    10   11   10 1
    11   12   13 1
    12   14   12 1
    13   15   12 1
    14   16   15 ar
    15   17   16 1
    16   18   16 ar
    17   19   18 1
    18   20   18 ar
    19   21   20 1
    20   22   20 ar
    21   23   22 1
    22   24   15 ar
    23   25   24 1
    24   26   10 1
    25   27   26 1
    26   28   27 1
    27   29   27 1
    28   30   27 1
    29   31   30 1
    30   32   30 1
    31   33   34 1
    32   34   10 1
    33   35   34 1
    34   36   35 1
    35   37   35 1
    36   38   35 1
    37   39   26 1
    38   40   26 1
    39   41   42 ar
    40   42   43 ar
    41   43   44 1
    42   45   43 ar
    43   46   45 1
    44   47   45 ar
    45   48   47 1
    46   49   41 ar
    47   50   49 1
    48   51   50 1
    49   52   50 1
    50   53   50 1
    51   54   42 1
    52   55   54 1
    53   56   54 1
    54   57   54 1
    55   58    1 1
    56   59    6 1
    57   60   39 3
    58   61   40 3
    59   62   32 1
    60   63   11 2
    61   64   33 2
    62   65   32 2
    63   66   59 2
    64   67   59 2
    65    7    9 ar
    66   11   58 1
    67   12   58 1
    68   22   24 ar
    69   30   34 1
    70   33   62 1
    71   41   62 1
    72   47   49 ar
@<TRIPOS>SUBSTRUCTURE
     1 RES1 1

@<TRIPOS>CRYSIN
  16.7120    7.6300   22.5610  90.0000  97.3410  90.0000  14 1

