# MOL2 file generated by ConQuest
# Please check atom types

@<TRIPOS>MOLECULE
NEGWOM
    43    45     1
SMALL
NO_CHARGES
****
Generated from CSD

@<TRIPOS>ATOM
      1 O1         0.1076    3.9214    4.3388 O.2       1 RES1    0.0000
      2 N1        -0.0024    4.6252    5.3941 N.3       1 RES1    0.0000
      3 C1         0.0941    4.0332    6.7560 C.3       1 RES1    0.0000
      4 C2         0.1587    5.3125    7.5973 C.3       1 RES1    0.0000
      5 C3        -0.6125    6.3235    6.8094 C.3       1 RES1    0.0000
      6 C4        -0.1924    6.0881    5.3595 C.3       1 RES1    0.0000
      7 C5         1.3264    3.1553    6.8409 C.3       1 RES1    0.0000
      8 C6        -1.1608    3.2094    7.0862 C.ar      1 RES1    0.0000
      9 C7        -1.2838    2.6363    8.3411 C.ar      1 RES1    0.0000
     10 C8        -2.3648    1.8571    8.6761 C.ar      1 RES1    0.0000
     11 C9        -3.3743    1.6147    7.7703 C.ar      1 RES1    0.0000
     12 C10       -3.2742    2.2020    6.5263 C.ar      1 RES1    0.0000
     13 C11       -2.1824    2.9905    6.1835 C.ar      1 RES1    0.0000
     14 C12       -4.5377    0.7179    8.1178 C.3       1 RES1    0.0000
     15 C13       -1.2551    6.4447    4.3310 C.3       1 RES1    0.0000
     16 C14        1.1179    6.7942    5.0292 C.ar      1 RES1    0.0000
     17 C15        2.2447    6.1175    4.5842 C.ar      1 RES1    0.0000
     18 C16        3.4077    6.8119    4.2948 C.ar      1 RES1    0.0000
     19 C17        3.4882    8.1583    4.4316 C.ar      1 RES1    0.0000
     20 C18        2.3866    8.8468    4.8672 C.ar      1 RES1    0.0000
     21 C19        1.2114    8.1642    5.1535 C.ar      1 RES1    0.0000
     22 H1         1.0957    5.5667    7.6272 H         1 RES1    0.0000
     23 H2        -0.1857    5.1901    8.5078 H         1 RES1    0.0000
     24 H3        -0.4575    7.2379    7.0925 H         1 RES1    0.0000
     25 H4        -1.5332    6.1199    6.8723 H         1 RES1    0.0000
     26 H5         2.1211    3.6837    6.6364 H         1 RES1    0.0000
     27 H6         1.3865    2.8128    7.8002 H         1 RES1    0.0000
     28 H7         1.2357    2.3656    6.1646 H         1 RES1    0.0000
     29 H8        -0.6097    2.8010    8.9482 H         1 RES1    0.0000
     30 H9        -2.3425    1.4476    9.6087 H         1 RES1    0.0000
     31 H10       -3.9460    2.0360    5.8344 H         1 RES1    0.0000
     32 H11       -2.0872    3.4248    5.2840 H         1 RES1    0.0000
     33 H12       -4.3256    0.0471    8.7752 H         1 RES1    0.0000
     34 H13       -5.2454    1.2475    8.4292 H         1 RES1    0.0000
     35 H14       -4.8142    0.2707    7.3284 H         1 RES1    0.0000
     36 H15       -1.9847    5.9316    4.5606 H         1 RES1    0.0000
     37 H16       -0.9379    6.2140    3.3968 H         1 RES1    0.0000
     38 H17       -1.3997    7.4262    4.3876 H         1 RES1    0.0000
     39 H18        2.1685    5.0489    4.4348 H         1 RES1    0.0000
     40 H19        4.1618    6.2611    3.9630 H         1 RES1    0.0000
     41 H20        4.3098    8.6620    4.2461 H         1 RES1    0.0000
     42 H21        2.3083    9.8389    4.9695 H         1 RES1    0.0000
     43 H22        0.4451    8.6502    5.4412 H         1 RES1    0.0000
@<TRIPOS>BOND
     1    1    2 1
     2    2    3 1
     3    3    4 1
     4    4    5 1
     5    5    6 1
     6    6    2 1
     7    7    3 1
     8    8    3 1
     9    9    8 ar
    10   10    9 ar
    11   11   10 ar
    12   12   11 ar
    13   13    8 ar
    14   14   11 1
    15   15    6 1
    16   16    6 1
    17   17   16 ar
    18   18   17 ar
    19   19   18 ar
    20   20   19 ar
    21   21   16 ar
    22   22    4 1
    23   23    4 1
    24   24    5 1
    25   25    5 1
    26   26    7 1
    27   27    7 1
    28   28    7 1
    29   29    9 1
    30   30   10 1
    31   31   12 1
    32   32   13 1
    33   33   14 1
    34   34   14 1
    35   35   14 1
    36   36   15 1
    37   37   15 1
    38   38   15 1
    39   39   17 1
    40   40   18 1
    41   41   19 1
    42   42   20 1
    43   43   21 1
    44   12   13 ar
    45   20   21 ar
@<TRIPOS>SUBSTRUCTURE
     1 RES1 1

@<TRIPOS>CRYSIN
   8.6710   11.7690   16.3040  90.0000 105.3000  90.0000  14 1

