# MOL2 file generated by ConQuest
# Please check atom types

@<TRIPOS>MOLECULE
NEGWIG
    46    48     1
SMALL
NO_CHARGES
****
Generated from CSD

@<TRIPOS>ATOM
      1 O1         4.9506    3.7364    4.3450 O.2       1 RES1    0.0000
      2 N1         5.5859    2.8622    3.6681 N.3       1 RES1    0.0000
      3 C1         5.0035    1.5344    3.3445 C.3       1 RES1    0.0000
      4 C2         6.2510    0.8036    2.8412 C.3       1 RES1    0.0000
      5 C3         7.1069    1.8859    2.2099 C.3       1 RES1    0.0000
      6 C4         6.9552    3.1022    3.1394 C.3       1 RES1    0.0000
      7 C5         4.4138    0.9003    4.6061 C.3       1 RES1    0.0000
      8 C6         3.9317    1.6770    2.2692 C.ar      1 RES1    0.0000
      9 C7         3.4778    2.8977    1.7865 C.ar      1 RES1    0.0000
     10 C8         2.4641    2.9640    0.8448 C.ar      1 RES1    0.0000
     11 C9         1.8707    1.8178    0.3434 C.ar      1 RES1    0.0000
     12 C10        2.3346    0.6039    0.8110 C.ar      1 RES1    0.0000
     13 C11        3.3419    0.5309    1.7508 C.ar      1 RES1    0.0000
     14 C12        0.7601    1.8913   -0.6651 C.3       1 RES1    0.0000
     15 C13        6.9842    4.4343    2.3971 C.3       1 RES1    0.0000
     16 C14        7.9752    3.1002    4.2824 C.ar      1 RES1    0.0000
     17 C15        7.6167    2.9714    5.6108 C.ar      1 RES1    0.0000
     18 C16        8.5707    2.9963    6.6137 C.ar      1 RES1    0.0000
     19 C17        9.9152    3.1581    6.3390 C.ar      1 RES1    0.0000
     20 C18       10.2734    3.3053    5.0031 C.ar      1 RES1    0.0000
     21 C19        9.3257    3.2696    4.0040 C.ar      1 RES1    0.0000
     22 C20       10.9309    3.1760    7.4397 C.3       1 RES1    0.0000
     23 H1         6.0158    0.1297    2.1544 H         1 RES1    0.0000
     24 H2         6.7063    0.4509    3.6502 H         1 RES1    0.0000
     25 H3         6.7173    2.1606    1.3359 H         1 RES1    0.0000
     26 H4         8.0792    1.6000    2.1262 H         1 RES1    0.0000
     27 H5         4.1291   -0.0559    4.4311 H         1 RES1    0.0000
     28 H6         5.0810    0.9197    5.3719 H         1 RES1    0.0000
     29 H7         3.6321    1.3865    4.8921 H         1 RES1    0.0000
     30 H8         3.6755   -0.3032    2.0603 H         1 RES1    0.0000
     31 H9         1.9502   -0.1995    0.4704 H         1 RES1    0.0000
     32 H10        2.1533    3.8124    0.5362 H         1 RES1    0.0000
     33 H11        3.8648    3.6888    2.1168 H         1 RES1    0.0000
     34 H12        0.4255    1.0174   -0.9220 H         1 RES1    0.0000
     35 H13        0.0012    2.2942   -0.3387 H         1 RES1    0.0000
     36 H14        0.9847    2.3541   -1.3830 H         1 RES1    0.0000
     37 H15        7.8676    4.5566    1.9756 H         1 RES1    0.0000
     38 H16        6.7322    5.1710    3.0011 H         1 RES1    0.0000
     39 H17        6.3492    4.4628    1.6181 H         1 RES1    0.0000
     40 H18        6.7057    2.8888    5.8140 H         1 RES1    0.0000
     41 H19        8.3091    2.8728    7.5451 H         1 RES1    0.0000
     42 H20       11.2434    3.4194    4.8074 H         1 RES1    0.0000
     43 H21        9.6449    3.3755    3.0858 H         1 RES1    0.0000
     44 H22       10.6810    2.6733    8.1942 H         1 RES1    0.0000
     45 H23       11.7879    2.8927    7.1311 H         1 RES1    0.0000
     46 H24       11.0564    3.9900    7.7897 H         1 RES1    0.0000
@<TRIPOS>BOND
     1    1    2 1
     2    2    3 1
     3    3    4 1
     4    4    5 1
     5    5    6 1
     6    6    2 1
     7    7    3 1
     8    8    3 1
     9    9    8 ar
    10   10    9 ar
    11   11   10 ar
    12   12   11 ar
    13   13    8 ar
    14   14   11 1
    15   15    6 1
    16   16    6 1
    17   17   16 ar
    18   18   17 ar
    19   19   18 ar
    20   20   19 ar
    21   21   16 ar
    22   22   19 1
    23   23    4 1
    24   24    4 1
    25   25    5 1
    26   26    5 1
    27   27    7 1
    28   28    7 1
    29   29    7 1
    30   30   13 1
    31   31   12 1
    32   32   10 1
    33   33    9 1
    34   34   14 1
    35   35   14 1
    36   36   14 1
    37   37   15 1
    38   38   15 1
    39   39   15 1
    40   40   17 1
    41   41   18 1
    42   42   20 1
    43   43   21 1
    44   44   22 1
    45   45   22 1
    46   46   22 1
    47   12   13 ar
    48   20   21 ar
@<TRIPOS>SUBSTRUCTURE
     1 RES1 1

@<TRIPOS>CRYSIN
   8.8810   19.9500   10.2150  90.0000 112.9300  90.0000  14 1

