# MOL2 file generated by ConQuest
# Please check atom types

@<TRIPOS>MOLECULE
NEHFAH
    25    26     1
SMALL
NO_CHARGES
****
Generated from CSD

@<TRIPOS>ATOM
      1 O1        -3.5185    3.0435   15.0237 O.2       1 RES1    0.0000
      2 O2        -3.1541    5.0126   14.2519 O.2       1 RES1    0.0000
      3 O3         4.4601   -0.0508    9.0031 O.3       1 RES1    0.0000
      4 N1        -2.8691    3.8254   14.3527 N.pl3     1 RES1    0.0000
      5 C1        -1.7005    3.3273   13.6273 C.ar      1 RES1    0.0000
      6 C2        -1.3273    2.0211   13.8116 C.ar      1 RES1    0.0000
      7 C3        -0.2765    1.5180   13.0822 C.ar      1 RES1    0.0000
      8 C4         0.4082    2.3000   12.1526 C.ar      1 RES1    0.0000
      9 C5         0.0271    3.6371   12.0372 C.ar      1 RES1    0.0000
     10 C6        -1.0233    4.1526   12.7640 C.ar      1 RES1    0.0000
     11 C7         1.4868    1.7126   11.3211 C.ar      1 RES1    0.0000
     12 C8         1.5007    0.3557   11.0175 C.ar      1 RES1    0.0000
     13 C9         2.4882   -0.2082   10.2549 C.ar      1 RES1    0.0000
     14 C10        3.5056    0.5750    9.7563 C.ar      1 RES1    0.0000
     15 C11        3.5181    1.9195   10.0242 C.ar      1 RES1    0.0000
     16 C12        2.5176    2.4821   10.7947 C.ar      1 RES1    0.0000
     17 H1        -1.7906    1.4746   14.4283 H         1 RES1    0.0000
     18 H2        -0.0001    0.5948   13.2215 H         1 RES1    0.0000
     19 H3         0.5089    4.2009   11.4445 H         1 RES1    0.0000
     20 H4        -1.2725    5.0683   12.6778 H         1 RES1    0.0000
     21 H5         0.7971   -0.1983   11.3516 H         1 RES1    0.0000
     22 H6         2.4698   -1.1401   10.0653 H         1 RES1    0.0000
     23 H7         4.2155    2.4660    9.6807 H         1 RES1    0.0000
     24 H8         2.5368    3.4078   10.9671 H         1 RES1    0.0000
     25 H9         5.0630    0.6072    8.5933 H         1 RES1    0.0000
@<TRIPOS>BOND
     1    1    4 2
     2    2    4 2
     3    3   14 1
     4    4    5 1
     5    5    6 ar
     6    6    7 ar
     7    7    8 ar
     8    8    9 ar
     9    9   10 ar
    10   10    5 ar
    11   11    8 1
    12   12   11 ar
    13   13   12 ar
    14   14   13 ar
    15   15   14 ar
    16   16   11 ar
    17   17    6 1
    18   18    7 1
    19   19    9 1
    20   20   10 1
    21   21   12 1
    22   22   13 1
    23   23   15 1
    24   24   16 1
    25   25    3 1
    26   15   16 ar
@<TRIPOS>SUBSTRUCTURE
     1 RES1 1

@<TRIPOS>CRYSIN
   6.0360   12.3920   13.3460  90.0000  96.4600  90.0000 231 1

