# MOL2 file generated by ConQuest
# Please check atom types

@<TRIPOS>MOLECULE
NEHPIB
    47    50     1
SMALL
NO_CHARGES
****
Generated from CSD

@<TRIPOS>ATOM
      1 C1         3.9166   -2.1189    1.9945 C.3       1 RES1    0.0000
      2 H1         4.7530   -2.6657    2.0267 H         1 RES1    0.0000
      3 C2         3.6923   -1.6972    0.5414 C.3       1 RES1    0.0000
      4 H2         4.5235   -1.2310    0.2382 H         1 RES1    0.0000
      5 C3         3.4601   -2.8568   -0.4041 C.ar      1 RES1    0.0000
      6 C4         4.5403   -3.4291   -1.0485 C.ar      1 RES1    0.0000
      7 H3         5.4151   -3.0994   -0.8825 H         1 RES1    0.0000
      8 C5         4.3605   -4.4804   -1.9339 C.ar      1 RES1    0.0000
      9 H4         5.1064   -4.8600   -2.3830 H         1 RES1    0.0000
     10 C6         3.0944   -4.9685   -2.1585 C.ar      1 RES1    0.0000
     11 H5         2.9672   -5.6882   -2.7657 H         1 RES1    0.0000
     12 C7         2.0125   -4.4237   -1.5073 C.ar      1 RES1    0.0000
     13 H6         1.1430   -4.7737   -1.6586 H         1 RES1    0.0000
     14 C8         2.1880   -3.3631   -0.6297 C.ar      1 RES1    0.0000
     15 H7         1.4391   -2.9852   -0.1835 H         1 RES1    0.0000
     16 C9         2.4644    0.2106    1.3428 C.ar      1 RES1    0.0000
     17 C10        1.5564    1.2085    1.0250 C.ar      1 RES1    0.0000
     18 H8         1.1126    1.1998    0.1845 H         1 RES1    0.0000
     19 C11        1.3009    2.2150    1.9339 C.ar      1 RES1    0.0000
     20 H9         0.7022    2.9177    1.7104 H         1 RES1    0.0000
     21 C12        1.9127    2.1974    3.1659 C.ar      1 RES1    0.0000
     22 H10        1.7255    2.8812    3.7985 H         1 RES1    0.0000
     23 C13        2.8003    1.1867    3.4852 C.ar      1 RES1    0.0000
     24 H11        3.1975    1.1708    4.3482 H         1 RES1    0.0000
     25 C14        3.1267    0.1853    2.5623 C.ar      1 RES1    0.0000
     26 C15        4.1133   -0.9103    2.9185 C.3       1 RES1    0.0000
     27 H12        3.9171   -1.2059    3.8532 H         1 RES1    0.0000
     28 C16        5.6035   -0.4786    2.8609 C.3       1 RES1    0.0000
     29 H13        5.8527   -0.3593    1.8998 H         1 RES1    0.0000
     30 C17        5.9291    0.8350    3.6023 C.3       1 RES1    0.0000
     31 H14        5.4126    1.5741    3.1952 H         1 RES1    0.0000
     32 H15        5.6476    0.7525    4.5473 H         1 RES1    0.0000
     33 C18        7.4103    1.1743    3.5516 C.3       1 RES1    0.0000
     34 H16        7.6770    1.3309    2.6105 H         1 RES1    0.0000
     35 H17        7.5702    2.0109    4.0563 H         1 RES1    0.0000
     36 C19        8.2629    0.0657    4.1363 C.3       1 RES1    0.0000
     37 H18        8.0592   -0.0377    5.0999 H         1 RES1    0.0000
     38 H19        9.2208    0.2991    4.0465 H         1 RES1    0.0000
     39 C20        7.9831   -1.2521    3.4071 C.3       1 RES1    0.0000
     40 H20        8.2801   -1.1817    2.4650 H         1 RES1    0.0000
     41 H21        8.4884   -1.9857    3.8376 H         1 RES1    0.0000
     42 C21        6.5145   -1.5528    3.4530 C.2       1 RES1    0.0000
     43 N1         2.7862   -2.9849    2.4714 N.pl3     1 RES1    0.0000
     44 O1         3.0260   -4.1667    2.6927 O.2       1 RES1    0.0000
     45 O2         1.6840   -2.4856    2.6002 O.2       1 RES1    0.0000
     46 O3         2.6120   -0.7766    0.3846 O.3       1 RES1    0.0000
     47 O4         6.0775   -2.5571    3.9864 O.2       1 RES1    0.0000
@<TRIPOS>BOND
     1    1    2 1
     2    3    1 1
     3    4    3 1
     4    5    3 1
     5    6    5 ar
     6    7    6 1
     7    8    6 ar
     8    9    8 1
     9   10    8 ar
    10   11   10 1
    11   12   10 ar
    12   13   12 1
    13   14    5 ar
    14   15   14 1
    15   16   17 ar
    16   17   18 1
    17   19   17 ar
    18   20   19 1
    19   21   19 ar
    20   22   21 1
    21   23   21 ar
    22   24   23 1
    23   25   16 ar
    24   26    1 1
    25   27   26 1
    26   28   26 1
    27   29   28 1
    28   30   28 1
    29   31   30 1
    30   32   30 1
    31   33   30 1
    32   34   33 1
    33   35   33 1
    34   36   33 1
    35   37   36 1
    36   38   36 1
    37   39   36 1
    38   40   39 1
    39   41   39 1
    40   42   28 1
    41   43    1 1
    42   44   43 2
    43   45   43 2
    44   46    3 1
    45   47   42 2
    46   12   14 ar
    47   16   46 1
    48   23   25 ar
    49   25   26 1
    50   39   42 1
@<TRIPOS>SUBSTRUCTURE
     1 RES1 1

@<TRIPOS>CRYSIN
   9.2231    9.9837   10.6747 112.8730  92.6350  99.5510   2 1

