# MOL2 file generated by ConQuest
# Please check atom types

@<TRIPOS>MOLECULE
NEHPOG
    37    38     1
SMALL
NO_CHARGES
****
Generated from CSD

@<TRIPOS>ATOM
      1 N1         8.9546    9.8839    4.7134 N.2       1 RES1    0.0000
      2 N2         9.0145   10.5205    3.5252 N.pl3     1 RES1    0.0000
      3 H1         9.7777   10.7389    3.1935 H         1 RES1    0.0000
      4 N3         9.8904    9.0275    6.6190 N.pl3     1 RES1    0.0000
      5 N4         4.2886   11.7532    0.7612 N.pl3     1 RES1    0.0000
      6 N5         9.1122   11.9240    0.9633 N.pl3     1 RES1    0.0000
      7 O1        10.8508    9.0160    7.3634 O.2       1 RES1    0.0000
      8 O2         8.8281    8.4926    6.8620 O.2       1 RES1    0.0000
      9 O3         3.2581   11.2170    1.1247 O.2       1 RES1    0.0000
     10 O4         4.3560   12.5088   -0.1913 O.2       1 RES1    0.0000
     11 O5         9.0430   12.4821   -0.1218 O.2       1 RES1    0.0000
     12 O6        10.1959   11.7245    1.5301 O.2       1 RES1    0.0000
     13 O7        14.8233   12.3429    3.8323 O.3       1 RES1    0.0000
     14 C1        11.4592   11.7362    4.8856 C.ar      1 RES1    0.0000
     15 H2        10.7055   12.2526    5.0571 H         1 RES1    0.0000
     16 C2        12.6139   12.3622    4.5173 C.ar      1 RES1    0.0000
     17 H3        12.6498   13.2905    4.4693 H         1 RES1    0.0000
     18 C3        13.6893   11.6354    4.2275 C.ar      1 RES1    0.0000
     19 C4        13.6942   10.2844    4.3319 C.ar      1 RES1    0.0000
     20 H4        14.4660    9.8017    4.1436 H         1 RES1    0.0000
     21 C5        12.4825    9.6001    4.7398 C.ar      1 RES1    0.0000
     22 H5        12.4612    8.6735    4.8142 H         1 RES1    0.0000
     23 C6        11.3693   10.3481    5.0133 C.ar      1 RES1    0.0000
     24 C7        10.0565    9.7709    5.3396 C.2       1 RES1    0.0000
     25 C8         7.8636   10.8188    2.8474 C.ar      1 RES1    0.0000
     26 C9         6.6078   10.4834    3.3716 C.ar      1 RES1    0.0000
     27 H6         6.5594   10.0475    4.1916 H         1 RES1    0.0000
     28 C10        5.4571   10.7829    2.7028 C.ar      1 RES1    0.0000
     29 H7         4.6341   10.5444    3.0627 H         1 RES1    0.0000
     30 C11        5.5174   11.4421    1.4906 C.ar      1 RES1    0.0000
     31 C12        6.7130   11.7947    0.9333 C.ar      1 RES1    0.0000
     32 H8         6.7400   12.2349    0.1146 H         1 RES1    0.0000
     33 C13        7.8856   11.4860    1.6057 C.ar      1 RES1    0.0000
     34 C14       15.9088   11.7079    3.3650 C.3       1 RES1    0.0000
     35 H9        16.0672   10.9193    3.8886 H         1 RES1    0.0000
     36 H10       16.6699   12.2897    3.4232 H         1 RES1    0.0000
     37 H11       15.7639   11.4604    2.4491 H         1 RES1    0.0000
@<TRIPOS>BOND
     1    1    2 1
     2    2    3 1
     3    4    7 2
     4    5    9 2
     5    6   11 2
     6    8    4 2
     7   10    5 2
     8   12    6 2
     9   13   18 1
    10   14   15 1
    11   16   14 ar
    12   17   16 1
    13   18   16 ar
    14   19   18 ar
    15   20   19 1
    16   21   19 ar
    17   22   21 1
    18   23   14 ar
    19   24    1 2
    20   25    2 1
    21   26   25 ar
    22   27   26 1
    23   28   26 ar
    24   29   28 1
    25   30    5 1
    26   31   30 ar
    27   32   31 1
    28   33    6 1
    29   34   13 1
    30   35   34 1
    31   36   34 1
    32   37   34 1
    33    4   24 1
    34   21   23 ar
    35   23   24 1
    36   25   33 ar
    37   28   30 ar
    38   31   33 ar
@<TRIPOS>SUBSTRUCTURE
     1 RES1 1

@<TRIPOS>CRYSIN
  15.0750   17.6830    6.0990  90.0000 100.4300  90.0000  14 1

