# MOL2 file generated by ConQuest
# Please check atom types

@<TRIPOS>MOLECULE
NEHVUT
    92    95     1
SMALL
NO_CHARGES
****
Generated from CSD

@<TRIPOS>ATOM
      1 O1         0.8636    4.4642    3.8668 O.2       1 RES1    0.0000
      2 O2        -0.8385    6.7100    4.1954 O.3       1 RES1    0.0000
      3 O3        -0.5612    8.5701    6.3354 O.3       1 RES1    0.0000
      4 N1         1.3240    5.4506    3.1807 N.3       1 RES1    0.0000
      5 C1         0.5893    6.0519    0.9226 C.ar      1 RES1    0.0000
      6 C2         0.3901    6.0934    2.2921 C.ar      1 RES1    0.0000
      7 C3        -0.7545    6.7120    2.8386 C.ar      1 RES1    0.0000
      8 C4        -1.6944    7.2763    1.9756 C.ar      1 RES1    0.0000
      9 C5        -1.4622    7.2604    0.5950 C.ar      1 RES1    0.0000
     10 C6        -0.3319    6.6602    0.0540 C.ar      1 RES1    0.0000
     11 C7        -0.1253    6.6349   -1.4230 C.ar      1 RES1    0.0000
     12 C8         0.2714    5.4643   -2.0827 C.ar      1 RES1    0.0000
     13 C9         0.4237    5.4423   -3.4615 C.ar      1 RES1    0.0000
     14 C10        0.1967    6.5961   -4.2054 C.ar      1 RES1    0.0000
     15 C11       -0.1824    7.7623   -3.5652 C.ar      1 RES1    0.0000
     16 C12       -0.3468    7.7866   -2.1869 C.ar      1 RES1    0.0000
     17 C13        2.6089    6.0807    3.6349 C.3       1 RES1    0.0000
     18 C14        2.3386    6.8619    4.9280 C.3       1 RES1    0.0000
     19 C15        3.5943    4.9505    3.8848 C.3       1 RES1    0.0000
     20 C16        3.1501    7.0109    2.5584 C.3       1 RES1    0.0000
     21 C17       -1.9380    7.4119    4.8079 C.3       1 RES1    0.0000
     22 C18       -1.5853    7.5806    6.2552 C.3       1 RES1    0.0000
     23 C19        0.1763    8.5014    7.5370 C.3       1 RES1    0.0000
     24 H1         1.3240    5.6068    0.6666 H         1 RES1    0.0000
     25 H2        -2.5271    7.7031    2.2993 H         1 RES1    0.0000
     26 H3        -2.1810    7.6490    0.0090 H         1 RES1    0.0000
     27 H4         0.4005    4.5533   -1.5803 H         1 RES1    0.0000
     28 H5         0.6896    4.6020   -3.8293 H         1 RES1    0.0000
     29 H6         0.3376    6.5197   -5.1977 H         1 RES1    0.0000
     30 H7        -0.3089    8.5618   -4.1192 H         1 RES1    0.0000
     31 H8        -0.5455    8.5852   -1.7675 H         1 RES1    0.0000
     32 H9         3.0722    7.2467    5.2950 H         1 RES1    0.0000
     33 H10        1.9068    6.2166    5.6620 H         1 RES1    0.0000
     34 H11        1.6236    7.6562    4.7408 H         1 RES1    0.0000
     35 H12        3.2634    4.3025    4.5386 H         1 RES1    0.0000
     36 H13        4.4038    5.2334    4.1042 H         1 RES1    0.0000
     37 H14        3.7291    4.4433    2.9958 H         1 RES1    0.0000
     38 H15        4.0091    7.3784    2.8984 H         1 RES1    0.0000
     39 H16        3.3816    6.4872    1.8948 H         1 RES1    0.0000
     40 H17        2.4703    7.6778    2.4041 H         1 RES1    0.0000
     41 H18       -2.0424    8.2894    4.4225 H         1 RES1    0.0000
     42 H19       -2.7123    6.9201    4.7483 H         1 RES1    0.0000
     43 H20       -1.3195    6.7235    6.7405 H         1 RES1    0.0000
     44 H21       -2.3928    7.8492    6.6881 H         1 RES1    0.0000
     45 H22        0.5607    7.5822    7.5643 H         1 RES1    0.0000
     46 H23       -0.4558    8.7909    8.2459 H         1 RES1    0.0000
     47 O1B        0.5956   13.5758   11.1121 O.2       1 RES1    0.0000
     48 O2B        2.2977   11.3300   10.7835 O.3       1 RES1    0.0000
     49 O3B        2.0204    9.4699    8.6435 O.3       1 RES1    0.0000
     50 N1B        0.1352   12.5894   11.7982 N.3       1 RES1    0.0000
     51 C1B        0.8699   11.9881   14.0562 C.ar      1 RES1    0.0000
     52 C2B        1.0691   11.9466   12.6868 C.ar      1 RES1    0.0000
     53 C3B        2.2136   11.3280   12.1403 C.ar      1 RES1    0.0000
     54 C4B        3.1536   10.7637   13.0032 C.ar      1 RES1    0.0000
     55 C5B        2.9214   10.7796   14.3839 C.ar      1 RES1    0.0000
     56 C6B        1.7910   11.3798   14.9249 C.ar      1 RES1    0.0000
     57 C7B        1.5845   11.4051   16.4019 C.ar      1 RES1    0.0000
     58 C8B        1.1878   12.5757   17.0616 C.ar      1 RES1    0.0000
     59 C9B        1.0355   12.5977   18.4403 C.ar      1 RES1    0.0000
     60 C10B       1.2625   11.4439   19.1843 C.ar      1 RES1    0.0000
     61 C11B       1.6416   10.2777   18.5441 C.ar      1 RES1    0.0000
     62 C12B       1.8060   10.2534   17.1658 C.ar      1 RES1    0.0000
     63 C13B      -1.1497   11.9593   11.3439 C.3       1 RES1    0.0000
     64 C14B      -0.8794   11.1781   10.0509 C.3       1 RES1    0.0000
     65 C15B      -2.1352   13.0895   11.0941 C.3       1 RES1    0.0000
     66 C16B      -1.6909   11.0291   12.4205 C.3       1 RES1    0.0000
     67 C17B       3.3971   10.6281   10.1709 C.3       1 RES1    0.0000
     68 C18B       3.0445   10.4594    8.7237 C.3       1 RES1    0.0000
     69 C19B       1.2829    9.5387    7.4419 C.3       1 RES1    0.0000
     70 H1B        0.1351   12.4332   14.3123 H         1 RES1    0.0000
     71 H2B        3.9862   10.3369   12.6796 H         1 RES1    0.0000
     72 H3B        3.6402   10.3910   14.9699 H         1 RES1    0.0000
     73 H4B        1.0587   13.4867   16.5591 H         1 RES1    0.0000
     74 H5B        0.7696   13.4380   18.8082 H         1 RES1    0.0000
     75 H6B        1.1216   11.5203   20.1765 H         1 RES1    0.0000
     76 H7B        1.7680    9.4782   19.0981 H         1 RES1    0.0000
     77 H8B        2.0046    9.4548   16.7464 H         1 RES1    0.0000
     78 H9B       -1.6130   10.7933    9.6838 H         1 RES1    0.0000
     79 H10B      -0.4476   11.8234    9.3169 H         1 RES1    0.0000
     80 H11B      -0.1644   10.3838   10.2381 H         1 RES1    0.0000
     81 H12B      -1.8042   13.7375   10.4403 H         1 RES1    0.0000
     82 H13B      -2.9446   12.8066   10.8747 H         1 RES1    0.0000
     83 H14B      -2.2699   13.5967   11.9831 H         1 RES1    0.0000
     84 H15B      -2.5500   10.6616   12.0805 H         1 RES1    0.0000
     85 H16B      -1.9225   11.5528   13.0840 H         1 RES1    0.0000
     86 H17B      -1.0111   10.3622   12.5748 H         1 RES1    0.0000
     87 H18B       3.5016    9.7506   10.5564 H         1 RES1    0.0000
     88 H19B       4.1715   11.1199   10.2306 H         1 RES1    0.0000
     89 H20B       2.7787   11.3165    8.2384 H         1 RES1    0.0000
     90 H21B       3.8519   10.1908    8.2908 H         1 RES1    0.0000
     91 H22B       0.8985   10.4578    7.4145 H         1 RES1    0.0000
     92 H23B       1.9150    9.2491    6.7330 H         1 RES1    0.0000
@<TRIPOS>BOND
     1    1    4 1
     2    2    7 1
     3    3   22 1
     4    4    6 1
     5    5    6 ar
     6    6    7 ar
     7    7    8 ar
     8    8    9 ar
     9    9   10 ar
    10   10    5 ar
    11   11   10 1
    12   12   11 ar
    13   13   12 ar
    14   14   13 ar
    15   15   14 ar
    16   16   11 ar
    17   17    4 1
    18   18   17 1
    19   19   17 1
    20   20   17 1
    21   21    2 1
    22   22   21 1
    23   23    3 1
    24   24    5 1
    25   25    8 1
    26   26    9 1
    27   27   12 1
    28   28   13 1
    29   29   14 1
    30   30   15 1
    31   31   16 1
    32   32   18 1
    33   33   18 1
    34   34   18 1
    35   35   19 1
    36   36   19 1
    37   37   19 1
    38   38   20 1
    39   39   20 1
    40   40   20 1
    41   41   21 1
    42   42   21 1
    43   43   22 1
    44   44   22 1
    45   45   23 1
    46   46   23 1
    47   47   50 1
    48   48   53 1
    49   49   68 1
    50   50   52 1
    51   51   52 ar
    52   52   53 ar
    53   53   54 ar
    54   54   55 ar
    55   55   56 ar
    56   56   51 ar
    57   57   56 1
    58   58   57 ar
    59   59   58 ar
    60   60   59 ar
    61   61   60 ar
    62   62   57 ar
    63   63   50 1
    64   64   63 1
    65   65   63 1
    66   66   63 1
    67   67   48 1
    68   68   67 1
    69   69   23 1
    70   70   51 1
    71   71   54 1
    72   72   55 1
    73   73   58 1
    74   74   59 1
    75   75   60 1
    76   76   61 1
    77   77   62 1
    78   78   64 1
    79   79   64 1
    80   80   64 1
    81   81   65 1
    82   82   65 1
    83   83   65 1
    84   84   66 1
    85   85   66 1
    86   86   66 1
    87   87   67 1
    88   88   67 1
    89   89   68 1
    90   90   68 1
    91   91   69 1
    92   92   69 1
    93   15   16 ar
    94   49   69 1
    95   61   62 ar
@<TRIPOS>SUBSTRUCTURE
     1 RES1 1

@<TRIPOS>CRYSIN
  12.3200   18.0400    9.2510  90.0000 125.9450  90.0000  14 1

