# MOL2 file generated by ConQuest
# Please check atom types

@<TRIPOS>MOLECULE
NEJDAJ
    69    71     1
SMALL
NO_CHARGES
****
Generated from CSD

@<TRIPOS>ATOM
      1 O1         1.5366    2.8702    2.5205 O.3       1 RES1    0.0000
      2 O2         0.9886   -1.0318    5.9519 O.3       1 RES1    0.0000
      3 H1         0.8526   -1.1299    6.7541 H         1 RES1    0.0000
      4 O3        -1.7113   -1.4696    7.6264 O.3       1 RES1    0.0000
      5 O4        -2.2082    3.7562    5.5580 O.3       1 RES1    0.0000
      6 N1        -1.3172    1.7367    5.7811 N.am      1 RES1    0.0000
      7 O5         0.1362   -0.3697    8.4858 O.3       1 RES1    0.0000
      8 O6        -2.7533    2.5162    7.3745 O.2       1 RES1    0.0000
      9 C1         1.4167    5.0540    1.6613 C.ar      1 RES1    0.0000
     10 C2         2.2236    3.8273    1.9025 C.2       1 RES1    0.0000
     11 C3         0.0345    7.3778    1.2429 C.ar      1 RES1    0.0000
     12 C4        -0.0426   -0.2132    5.3897 C.3       1 RES1    0.0000
     13 C5         0.6175    0.9783    4.6723 C.3       1 RES1    0.0000
     14 H2         1.3041    1.3399    5.2714 H         1 RES1    0.0000
     15 C6        -0.1370    0.8128    7.7400 C.3       1 RES1    0.0000
     16 H3         0.6983    1.2414    7.4964 H         1 RES1    0.0000
     17 H4        -0.6434    1.4318    8.2894 H         1 RES1    0.0000
     18 O7         3.3780    3.7125    1.5926 O.2       1 RES1    0.0000
     19 C7        -2.1576   -0.3287    6.8946 C.3       1 RES1    0.0000
     20 H5        -2.7401    0.2140    7.4497 H         1 RES1    0.0000
     21 H6        -2.6576   -0.6108    6.1131 H         1 RES1    0.0000
     22 C8        -2.1425    2.6651    6.3334 C.2       1 RES1    0.0000
     23 C9        -0.4991    2.0066    4.5836 C.3       1 RES1    0.0000
     24 H7        -0.1432    2.9093    4.6021 H         1 RES1    0.0000
     25 H8        -1.0182    1.8874    3.7725 H         1 RES1    0.0000
     26 C10        1.2982    0.6287    3.3490 C.3       1 RES1    0.0000
     27 H9         1.7674   -0.2139    3.4561 H         1 RES1    0.0000
     28 H10        0.6143    0.4996    2.6732 H         1 RES1    0.0000
     29 N2        -0.7098    8.6341    1.0758 N.pl3     1 RES1    0.0000
     30 C11        2.2717    1.6607    2.8541 C.3       1 RES1    0.0000
     31 H11        2.9298    1.8521    3.5413 H         1 RES1    0.0000
     32 H12        2.7364    1.3285    2.0708 H         1 RES1    0.0000
     33 C12       -0.5897    6.3399    1.8828 C.ar      1 RES1    0.0000
     34 H13       -1.4707    6.4246    2.1702 H         1 RES1    0.0000
     35 C13       -0.9349    0.4860    6.4671 C.3       1 RES1    0.0000
     36 C14        0.1068    5.1677    2.0954 C.ar      1 RES1    0.0000
     37 H14       -0.3029    4.4544    2.5292 H         1 RES1    0.0000
     38 C15        2.0126    6.1116    0.9876 C.ar      1 RES1    0.0000
     39 H15        2.8843    6.0264    0.6734 H         1 RES1    0.0000
     40 C16        1.3216    7.2923    0.7780 C.ar      1 RES1    0.0000
     41 H16        1.7184    8.0075    0.3347 H         1 RES1    0.0000
     42 C17       -1.0213   -1.1377    8.8206 C.3       1 RES1    0.0000
     43 C18       -0.8384   -1.0891    4.4388 C.3       1 RES1    0.0000
     44 H17       -0.2553   -1.4384    3.7604 H         1 RES1    0.0000
     45 H18       -1.5316   -0.5677    4.0281 H         1 RES1    0.0000
     46 H19       -1.2324   -1.8160    4.9266 H         1 RES1    0.0000
     47 C19       -2.8738    4.9830    6.0381 C.3       1 RES1    0.0000
     48 O8        -0.1217    9.5997    0.6598 O.2       1 RES1    0.0000
     49 O9        -1.8718    8.6719    1.4157 O.2       1 RES1    0.0000
     50 C20       -2.5631    5.9580    4.9240 C.3       1 RES1    0.0000
     51 H20       -1.6118    6.0603    4.8434 H         1 RES1    0.0000
     52 H21       -2.9608    6.8092    5.1233 H         1 RES1    0.0000
     53 H22       -2.9199    5.6244    4.0971 H         1 RES1    0.0000
     54 C21       -2.2540    5.4356    7.3360 C.3       1 RES1    0.0000
     55 H23       -2.5305    4.8489    8.0440 H         1 RES1    0.0000
     56 H24       -2.5399    6.3305    7.5329 H         1 RES1    0.0000
     57 H25       -1.2974    5.4152    7.2591 H         1 RES1    0.0000
     58 C22       -1.9111   -0.4149    9.8159 C.3       1 RES1    0.0000
     59 H26       -2.0894    0.4734    9.4983 H         1 RES1    0.0000
     60 H27       -1.4682   -0.3679   10.6665 H         1 RES1    0.0000
     61 H28       -2.7385   -0.8926    9.9120 H         1 RES1    0.0000
     62 C23       -0.5050   -2.4506    9.3603 C.3       1 RES1    0.0000
     63 H29       -1.2453   -3.0326    9.5469 H         1 RES1    0.0000
     64 H30       -0.0112   -2.2918   10.1676 H         1 RES1    0.0000
     65 H31        0.0694   -2.8603    8.7093 H         1 RES1    0.0000
     66 C24       -4.3569    4.7524    6.1511 C.3       1 RES1    0.0000
     67 H32       -4.6889    4.3948    5.3241 H         1 RES1    0.0000
     68 H33       -4.7964    5.5854    6.3383 H         1 RES1    0.0000
     69 H34       -4.5313    4.1310    6.8616 H         1 RES1    0.0000
@<TRIPOS>BOND
     1    1   10 1
     2    2    3 1
     3    4   19 1
     4    5   22 1
     5    6   22 1
     6    7   15 1
     7    8   22 2
     8    9   10 1
     9   10   18 2
    10   11   29 1
    11   12    2 1
    12   13   12 1
    13   14   13 1
    14   15   16 1
    15   17   15 1
    16   19   20 1
    17   21   19 1
    18   23    6 1
    19   24   23 1
    20   25   23 1
    21   26   13 1
    22   27   26 1
    23   28   26 1
    24   29   48 2
    25   30    1 1
    26   31   30 1
    27   32   30 1
    28   33   11 ar
    29   34   33 1
    30   35    6 1
    31   36    9 ar
    32   37   36 1
    33   38    9 ar
    34   39   38 1
    35   40   11 ar
    36   41   40 1
    37   42    4 1
    38   43   12 1
    39   44   43 1
    40   45   43 1
    41   46   43 1
    42   47    5 1
    43   49   29 2
    44   50   47 1
    45   51   50 1
    46   52   50 1
    47   53   50 1
    48   54   47 1
    49   55   54 1
    50   56   54 1
    51   57   54 1
    52   58   42 1
    53   59   58 1
    54   60   58 1
    55   61   58 1
    56   62   42 1
    57   63   62 1
    58   64   62 1
    59   65   62 1
    60   66   47 1
    61   67   66 1
    62   68   66 1
    63   69   66 1
    64    7   42 1
    65   12   35 1
    66   13   23 1
    67   15   35 1
    68   19   35 1
    69   26   30 1
    70   33   36 ar
    71   38   40 ar
@<TRIPOS>SUBSTRUCTURE
     1 RES1 1

@<TRIPOS>CRYSIN
   6.2950   10.0720   20.3770  84.4830  89.5660  83.1020   2 1

