# MOL2 file generated by ConQuest
# Please check atom types

@<TRIPOS>MOLECULE
NEJFOZ
    59    64     1
SMALL
NO_CHARGES
****
Generated from CSD

@<TRIPOS>ATOM
      1 O1         4.5431    2.6757    2.9525 O.3       1 RES1    0.0000
      2 O2         4.1570    4.7743    3.8435 O.3       1 RES1    0.0000
      3 O3         6.3820    5.1436    3.8500 O.3       1 RES1    0.0000
      4 O4         5.5480    2.6261   -0.8670 O.3       1 RES1    0.0000
      5 O5         7.1811    1.6055    3.5957 O.3       1 RES1    0.0000
      6 N1         4.7266    1.8732    0.0821 N.3       1 RES1    0.0000
      7 C1         5.7052    2.7934    2.1125 C.3       1 RES1    0.0000
      8 H1         5.6460    3.6250    1.5975 H         1 RES1    0.0000
      9 C2         5.7364    1.6262    1.1635 C.3       1 RES1    0.0000
     10 H2         5.5264    0.7956    1.6401 H         1 RES1    0.0000
     11 C3         4.5205    0.6246   -0.7241 C.3       1 RES1    0.0000
     12 H3         3.8571    0.8417   -1.4125 H         1 RES1    0.0000
     13 C4         9.7572    3.4982    4.7024 C.ar      1 RES1    0.0000
     14 H4         9.9761    3.6974    3.8209 H         1 RES1    0.0000
     15 C5         6.2372    3.7652    4.1912 C.3       1 RES1    0.0000
     16 H5         6.5870    3.5577    5.0830 H         1 RES1    0.0000
     17 C6         3.9245   -0.4751    0.1152 C.ar      1 RES1    0.0000
     18 C7         5.1337    5.7706    4.1278 C.3       1 RES1    0.0000
     19 C8         7.0865    1.4877    0.4132 C.3       1 RES1    0.0000
     20 H6         7.7133    2.1823    0.6707 H         1 RES1    0.0000
     21 H7         7.4904    0.6173    0.5589 H         1 RES1    0.0000
     22 C9         8.5823    1.4510    3.8703 C.3       1 RES1    0.0000
     23 H8         9.0855    1.6510    3.0649 H         1 RES1    0.0000
     24 H9         8.7576    0.5275    4.1075 H         1 RES1    0.0000
     25 C10        4.7320    3.4975    4.0693 C.3       1 RES1    0.0000
     26 H10        4.3754    3.0838    4.8818 H         1 RES1    0.0000
     27 C11        4.9330    6.9070    3.1720 C.3       1 RES1    0.0000
     28 H11        5.5777    7.5955    3.3535 H         1 RES1    0.0000
     29 H12        4.0475    7.2625    3.2783 H         1 RES1    0.0000
     30 H13        5.0457    6.5916    2.2722 H         1 RES1    0.0000
     31 C12       10.1349    4.3682    5.7058 C.ar      1 RES1    0.0000
     32 H14       10.5969    5.1489    5.5017 H         1 RES1    0.0000
     33 C13        5.8680    0.4141   -1.4597 C.3       1 RES1    0.0000
     34 H15        6.3120   -0.3978   -1.1686 H         1 RES1    0.0000
     35 H16        5.7502    0.3903   -2.4226 H         1 RES1    0.0000
     36 C14        6.8568    2.9006    3.1021 C.3       1 RES1    0.0000
     37 H17        7.6364    3.3357    2.6990 H         1 RES1    0.0000
     38 C15        2.6292   -0.3179    0.5735 C.ar      1 RES1    0.0000
     39 H18        2.1595    0.4576    0.3658 H         1 RES1    0.0000
     40 C16        8.7866    2.0557    6.3061 C.ar      1 RES1    0.0000
     41 H19        8.3324    1.2719    6.5159 H         1 RES1    0.0000
     42 C17        4.5940   -1.6346    0.4544 C.ar      1 RES1    0.0000
     43 H20        5.4701   -1.7583    0.1687 H         1 RES1    0.0000
     44 C18        9.0629    2.3421    4.9820 C.ar      1 RES1    0.0000
     45 C19        6.6203    1.6559   -1.0174 C.3       1 RES1    0.0000
     46 H21        7.3273    1.9353   -1.6361 H         1 RES1    0.0000
     47 C20        2.7043   -2.4455    1.6462 C.ar      1 RES1    0.0000
     48 H22        2.2919   -3.1075    2.1523 H         1 RES1    0.0000
     49 C21        9.8224    4.0683    7.0067 C.ar      1 RES1    0.0000
     50 H23       10.0572    4.6625    7.6825 H         1 RES1    0.0000
     51 C22        2.0246   -1.2906    1.3318 C.ar      1 RES1    0.0000
     52 H24        1.1536   -1.1684    1.6340 H         1 RES1    0.0000
     53 C23        3.9834   -2.6131    1.2117 C.ar      1 RES1    0.0000
     54 H25        4.4471   -3.3906    1.4267 H         1 RES1    0.0000
     55 C24        5.0337    6.1885    5.5755 C.3       1 RES1    0.0000
     56 H26        5.6887    6.8660    5.7578 H         1 RES1    0.0000
     57 H27        5.1934    5.4282    6.1399 H         1 RES1    0.0000
     58 H28        4.1559    6.5368    5.7476 H         1 RES1    0.0000
     59 C25        9.1692    2.9066    7.3264 C.ar      1 RES1    0.0000
@<TRIPOS>BOND
     1    1    7 1
     2    2   18 1
     3    3   15 1
     4    4    6 1
     5    5   22 1
     6    6    9 1
     7    7    8 1
     8    9    7 1
     9   10    9 1
    10   11    6 1
    11   12   11 1
    12   13   14 1
    13   15   16 1
    14   17   11 1
    15   18    3 1
    16   19    9 1
    17   20   19 1
    18   21   19 1
    19   22   23 1
    20   24   22 1
    21   25    1 1
    22   26   25 1
    23   27   18 1
    24   28   27 1
    25   29   27 1
    26   30   27 1
    27   31   13 ar
    28   32   31 1
    29   33   11 1
    30   34   33 1
    31   35   33 1
    32   36    5 1
    33   37   36 1
    34   38   17 ar
    35   39   38 1
    36   40   41 1
    37   42   17 ar
    38   43   42 1
    39   44   13 ar
    40   45    4 1
    41   46   45 1
    42   47   48 1
    43   49   31 ar
    44   50   49 1
    45   51   38 ar
    46   52   51 1
    47   53   42 ar
    48   54   53 1
    49   55   18 1
    50   56   55 1
    51   57   55 1
    52   58   55 1
    53   59   40 ar
    54    2   25 1
    55    7   36 1
    56   15   25 1
    57   15   36 1
    58   19   45 1
    59   22   44 1
    60   33   45 1
    61   40   44 ar
    62   47   51 ar
    63   47   53 ar
    64   49   59 ar
@<TRIPOS>SUBSTRUCTURE
     1 RES1 1

@<TRIPOS>CRYSIN
   8.5390   12.4700   20.3240  90.0000  90.0000  90.0000  19 1

