# MOL2 file generated by ConQuest
# Please check atom types

@<TRIPOS>MOLECULE
NEJFUF
    57    61     1
SMALL
NO_CHARGES
****
Generated from CSD

@<TRIPOS>ATOM
      1 O1         1.7262   14.5109    5.8913 O.3       1 RES1    0.0000
      2 N1         1.7472   15.0516    7.2434 N.3       1 RES1    0.0000
      3 C1         0.9581   13.9888    7.9381 C.3       1 RES1    0.0000
      4 H1         0.4677   14.3827    8.6901 H         1 RES1    0.0000
      5 C2         1.8421   12.8226    8.4486 C.3       1 RES1    0.0000
      6 H2         2.2016   12.3236    7.6841 H         1 RES1    0.0000
      7 C3         0.8537   16.2333    7.0890 C.3       1 RES1    0.0000
      8 H3         0.4003   16.4310    7.9356 H         1 RES1    0.0000
      9 C4         0.2651   14.4399    5.7245 C.3       1 RES1    0.0000
     10 H4        -0.0133   14.1124    4.8431 H         1 RES1    0.0000
     11 C5        -0.1706   15.8440    6.0059 C.3       1 RES1    0.0000
     12 H5        -1.0796   15.8764    6.3445 H         1 RES1    0.0000
     13 H6        -0.0961   16.4078    5.2215 H         1 RES1    0.0000
     14 C6         2.1083    9.8984   10.1916 C.3       1 RES1    0.0000
     15 C7         2.6837   19.0153    7.9655 C.3       1 RES1    0.0000
     16 H7         1.8184   19.4261    8.1099 H         1 RES1    0.0000
     17 H8         3.0669   19.4246    7.1737 H         1 RES1    0.0000
     18 O2         1.4087   10.4762    9.0985 O.3       1 RES1    0.0000
     19 C8         3.5838   19.3922    9.1632 C.ar      1 RES1    0.0000
     20 C9         1.0492   11.8726    9.3649 C.3       1 RES1    0.0000
     21 H9         0.0850   12.0270    9.3176 H         1 RES1    0.0000
     22 O3         1.8830   14.4738   10.9510 O.3       1 RES1    0.0000
     23 O4         2.3524   10.9303   11.0730 O.3       1 RES1    0.0000
     24 C10        1.6621   17.4180    6.6334 C.3       1 RES1    0.0000
     25 H10        2.2071   17.1740    5.8689 H         1 RES1    0.0000
     26 H11        1.0735   18.1425    6.3719 H         1 RES1    0.0000
     27 O5         2.4959   17.8320    7.7115 O.3       1 RES1    0.0000
     28 C11        1.5959   12.0950   10.7244 C.3       1 RES1    0.0000
     29 H12        0.8730   12.2510   11.3693 H         1 RES1    0.0000
     30 C12        5.4336   18.9040   10.6124 C.ar      1 RES1    0.0000
     31 H13        6.1465   18.3479   10.8240 H         1 RES1    0.0000
     32 C13        1.3474    8.8372   10.7892 C.3       1 RES1    0.0000
     33 H14        1.8504    8.4511   11.5113 H         1 RES1    0.0000
     34 H15        1.1651    8.1637   10.1293 H         1 RES1    0.0000
     35 H16        0.5207    9.1863   11.1278 H         1 RES1    0.0000
     36 C14       -0.0497   13.4559    6.8774 C.3       1 RES1    0.0000
     37 H17        0.1364   12.5352    6.6309 H         1 RES1    0.0000
     38 H18       -0.9680   13.5331    7.1812 H         1 RES1    0.0000
     39 C15        4.4673   18.5163    9.5890 C.ar      1 RES1    0.0000
     40 H19        4.4739   17.6544    9.2404 H         1 RES1    0.0000
     41 C16        3.3739    9.4103    9.6761 C.3       1 RES1    0.0000
     42 H20        3.9234   10.1549    9.4271 H         1 RES1    0.0000
     43 H21        3.2121    8.8573    8.9092 H         1 RES1    0.0000
     44 H22        3.8163    8.8959   10.3559 H         1 RES1    0.0000
     45 C17        4.3679   20.9446   10.7966 C.ar      1 RES1    0.0000
     46 H23        4.3177   21.7880   11.1851 H         1 RES1    0.0000
     47 C18        5.2735   20.0595   11.2324 C.ar      1 RES1    0.0000
     48 H24        5.7915   20.2587   11.9769 H         1 RES1    0.0000
     49 C19        3.5175   20.6078    9.7708 C.ar      1 RES1    0.0000
     50 H25        2.8803   21.2257    9.4894 H         1 RES1    0.0000
     51 C20        2.4683   13.2242   10.6472 C.3       1 RES1    0.0000
     52 H26        3.2403   13.0774   11.2299 H         1 RES1    0.0000
     53 C21        2.5953   15.7034   10.6771 C.3       1 RES1    0.0000
     54 H27        3.4187   15.7127   11.1726 H         1 RES1    0.0000
     55 H28        2.0547   16.4511   10.9411 H         1 RES1    0.0000
     56 H29        2.7847   15.7606    9.7384 H         1 RES1    0.0000
     57 O6         2.9167   13.3014    9.2603 O.3       1 RES1    0.0000
@<TRIPOS>BOND
     1    1    2 1
     2    2    3 1
     3    3    4 1
     4    5    3 1
     5    6    5 1
     6    7    2 1
     7    8    7 1
     8    9    1 1
     9   10    9 1
    10   11    7 1
    11   12   11 1
    12   13   11 1
    13   14   18 1
    14   15   16 1
    15   17   15 1
    16   18   20 1
    17   19   15 1
    18   20    5 1
    19   21   20 1
    20   22   51 1
    21   23   14 1
    22   24    7 1
    23   25   24 1
    24   26   24 1
    25   27   15 1
    26   28   20 1
    27   29   28 1
    28   30   31 1
    29   32   14 1
    30   33   32 1
    31   34   32 1
    32   35   32 1
    33   36    3 1
    34   37   36 1
    35   38   36 1
    36   39   19 ar
    37   40   39 1
    38   41   14 1
    39   42   41 1
    40   43   41 1
    41   44   41 1
    42   45   46 1
    43   47   30 ar
    44   48   47 1
    45   49   19 ar
    46   50   49 1
    47   51   28 1
    48   52   51 1
    49   53   22 1
    50   54   53 1
    51   55   53 1
    52   56   53 1
    53   57    5 1
    54    9   11 1
    55    9   36 1
    56   23   28 1
    57   24   27 1
    58   30   39 ar
    59   45   47 ar
    60   45   49 ar
    61   51   57 1
@<TRIPOS>SUBSTRUCTURE
     1 RES1 1

@<TRIPOS>CRYSIN
   5.5220   15.4470   24.9000  90.0000  90.0000  90.0000  19 1

