# MOL2 file generated by ConQuest
# Please check atom types

@<TRIPOS>MOLECULE
NEJRIE
    56    59     1
SMALL
NO_CHARGES
****
Generated from CSD

@<TRIPOS>ATOM
      1 O1         0.3621    5.2117   12.2113 O.3       1 RES1    0.0000
      2 O2         3.9323    8.2755   12.3827 O.2       1 RES1    0.0000
      3 O3         1.9092    7.5453   13.0504 O.3       1 RES1    0.0000
      4 O4         3.3055    2.1196    9.3634 O.3       1 RES1    0.0000
      5 O5         0.5140    7.7729   17.5770 O.2       1 RES1    0.0000
      6 O6         6.7881   10.3096   15.8704 O.2       1 RES1    0.0000
      7 O7         3.5138    3.4717    7.6691 O.2       1 RES1    0.0000
      8 O8         5.9332   10.7794   17.7945 O.2       1 RES1    0.0000
      9 O9         1.7273    8.7262   19.0686 O.2       1 RES1    0.0000
     10 N1         1.5300    8.3584   17.9383 N.pl3     1 RES1    0.0000
     11 N2         5.8900   10.2495   16.6952 N.pl3     1 RES1    0.0000
     12 C1         1.5644    7.2294   11.6757 C.3       1 RES1    0.0000
     13 C2         1.7277    4.0353    9.1586 C.3       1 RES1    0.0000
     14 C3         4.4959    9.1168   15.0275 C.ar      1 RES1    0.0000
     15 C4         1.2915    3.6529   10.5552 C.3       1 RES1    0.0000
     16 C5         4.6600    9.5093   16.3391 C.ar      1 RES1    0.0000
     17 C6         3.7241    9.2825   17.3306 C.ar      1 RES1    0.0000
     18 C7         2.5735    8.6315   16.9304 C.ar      1 RES1    0.0000
     19 C8         2.3316    8.2355   15.6286 C.ar      1 RES1    0.0000
     20 C9         0.2346    6.5337   11.6692 C.3       1 RES1    0.0000
     21 C10        3.3077    8.4749   14.6747 C.ar      1 RES1    0.0000
     22 C11       -0.5780    3.0001   11.9828 C.3       1 RES1    0.0000
     23 C12        0.3334    1.4805    9.5604 C.3       1 RES1    0.0000
     24 C13       -0.9591    4.9813   10.2922 C.3       1 RES1    0.0000
     25 C14        0.5400    1.9521   12.0351 C.3       1 RES1    0.0000
     26 C15       -0.3147    6.3699   10.2514 C.3       1 RES1    0.0000
     27 C16        1.2001    2.1187   10.6532 C.3       1 RES1    0.0000
     28 C17       -2.3670    5.0888   10.8639 C.3       1 RES1    0.0000
     29 C18        2.6256    1.6225   10.5601 C.3       1 RES1    0.0000
     30 C19        3.1138    8.0925   13.2422 C.2       1 RES1    0.0000
     31 C20       -0.0084    4.2220   11.2184 C.3       1 RES1    0.0000
     32 C21        2.9058    3.2031    8.6702 C.2       1 RES1    0.0000
     33 H1         3.9589    9.5903   18.3728 H         1 RES1    0.0000
     34 H2         5.1651    9.2889   14.3137 H         1 RES1    0.0000
     35 H3         1.4563    7.8048   15.3624 H         1 RES1    0.0000
     36 H4         1.4867    8.1462   11.2363 H         1 RES1    0.0000
     37 H5         2.3225    6.6712   11.2037 H         1 RES1    0.0000
     38 H6         3.1833    1.9430   11.3507 H         1 RES1    0.0000
     39 H7         2.6918    0.6492   10.5340 H         1 RES1    0.0000
     40 H8         1.9891    3.7349   11.2870 H         1 RES1    0.0000
     41 H9         1.2357    2.0395   12.7734 H         1 RES1    0.0000
     42 H10        0.2407    0.9742   12.1527 H         1 RES1    0.0000
     43 H11       -0.8989    3.2714   12.8812 H         1 RES1    0.0000
     44 H12       -1.3727    2.5703   11.5908 H         1 RES1    0.0000
     45 H13       -0.4450    7.0145   12.2556 H         1 RES1    0.0000
     46 H14       -1.0269    7.0099   10.0913 H         1 RES1    0.0000
     47 H15        0.4446    6.4818    9.6666 H         1 RES1    0.0000
     48 H16       -2.8846    5.5768   10.2481 H         1 RES1    0.0000
     49 H17       -2.7950    4.2020   10.9995 H         1 RES1    0.0000
     50 H18       -0.9485    4.5953    9.3416 H         1 RES1    0.0000
     51 H19        2.0044    4.9668    9.0541 H         1 RES1    0.0000
     52 H20        1.1230    3.9561    8.5150 H         1 RES1    0.0000
     53 H21       -0.5133    2.0013    9.4428 H         1 RES1    0.0000
     54 H22        0.7899    1.5005    8.7078 H         1 RES1    0.0000
     55 H23        0.1210    0.5081    9.8022 H         1 RES1    0.0000
     56 H24       -2.2139    5.5859   11.7345 H         1 RES1    0.0000
@<TRIPOS>BOND
     1    1   20 1
     2    2   30 2
     3    3   12 1
     4    4   29 1
     5    5   10 2
     6    6   11 2
     7    7   32 2
     8    8   11 2
     9    9   10 2
    10   10   18 1
    11   11   16 1
    12   12   20 1
    13   13   15 1
    14   14   16 ar
    15   15   27 1
    16   16   17 ar
    17   17   18 ar
    18   18   19 ar
    19   19   21 ar
    20   20   26 1
    21   21   14 ar
    22   22   25 1
    23   23   27 1
    24   24   26 1
    25   25   27 1
    26   26   46 1
    27   27   29 1
    28   28   24 1
    29   29   38 1
    30   30    3 1
    31   31    1 1
    32   32    4 1
    33   33   17 1
    34   34   14 1
    35   35   19 1
    36   36   12 1
    37   37   12 1
    38   39   29 1
    39   40   15 1
    40   41   25 1
    41   42   25 1
    42   43   22 1
    43   44   22 1
    44   45   20 1
    45   47   26 1
    46   48   28 1
    47   49   28 1
    48   50   24 1
    49   51   13 1
    50   52   13 1
    51   53   23 1
    52   54   23 1
    53   55   23 1
    54   56   28 1
    55   13   32 1
    56   15   31 1
    57   21   30 1
    58   22   31 1
    59   24   31 1
@<TRIPOS>SUBSTRUCTURE
     1 RES1 1

@<TRIPOS>CRYSIN
   7.0050    9.1050   16.3710  90.0000  93.8400  90.0000   4 1

