# MOL2 file generated by ConQuest
# Please check atom types

@<TRIPOS>MOLECULE
NEJZOS
    58    61     1
SMALL
NO_CHARGES
****
Generated from CSD

@<TRIPOS>ATOM
      1 O1         4.5855    0.8171    1.2388 O.3       1 RES1    0.0000
      2 O2         6.6249    2.8360    1.4420 O.2       1 RES1    0.0000
      3 O3         4.6081    5.1459    1.4335 O.3       1 RES1    0.0000
      4 O4         5.5144    6.2473    3.1750 O.2       1 RES1    0.0000
      5 O5         8.4974    5.0616    5.9244 O.2       1 RES1    0.0000
      6 O6         9.5506    3.3189    5.1845 O.2       1 RES1    0.0000
      7 O7        -0.1989    7.3259    3.5468 O.3       1 RES1    0.0000
      8 N1         8.6910    4.1812    5.1004 N.pl3     1 RES1    0.0000
      9 C1         3.6017   -0.2109    1.5446 C.3       1 RES1    0.0000
     10 H1         3.9427   -0.7776    2.2810 H         1 RES1    0.0000
     11 H2         3.4772   -0.7881    0.7496 H         1 RES1    0.0000
     12 C2         2.2575    0.3789    1.9487 C.3       1 RES1    0.0000
     13 H3         1.6137   -0.3530    2.1208 H         1 RES1    0.0000
     14 H4         1.9029    0.9314    1.2084 H         1 RES1    0.0000
     15 C3         2.3983    1.2411    3.2078 C.3       1 RES1    0.0000
     16 H5         1.5862    1.7929    3.3356 H         1 RES1    0.0000
     17 H6         2.5152    0.6658    4.0045 H         1 RES1    0.0000
     18 C4         3.5950    2.1209    3.0284 C.2       1 RES1    0.0000
     19 C5         3.8904    3.3734    3.8092 C.3       1 RES1    0.0000
     20 H7         4.0106    3.1123    4.7670 H         1 RES1    0.0000
     21 C6         5.3049    3.8335    3.2560 C.3       1 RES1    0.0000
     22 C7         5.6224    2.8215    2.1417 C.2       1 RES1    0.0000
     23 C8         4.5385    1.8503    2.1068 C.2       1 RES1    0.0000
     24 C9         5.1794    5.2208    2.6382 C.2       1 RES1    0.0000
     25 C10        4.1860    6.4046    0.8500 C.3       1 RES1    0.0000
     26 H8         3.6242    6.8904    1.4903 H         1 RES1    0.0000
     27 H9         3.6733    6.2298    0.0333 H         1 RES1    0.0000
     28 H10        4.9742    6.9446    0.6318 H         1 RES1    0.0000
     29 C11        6.3566    3.8361    4.4110 C.3       1 RES1    0.0000
     30 H11        6.1054    4.5819    5.0271 H         1 RES1    0.0000
     31 C12        7.7708    4.1386    3.9049 C.3       1 RES1    0.0000
     32 H12        8.0649    3.4356    3.2741 H         1 RES1    0.0000
     33 H13        7.7848    5.0083    3.4330 H         1 RES1    0.0000
     34 C13        6.3250    2.5596    5.2331 C.ar      1 RES1    0.0000
     35 C14        6.6616    1.3139    4.6889 C.ar      1 RES1    0.0000
     36 H14        6.9512    1.2599    3.7854 H         1 RES1    0.0000
     37 C15        6.5780    0.1574    5.4521 C.ar      1 RES1    0.0000
     38 H15        6.7983   -0.6815    5.0668 H         1 RES1    0.0000
     39 C16        6.1719    0.2253    6.7788 C.ar      1 RES1    0.0000
     40 H16        6.1028   -0.5679    7.2978 H         1 RES1    0.0000
     41 C17        5.8676    1.4529    7.3418 C.ar      1 RES1    0.0000
     42 H17        5.6085    1.5029    8.2550 H         1 RES1    0.0000
     43 C18        5.9385    2.6132    6.5779 C.ar      1 RES1    0.0000
     44 H18        5.7222    3.4496    6.9723 H         1 RES1    0.0000
     45 C19        2.7813    4.4130    3.7524 C.ar      1 RES1    0.0000
     46 C20        2.6078    5.2934    4.8144 C.ar      1 RES1    0.0000
     47 H19        3.1723    5.2163    5.5743 H         1 RES1    0.0000
     48 C21        1.6299    6.2852    4.7955 C.ar      1 RES1    0.0000
     49 H20        1.5339    6.8817    5.5294 H         1 RES1    0.0000
     50 C22        0.7952    6.3913    3.6876 C.ar      1 RES1    0.0000
     51 C23        0.9416    5.5045    2.6168 C.ar      1 RES1    0.0000
     52 H21        0.3635    5.5693    1.8658 H         1 RES1    0.0000
     53 C24        1.9264    4.5334    2.6490 C.ar      1 RES1    0.0000
     54 H22        2.0239    3.9406    1.9132 H         1 RES1    0.0000
     55 C25       -0.3599    8.2777    4.5955 C.3       1 RES1    0.0000
     56 H23       -0.7019    7.8271    5.3961 H         1 RES1    0.0000
     57 H24       -0.9941    8.9699    4.3133 H         1 RES1    0.0000
     58 H25        0.5055    8.6903    4.7977 H         1 RES1    0.0000
@<TRIPOS>BOND
     1    1    9 1
     2    2   22 2
     3    3   24 1
     4    4   24 2
     5    5    8 2
     6    6    8 2
     7    7   50 1
     8    8   31 1
     9    9   10 1
    10   11    9 1
    11   12    9 1
    12   13   12 1
    13   14   12 1
    14   15   12 1
    15   16   15 1
    16   17   15 1
    17   18   15 1
    18   19   18 1
    19   20   19 1
    20   21   19 1
    21   22   21 1
    22   23    1 1
    23   24   21 1
    24   25    3 1
    25   26   25 1
    26   27   25 1
    27   28   25 1
    28   29   21 1
    29   30   29 1
    30   31   29 1
    31   32   31 1
    32   33   31 1
    33   34   29 1
    34   35   34 ar
    35   36   35 1
    36   37   35 ar
    37   38   37 1
    38   39   37 ar
    39   40   39 1
    40   41   39 ar
    41   42   41 1
    42   43   34 ar
    43   44   43 1
    44   45   19 1
    45   46   45 ar
    46   47   46 1
    47   48   46 ar
    48   49   48 1
    49   50   48 ar
    50   51   50 ar
    51   52   51 1
    52   53   45 ar
    53   54   53 1
    54   55    7 1
    55   56   55 1
    56   57   55 1
    57   58   55 1
    58   18   23 2
    59   22   23 1
    60   41   43 ar
    61   51   53 ar
@<TRIPOS>SUBSTRUCTURE
     1 RES1 1

@<TRIPOS>CRYSIN
   9.8953   17.4750   13.3535  90.0000 106.3360  90.0000  14 1

