# MOL2 file generated by ConQuest
# Please check atom types

@<TRIPOS>MOLECULE
NEKBOV
    52    54     1
SMALL
NO_CHARGES
****
Generated from CSD

@<TRIPOS>ATOM
      1 O1        -3.7877   11.9464    4.6771 O.2       1 RES1    0.0000
      2 O2        -0.3109   11.6182    1.8151 O.2       1 RES1    0.0000
      3 N1        -2.5670   10.0014    4.7041 N.am      1 RES1    0.0000
      4 N2        -2.0212   11.7194    3.2647 N.am      1 RES1    0.0000
      5 H1        -2.2008   12.5165    2.9394 H         1 RES1    0.0000
      6 C1        -2.8634   11.2691    4.2548 C.2       1 RES1    0.0000
      7 C2        -0.9244   11.0718    2.7166 C.2       1 RES1    0.0000
      8 C3        -0.6367    9.7672    3.2927 C.2       1 RES1    0.0000
      9 C4        -1.4510    9.3323    4.2678 C.2       1 RES1    0.0000
     10 H2        -1.2405    8.5046    4.6836 H         1 RES1    0.0000
     11 O3        -5.2266    7.8797    7.4560 O.3       1 RES1    0.0000
     12 H3        -5.2896    7.7189    8.2784 H         1 RES1    0.0000
     13 O4        -2.6014    9.4456    6.9735 O.3       1 RES1    0.0000
     14 O5        -0.9263    7.1272    6.7306 O.3       1 RES1    0.0000
     15 H4        -0.1217    7.3686    6.7318 H         1 RES1    0.0000
     16 C5        -3.3848    9.4247    5.7837 C.3       1 RES1    0.0000
     17 H5        -4.2021    9.9850    5.9151 H         1 RES1    0.0000
     18 C6        -3.7940    7.9826    5.5730 C.3       1 RES1    0.0000
     19 H6        -4.6548    7.9197    5.0892 H         1 RES1    0.0000
     20 H7        -3.1016    7.4800    5.0752 H         1 RES1    0.0000
     21 C7        -3.9227    7.4816    6.9863 C.3       1 RES1    0.0000
     22 H8        -3.7908    6.4920    7.0441 H         1 RES1    0.0000
     23 C8        -2.8382    8.2453    7.7386 C.3       1 RES1    0.0000
     24 H9        -3.2060    8.5119    8.6298 H         1 RES1    0.0000
     25 C9        -1.5436    7.5128    7.9661 C.3       1 RES1    0.0000
     26 H10       -0.9241    8.0941    8.4742 H         1 RES1    0.0000
     27 H11       -1.7176    6.7046    8.5105 H         1 RES1    0.0000
     28 C10        0.5029    8.9644    2.8191 C.ar      1 RES1    0.0000
     29 C11        1.6697    9.5507    2.3138 C.ar      1 RES1    0.0000
     30 H12        1.7435   10.4966    2.2812 H         1 RES1    0.0000
     31 C12        2.7131    8.7690    1.8617 C.ar      1 RES1    0.0000
     32 H13        3.4918    9.1862    1.5112 H         1 RES1    0.0000
     33 C13        2.6441    7.3790    1.9092 C.ar      1 RES1    0.0000
     34 C14        1.4946    6.7836    2.4518 C.ar      1 RES1    0.0000
     35 H14        1.4352    5.8383    2.5245 H         1 RES1    0.0000
     36 C15        0.4534    7.5775    2.8779 C.ar      1 RES1    0.0000
     37 H15       -0.3268    7.1619    3.2247 H         1 RES1    0.0000
     38 N3         3.7093    6.6459    1.3704 N.3       1 RES1    0.0000
     39 O6         4.6345    7.3233    0.7860 O.2       1 RES1    0.0000
     40 C16        3.8874    5.1457    1.4478 C.3       1 RES1    0.0000
     41 C17        2.7984    4.4399    0.6498 C.3       1 RES1    0.0000
     42 H16        1.9218    4.6524    1.0339 H         1 RES1    0.0000
     43 H17        2.9440    3.4710    0.6843 H         1 RES1    0.0000
     44 H18        2.8293    4.7419   -0.2825 H         1 RES1    0.0000
     45 C18        3.9269    4.7228    2.9077 C.3       1 RES1    0.0000
     46 H19        4.6742    5.1699    3.3570 H         1 RES1    0.0000
     47 H20        4.0444    3.7524    2.9636 H         1 RES1    0.0000
     48 H21        3.0860    4.9749    3.3440 H         1 RES1    0.0000
     49 C19        5.2261    4.8239    0.7952 C.3       1 RES1    0.0000
     50 H22        5.9410    5.3077    1.2604 H         1 RES1    0.0000
     51 H23        5.2052    5.0981   -0.1454 H         1 RES1    0.0000
     52 H24        5.3937    3.8595    0.8502 H         1 RES1    0.0000
@<TRIPOS>BOND
     1    1    6 2
     2    2    7 2
     3    3    6 1
     4    4    5 1
     5    6    4 1
     6    7    4 1
     7    8    7 1
     8    9    3 1
     9   10    9 1
    10   11   12 1
    11   13   16 1
    12   14   15 1
    13   16    3 1
    14   17   16 1
    15   18   16 1
    16   19   18 1
    17   20   18 1
    18   21   11 1
    19   22   21 1
    20   23   13 1
    21   24   23 1
    22   25   14 1
    23   26   25 1
    24   27   25 1
    25   28    8 1
    26   29   28 ar
    27   30   29 1
    28   31   29 ar
    29   32   31 1
    30   33   31 ar
    31   34   33 ar
    32   35   34 1
    33   36   28 ar
    34   37   36 1
    35   38   33 1
    36   39   38 1
    37   40   38 1
    38   41   40 1
    39   42   41 1
    40   43   41 1
    41   44   41 1
    42   45   40 1
    43   46   45 1
    44   47   45 1
    45   48   45 1
    46   49   40 1
    47   50   49 1
    48   51   49 1
    49   52   49 1
    50    8    9 2
    51   18   21 1
    52   21   23 1
    53   23   25 1
    54   34   36 ar
@<TRIPOS>SUBSTRUCTURE
     1 RES1 1

@<TRIPOS>CRYSIN
   6.8108   14.6580    9.7910  90.0000 107.7960  90.0000   4 1

