# MOL2 file generated by ConQuest
# Please check atom types

@<TRIPOS>MOLECULE
NEKRUT
    18    19     1
SMALL
NO_CHARGES
****
Generated from CSD

@<TRIPOS>ATOM
      1 O1         4.5647    4.1032    8.1604 O.3       1 RES1    0.0000
      2 C1         4.0856    2.9470    7.4875 C.2       1 RES1    0.0000
      3 O2         3.8714    1.9507    8.1383 O.2       1 RES1    0.0000
      4 C2         3.9817    3.2527    6.0773 C.2       1 RES1    0.0000
      5 C3         3.4907    2.3388    5.0735 C.2       1 RES1    0.0000
      6 H1         3.5144    2.5792    4.1548 H         1 RES1    0.0000
      7 N1         3.0231    1.2016    5.4309 N.2       1 RES1    0.0000
      8 O3         2.5665    0.4589    4.3352 O.3       1 RES1    0.0000
      9 C4         4.3951    4.5561    5.9120 C.2       1 RES1    0.0000
     10 C5         4.5341    5.4675    4.8254 C.2       1 RES1    0.0000
     11 H2         4.3237    5.2084    3.9360 H         1 RES1    0.0000
     12 C6         4.9754    6.7122    5.1053 C.2       1 RES1    0.0000
     13 H3         5.0612    7.3238    4.3835 H         1 RES1    0.0000
     14 O4         5.3042    7.1488    6.3443 O.3       1 RES1    0.0000
     15 C7         5.1821    6.3085    7.4027 C.2       1 RES1    0.0000
     16 H4         5.4029    6.6036    8.2782 H         1 RES1    0.0000
     17 C8         4.7474    5.0609    7.1992 C.2       1 RES1    0.0000
     18 H5         2.2546   -0.2234    4.6870 H         1 RES1    0.0000
@<TRIPOS>BOND
     1    1    2 1
     2    2    3 2
     3    4    2 1
     4    5    4 1
     5    6    5 1
     6    7    5 2
     7    8    7 1
     8    9    4 2
     9   10    9 1
    10   11   10 1
    11   12   10 2
    12   13   12 1
    13   14   12 1
    14   15   14 1
    15   16   15 1
    16   17    1 1
    17   18    8 1
    18    9   17 1
    19   15   17 2
@<TRIPOS>SUBSTRUCTURE
     1 RES1 1

@<TRIPOS>CRYSIN
   7.1458    8.3674   12.2499  90.0000 100.0700  90.0000  14 1

