# MOL2 file generated by ConQuest
# Please check atom types

@<TRIPOS>MOLECULE
NELBAH
    26    25     1
SMALL
NO_CHARGES
****
Generated from CSD

@<TRIPOS>ATOM
      1 O1         1.9856   10.4540    5.2275 O.3       1 RES1    0.0000
      2 N1         0.8042   10.5033    4.4631 N.2       1 RES1    0.0000
      3 N2        -1.4302   10.9398    3.0244 N.3       1 RES1    0.0000
      4 C1        -0.2514   10.3915    5.1621 C.2       1 RES1    0.0000
      5 C2        -1.5721   10.3659    4.3845 C.3       1 RES1    0.0000
      6 C3        -0.2623   10.2211    6.6528 C.3       1 RES1    0.0000
      7 C4        -2.0048    8.9110    4.2035 C.3       1 RES1    0.0000
      8 C5        -2.6732   11.1153    5.1356 C.3       1 RES1    0.0000
      9 C6        -1.2551   12.4013    2.9664 C.3       1 RES1    0.0000
     10 C7        -0.8960   12.8189    1.5669 C.3       1 RES1    0.0000
     11 H1         2.6501   10.5707    4.6132 H         1 RES1    0.0000
     12 H2        -0.7469   10.5770    2.6553 H         1 RES1    0.0000
     13 H3        -0.3504   11.0286    7.0006 H         1 RES1    0.0000
     14 H4        -1.0294    9.7489    6.9838 H         1 RES1    0.0000
     15 H5         0.5256    9.8580    6.9489 H         1 RES1    0.0000
     16 H6        -2.0369    8.4402    5.0583 H         1 RES1    0.0000
     17 H7        -2.8878    8.9095    3.7591 H         1 RES1    0.0000
     18 H8        -1.3524    8.4465    3.5883 H         1 RES1    0.0000
     19 H9        -2.3698   12.0211    5.3948 H         1 RES1    0.0000
     20 H10       -3.4408   11.2444    4.5627 H         1 RES1    0.0000
     21 H11       -2.9097   10.6221    5.9538 H         1 RES1    0.0000
     22 H12       -0.5563   12.6961    3.5780 H         1 RES1    0.0000
     23 H13       -2.1420   12.8241    3.2092 H         1 RES1    0.0000
     24 H14       -0.8607   13.7375    1.4998 H         1 RES1    0.0000
     25 H15       -0.0219   12.4125    1.3264 H         1 RES1    0.0000
     26 H16       -1.5386   12.4602    0.9006 H         1 RES1    0.0000
@<TRIPOS>BOND
     1    1    2 1
     2    2    4 2
     3    3    5 1
     4    4    5 1
     5    5    7 1
     6    6    4 1
     7    7   16 1
     8    8    5 1
     9    9    3 1
    10   10    9 1
    11   11    1 1
    12   12    3 1
    13   13    6 1
    14   14    6 1
    15   15    6 1
    16   17    7 1
    17   18    7 1
    18   19    8 1
    19   20    8 1
    20   21    8 1
    21   22    9 1
    22   23    9 1
    23   24   10 1
    24   25   10 1
    25   26   10 1
@<TRIPOS>SUBSTRUCTURE
     1 RES1 1

@<TRIPOS>CRYSIN
  10.9510   12.5468   12.9402  90.0000  90.0000  90.0000  61 1

