# MOL2 file generated by ConQuest
# Please check atom types

@<TRIPOS>MOLECULE
NELKEX
    58    62     1
SMALL
NO_CHARGES
****
Generated from CSD

@<TRIPOS>ATOM
      1 O1         4.6980   13.5979    7.1216 O.3       1 RES1    0.0000
      2 O2        10.5004   16.7231    9.8671 O.2       1 RES1    0.0000
      3 O3         8.8254   17.9855   10.3223 O.2       1 RES1    0.0000
      4 N1         9.2986   16.9515    9.8907 N.pl3     1 RES1    0.0000
      5 C1         2.8939   13.3695    5.6767 C.ar      1 RES1    0.0000
      6 H1         3.0250   14.2631    5.4581 H         1 RES1    0.0000
      7 C2         3.7328   12.7723    6.5928 C.ar      1 RES1    0.0000
      8 C3         1.8569   12.6689    5.0726 C.ar      1 RES1    0.0000
      9 C4         0.9989   13.3170    3.9830 C.3       1 RES1    0.0000
     10 C5        -0.3671   12.5840    3.9010 C.3       1 RES1    0.0000
     11 H2        -0.7526   12.6164    4.8011 H         1 RES1    0.0000
     12 C6         1.6879   11.3231    5.3977 C.ar      1 RES1    0.0000
     13 C7         3.5841   11.4435    6.9171 C.ar      1 RES1    0.0000
     14 H3         4.1576   11.0284    7.5203 H         1 RES1    0.0000
     15 C8         0.5835   10.4882    4.7889 C.3       1 RES1    0.0000
     16 H4        -0.0776   10.3107    5.4760 H         1 RES1    0.0000
     17 H5         0.9591    9.6363    4.5203 H         1 RES1    0.0000
     18 C9         2.5480   10.7428    6.3120 C.ar      1 RES1    0.0000
     19 H6         2.4277    9.8462    6.5306 H         1 RES1    0.0000
     20 C10       -0.1303   11.1009    3.5815 C.3       1 RES1    0.0000
     21 C11        6.6422   14.0655    8.3921 C.ar      1 RES1    0.0000
     22 C12       -0.2332   15.4792    3.3525 C.3       1 RES1    0.0000
     23 H7        -0.3744   16.3975    3.6324 H         1 RES1    0.0000
     24 H8         0.1247   15.4915    2.4515 H         1 RES1    0.0000
     25 C13        0.7590   14.8094    4.2856 C.3       1 RES1    0.0000
     26 H9         0.4365   14.8943    5.1960 H         1 RES1    0.0000
     27 H10        1.6059   15.2786    4.2290 H         1 RES1    0.0000
     28 C14        8.3728   15.9422    9.3666 C.ar      1 RES1    0.0000
     29 C15        5.6991   13.0022    7.9218 C.3       1 RES1    0.0000
     30 H11        6.1818   12.3371    7.4053 H         1 RES1    0.0000
     31 H12        5.2933   12.5593    8.6833 H         1 RES1    0.0000
     32 C16       -1.3637   13.2862    2.9783 C.3       1 RES1    0.0000
     33 H13       -1.0491   13.2306    2.0631 H         1 RES1    0.0000
     34 H14       -2.2209   12.8355    3.0283 H         1 RES1    0.0000
     35 C17        6.1994   15.2955    8.7823 C.ar      1 RES1    0.0000
     36 H15        5.2921   15.4900    8.7154 H         1 RES1    0.0000
     37 C18        7.0482   16.2524    9.2696 C.ar      1 RES1    0.0000
     38 H16        6.7318   17.0873    9.5259 H         1 RES1    0.0000
     39 C19        7.9953   13.7862    8.4995 C.ar      1 RES1    0.0000
     40 H17        8.3129   12.9482    8.2488 H         1 RES1    0.0000
     41 C20        1.7519   13.1504    2.6579 C.3       1 RES1    0.0000
     42 H18        1.2448   13.5794    1.9510 H         1 RES1    0.0000
     43 H19        2.6089   13.6010    2.7229 H         1 RES1    0.0000
     44 C21        0.6755   10.9203    2.3025 C.3       1 RES1    0.0000
     45 H20        0.1338   11.1997    1.5485 H         1 RES1    0.0000
     46 H21        0.8766    9.9774    2.1885 H         1 RES1    0.0000
     47 C22       -1.4788   10.3431    3.4194 C.3       1 RES1    0.0000
     48 H22       -1.3136    9.3971    3.3921 H         1 RES1    0.0000
     49 H23       -1.9035   10.6178    2.6032 H         1 RES1    0.0000
     50 H24       -2.0511   10.5468    4.1621 H         1 RES1    0.0000
     51 C23        8.8645   14.7199    8.9680 C.ar      1 RES1    0.0000
     52 H25        9.7751   14.5362    9.0179 H         1 RES1    0.0000
     53 C24       -1.5385   14.7446    3.3648 C.3       1 RES1    0.0000
     54 H26       -2.1516   15.1690    2.7446 H         1 RES1    0.0000
     55 H27       -1.9277   14.7971    4.2526 H         1 RES1    0.0000
     56 C25        1.9820   11.7089    2.2912 C.3       1 RES1    0.0000
     57 H28        2.6039   11.3108    2.9208 H         1 RES1    0.0000
     58 H29        2.3794   11.6611    1.4072 H         1 RES1    0.0000
@<TRIPOS>BOND
     1    1    7 1
     2    2    4 2
     3    3    4 2
     4    4   28 1
     5    5    6 1
     6    7    5 ar
     7    8    5 ar
     8    9    8 1
     9   10    9 1
    10   11   10 1
    11   12    8 ar
    12   13    7 ar
    13   14   13 1
    14   15   12 1
    15   16   15 1
    16   17   15 1
    17   18   12 ar
    18   19   18 1
    19   20   10 1
    20   21   29 1
    21   22   23 1
    22   24   22 1
    23   25    9 1
    24   26   25 1
    25   27   25 1
    26   28   37 ar
    27   29    1 1
    28   30   29 1
    29   31   29 1
    30   32   10 1
    31   33   32 1
    32   34   32 1
    33   35   21 ar
    34   36   35 1
    35   37   35 ar
    36   38   37 1
    37   39   21 ar
    38   40   39 1
    39   41    9 1
    40   42   41 1
    41   43   41 1
    42   44   20 1
    43   45   44 1
    44   46   44 1
    45   47   20 1
    46   48   47 1
    47   49   47 1
    48   50   47 1
    49   51   28 ar
    50   52   51 1
    51   53   22 1
    52   54   53 1
    53   55   53 1
    54   56   41 1
    55   57   56 1
    56   58   56 1
    57   13   18 ar
    58   15   20 1
    59   22   25 1
    60   32   53 1
    61   39   51 ar
    62   44   56 1
@<TRIPOS>SUBSTRUCTURE
     1 RES1 1

@<TRIPOS>CRYSIN
   7.1570   15.4329    9.7926  90.0000 105.7470  90.0000   4 1

