# MOL2 file generated by ConQuest
# Please check atom types

@<TRIPOS>MOLECULE
NELMUN
    43    44     1
SMALL
NO_CHARGES
****
Generated from CSD

@<TRIPOS>ATOM
      1 O1        -4.0827    1.3758    8.5077 O.2       1 RES1    0.0000
      2 O2        -3.4329    1.2366    6.4880 O.2       1 RES1    0.0000
      3 O3        -0.8078    0.7992    3.2440 O.2       1 RES1    0.0000
      4 O4         0.6699    2.3017    2.8251 O.2       1 RES1    0.0000
      5 O5        -0.4785    3.0754   11.2622 O.3       1 RES1    0.0000
      6 O6         2.6559    2.0551    4.8021 O.3       1 RES1    0.0000
      7 N1         2.9367    2.6286    7.4758 N.3       1 RES1    0.0000
      8 N2         1.6653    3.4023    9.6439 N.3       1 RES1    0.0000
      9 H1         2.3428    3.3235    9.0250 H         1 RES1    0.0000
     10 N3        -3.2107    1.4816    7.6566 N.pl3     1 RES1    0.0000
     11 N4         0.0146    1.6401    3.6027 N.pl3     1 RES1    0.0000
     12 C1         1.6304    2.4145    6.8849 C.ar      1 RES1    0.0000
     13 C2         1.5188    2.0899    5.5517 C.ar      1 RES1    0.0000
     14 C3         0.2545    1.8001    5.0402 C.ar      1 RES1    0.0000
     15 C4        -0.8423    1.7344    5.8163 C.ar      1 RES1    0.0000
     16 H2        -1.6785    1.4824    5.4180 H         1 RES1    0.0000
     17 C5        -0.7740    2.0064    7.2142 C.ar      1 RES1    0.0000
     18 C6         0.4852    2.4323    7.7580 C.ar      1 RES1    0.0000
     19 C7         0.5411    2.9038    9.1441 C.ar      1 RES1    0.0000
     20 C8        -0.6123    2.7206    9.9423 C.ar      1 RES1    0.0000
     21 C9        -1.7890    2.2731    9.4028 C.ar      1 RES1    0.0000
     22 H3        -2.5547    2.1664    9.9717 H         1 RES1    0.0000
     23 C10       -1.8992    1.9392    8.0696 C.ar      1 RES1    0.0000
     24 C11        1.8821    4.1992   10.8286 C.3       1 RES1    0.0000
     25 H4         2.8140    4.3970   10.9403 H         1 RES1    0.0000
     26 H5         1.3905    5.0177   10.7272 H         1 RES1    0.0000
     27 H6         1.5608    3.7254   11.5988 H         1 RES1    0.0000
     28 C12        3.6418    1.3734    7.7874 C.3       1 RES1    0.0000
     29 H7         3.0272    0.7505    8.1813 H         1 RES1    0.0000
     30 H8         3.9957    1.0040    6.9746 H         1 RES1    0.0000
     31 H9         4.3608    1.5443    8.4004 H         1 RES1    0.0000
     32 C13        3.8163    3.6226    6.8937 C.3       1 RES1    0.0000
     33 H10        3.3286    4.4295    6.7129 H         1 RES1    0.0000
     34 H11        4.5365    3.8127    7.4993 H         1 RES1    0.0000
     35 H12        4.1714    3.2732    6.0735 H         1 RES1    0.0000
     36 C14       -1.3571    2.5274   12.2088 C.3       1 RES1    0.0000
     37 H13       -1.1459    2.8590   13.0849 H         1 RES1    0.0000
     38 H14       -2.2474    2.7964   11.9707 H         1 RES1    0.0000
     39 H15       -1.3009    1.5690   12.2073 H         1 RES1    0.0000
     40 C15        2.9521    0.8208    4.1274 C.3       1 RES1    0.0000
     41 H16        3.7741    0.9375    3.6468 H         1 RES1    0.0000
     42 H17        3.0507    0.1082    4.7639 H         1 RES1    0.0000
     43 H18        2.2496    0.6036    3.5101 H         1 RES1    0.0000
@<TRIPOS>BOND
     1    1   10 2
     2    2   10 2
     3    3   11 2
     4    4   11 2
     5    5   20 1
     6    6   13 1
     7    7   12 1
     8    8    9 1
     9   10   23 1
    10   11   14 1
    11   12   13 ar
    12   13   14 ar
    13   14   15 ar
    14   15   16 1
    15   17   15 ar
    16   18   12 ar
    17   19    8 1
    18   20   19 ar
    19   21   20 ar
    20   22   21 1
    21   23   17 ar
    22   24    8 1
    23   25   24 1
    24   26   24 1
    25   27   24 1
    26   28    7 1
    27   29   28 1
    28   30   28 1
    29   31   28 1
    30   32    7 1
    31   33   32 1
    32   34   32 1
    33   35   32 1
    34   36    5 1
    35   37   36 1
    36   38   36 1
    37   39   36 1
    38   40    6 1
    39   41   40 1
    40   42   40 1
    41   43   40 1
    42   17   18 ar
    43   18   19 ar
    44   21   23 ar
@<TRIPOS>SUBSTRUCTURE
     1 RES1 1

@<TRIPOS>CRYSIN
  14.3430    7.7290   14.8820  90.0000  99.0000  90.0000 231 1

