# MOL2 file generated by ConQuest
# Please check atom types

@<TRIPOS>MOLECULE
NENPAX
    30    31     1
SMALL
NO_CHARGES
****
Generated from CSD

@<TRIPOS>ATOM
      1 O1         7.3611    1.2437    9.5319 O.2       1 RES1    0.0000
      2 N1         8.0276    0.8744   10.5629 N.3       1 RES1    0.0000
      3 N2         9.7844    0.2220   11.7546 N.2       1 RES1    0.0000
      4 N3        10.8055    0.4585    7.1827 N.2       1 RES1    0.0000
      5 N4        11.8836    0.3839    8.0140 N.pl3     1 RES1    0.0000
      6 H1        12.7978    0.2608    7.6545 H         1 RES1    0.0000
      7 C1         9.3704    0.5293   10.5772 C.2       1 RES1    0.0000
      8 C2         7.3975    0.5021   11.8545 C.3       1 RES1    0.0000
      9 C3         8.6747    0.4760   12.7295 C.3       1 RES1    0.0000
     10 C4        10.1620    0.5283    9.3664 C.2       1 RES1    0.0000
     11 C5         9.7759    0.5545    8.0111 C.2       1 RES1    0.0000
     12 H2         8.8836    0.6301    7.7258 H         1 RES1    0.0000
     13 C6        11.5327    0.4062    9.3037 C.2       1 RES1    0.0000
     14 H3        12.1179    0.3480   10.0379 H         1 RES1    0.0000
     15 C7         6.7613   -0.8696   11.6205 C.3       1 RES1    0.0000
     16 H4         7.4509   -1.5103   11.3875 H         1 RES1    0.0000
     17 H5         6.1191   -0.8094   10.8968 H         1 RES1    0.0000
     18 H6         6.3109   -1.1594   12.4290 H         1 RES1    0.0000
     19 C8         6.3291    1.5229   12.2216 C.3       1 RES1    0.0000
     20 H7         6.7443    2.3867   12.3672 H         1 RES1    0.0000
     21 H8         5.8775    1.2408   13.0320 H         1 RES1    0.0000
     22 H9         5.6856    1.5908   11.4998 H         1 RES1    0.0000
     23 C9         8.6820   -0.6262   13.7776 C.3       1 RES1    0.0000
     24 H10        8.4817   -1.4764   13.3553 H         1 RES1    0.0000
     25 H11        8.0131   -0.4353   14.4539 H         1 RES1    0.0000
     26 H12        9.5574   -0.6708   14.1933 H         1 RES1    0.0000
     27 C10        8.9904    1.8079   13.4010 C.3       1 RES1    0.0000
     28 H13        8.9868    2.5146   12.7362 H         1 RES1    0.0000
     29 H14        9.8658    1.7604   13.8176 H         1 RES1    0.0000
     30 H15        8.3214    1.9970   14.0772 H         1 RES1    0.0000
@<TRIPOS>BOND
     1    1    2 1
     2    2    7 1
     3    3    7 2
     4    4    5 1
     5    5    6 1
     6    7   10 1
     7    8    2 1
     8    9    3 1
     9   10   11 1
    10   11    4 2
    11   12   11 1
    12   13    5 1
    13   14   13 1
    14   15    8 1
    15   16   15 1
    16   17   15 1
    17   18   15 1
    18   19    8 1
    19   20   19 1
    20   21   19 1
    21   22   19 1
    22   23    9 1
    23   24   23 1
    24   25   23 1
    25   26   23 1
    26   27    9 1
    27   28   27 1
    28   29   27 1
    29   30   27 1
    30    8    9 1
    31   10   13 2
@<TRIPOS>SUBSTRUCTURE
     1 RES1 1

@<TRIPOS>CRYSIN
  12.1410    9.6940    9.5110  90.0000  90.0000  90.0000  33 1

