# MOL2 file generated by ConQuest
# Please check atom types

@<TRIPOS>MOLECULE
NEQHUP
    62    64     1
SMALL
NO_CHARGES
****
Generated from CSD

@<TRIPOS>ATOM
      1 O1         1.5594    3.5264   21.2786 O.2       1 RES1    0.0000
      2 O2        -2.0313    1.7918   23.7774 O.2       1 RES1    0.0000
      3 O3        -4.4180    6.0817   17.8979 O.3       1 RES1    0.0000
      4 O4         0.2721    4.7324   24.5420 O.2       1 RES1    0.0000
      5 O5        -1.0871    4.8901   22.7591 O.3       1 RES1    0.0000
      6 O6        -5.7932    9.4613   19.7932 O.2       1 RES1    0.0000
      7 O7        -6.8530    7.6030   20.0736 O.2       1 RES1    0.0000
      8 N1        -0.3395    2.3394   20.7773 N.am      1 RES1    0.0000
      9 N2        -5.8667    8.3146   20.2172 N.pl3     1 RES1    0.0000
     10 C1         0.5303    2.9542   21.6039 C.2       1 RES1    0.0000
     11 C2         0.0272    2.8416   23.0419 C.3       1 RES1    0.0000
     12 C3        -1.2973    2.1095   22.8734 C.2       1 RES1    0.0000
     13 C4        -1.5517    1.8164   21.4136 C.3       1 RES1    0.0000
     14 H1        -2.3418    2.3448   21.1027 H         1 RES1    0.0000
     15 C5        -1.7825    0.3364   21.1049 C.3       1 RES1    0.0000
     16 H2        -1.7220    0.2129   20.1249 H         1 RES1    0.0000
     17 H3        -1.0459   -0.1835   21.5150 H         1 RES1    0.0000
     18 C6        -3.0975   -0.2541   21.5765 C.3       1 RES1    0.0000
     19 H4        -3.1414   -0.1751   22.5719 H         1 RES1    0.0000
     20 C7        -3.1813   -1.7303   21.2031 C.3       1 RES1    0.0000
     21 H5        -2.4147   -2.2075   21.5845 H         1 RES1    0.0000
     22 H6        -4.0125   -2.1109   21.5581 H         1 RES1    0.0000
     23 H7        -3.1721   -1.8209   20.2279 H         1 RES1    0.0000
     24 C8        -4.2761    0.4667   20.9889 C.3       1 RES1    0.0000
     25 H8        -5.1049    0.0588   21.3160 H         1 RES1    0.0000
     26 H9        -4.2485    1.4091   21.2561 H         1 RES1    0.0000
     27 H10       -4.2435    0.4034   20.0122 H         1 RES1    0.0000
     28 C9        -0.2700    2.4896   19.3148 C.3       1 RES1    0.0000
     29 H11       -0.3798    1.6052   18.8834 H         1 RES1    0.0000
     30 H12        0.6163    2.8490   19.0584 H         1 RES1    0.0000
     31 C10       -1.3526    3.4239   18.8343 C.ar      1 RES1    0.0000
     32 C11       -1.3047    4.7848   19.1736 C.ar      1 RES1    0.0000
     33 H13       -0.5520    5.1238   19.6455 H         1 RES1    0.0000
     34 C12       -2.3300    5.6339   18.8336 C.ar      1 RES1    0.0000
     35 H14       -2.2778    6.5539   19.0632 H         1 RES1    0.0000
     36 C13       -3.4367    5.1551   18.1596 C.ar      1 RES1    0.0000
     37 C14       -3.5050    3.8100   17.8003 C.ar      1 RES1    0.0000
     38 H15       -4.2570    3.4723   17.3280 H         1 RES1    0.0000
     39 C15       -2.4539    2.9748   18.1471 C.ar      1 RES1    0.0000
     40 H16       -2.4973    2.0590   17.9008 H         1 RES1    0.0000
     41 C16       -5.5905    5.6160   17.2460 C.3       1 RES1    0.0000
     42 H17       -6.2101    6.3634   17.1147 H         1 RES1    0.0000
     43 H18       -5.3507    5.2344   16.3765 H         1 RES1    0.0000
     44 H19       -6.0193    4.9277   17.7977 H         1 RES1    0.0000
     45 C17       -0.2258    4.2543   23.5660 C.2       1 RES1    0.0000
     46 C18       -1.3635    6.2735   23.1020 C.3       1 RES1    0.0000
     47 H20       -0.5693    6.8312   22.9050 H         1 RES1    0.0000
     48 H21       -1.5611    6.3452   24.0698 H         1 RES1    0.0000
     49 C19       -2.5346    6.7624   22.3083 C.ar      1 RES1    0.0000
     50 C20       -2.5540    8.0960   21.8874 C.ar      1 RES1    0.0000
     51 H22       -1.8114    8.6591   22.0758 H         1 RES1    0.0000
     52 C21       -3.6340    8.6031   21.2041 C.ar      1 RES1    0.0000
     53 H23       -3.6438    9.5094   20.9182 H         1 RES1    0.0000
     54 C22       -4.7040    7.7725   20.9407 C.ar      1 RES1    0.0000
     55 C23       -4.7136    6.4434   21.3254 C.ar      1 RES1    0.0000
     56 H24       -5.4541    5.8843   21.1219 H         1 RES1    0.0000
     57 C24       -3.6257    5.9474   22.0094 C.ar      1 RES1    0.0000
     58 H25       -3.6191    5.0369   22.2819 H         1 RES1    0.0000
     59 C25        0.9980    2.1016   23.9620 C.3       1 RES1    0.0000
     60 H26        1.8307    2.6123   24.0363 H         1 RES1    0.0000
     61 H27        0.5946    2.0030   24.8487 H         1 RES1    0.0000
     62 H28        1.1894    1.2158   23.5905 H         1 RES1    0.0000
@<TRIPOS>BOND
     1    1   10 2
     2    2   12 2
     3    3   36 1
     4    4   45 2
     5    5   45 1
     6    6    9 2
     7    7    9 2
     8    8   10 1
     9    9   54 1
    10   10   11 1
    11   11   12 1
    12   12   13 1
    13   13    8 1
    14   14   13 1
    15   15   13 1
    16   16   15 1
    17   17   15 1
    18   18   15 1
    19   19   18 1
    20   20   18 1
    21   21   20 1
    22   22   20 1
    23   23   20 1
    24   24   18 1
    25   25   24 1
    26   26   24 1
    27   27   24 1
    28   28    8 1
    29   29   28 1
    30   30   28 1
    31   31   28 1
    32   32   31 ar
    33   33   32 1
    34   34   32 ar
    35   35   34 1
    36   36   34 ar
    37   37   36 ar
    38   38   37 1
    39   39   31 ar
    40   40   39 1
    41   41    3 1
    42   42   41 1
    43   43   41 1
    44   44   41 1
    45   45   11 1
    46   46    5 1
    47   47   46 1
    48   48   46 1
    49   49   46 1
    50   50   49 ar
    51   51   50 1
    52   52   50 ar
    53   53   52 1
    54   54   52 ar
    55   55   54 ar
    56   56   55 1
    57   57   49 ar
    58   58   57 1
    59   59   11 1
    60   60   59 1
    61   61   59 1
    62   62   59 1
    63   37   39 ar
    64   55   57 ar
@<TRIPOS>SUBSTRUCTURE
     1 RES1 1

@<TRIPOS>CRYSIN
   7.2300   14.0070   24.1930  90.0000  97.8420  90.0000  14 1

