# MOL2 file generated by ConQuest
# Please check atom types

@<TRIPOS>MOLECULE
NEQJUQ
    42    43     1
SMALL
NO_CHARGES
****
Generated from CSD

@<TRIPOS>ATOM
      1 O1         0.9166    6.2594    1.9572 O.3       1 RES1    0.0000
      2 H1         1.1477    7.0305    2.1099 H         1 RES1    0.0000
      3 O2        14.6246    6.6431   -0.2256 O.2       1 RES1    0.0000
      4 O3        14.2100    7.3259   -2.2209 O.2       1 RES1    0.0000
      5 O4         1.1574    1.5399    2.5173 O.3       1 RES1    0.0000
      6 H2         0.4421    1.8559    2.7644 H         1 RES1    0.0000
      7 N1         2.7185    3.9588    1.6110 N.3       1 RES1    0.0000
      8 N2         8.1043    4.9959    0.5432 N.2       1 RES1    0.0000
      9 N3         8.4309    5.4928   -0.5727 N.2       1 RES1    0.0000
     10 N4        13.8577    6.8570   -1.1541 N.pl3     1 RES1    0.0000
     11 C1         1.4201    5.8552    0.6911 C.3       1 RES1    0.0000
     12 H3         2.2487    6.3241    0.5017 H         1 RES1    0.0000
     13 H4         0.7791    6.0764   -0.0033 H         1 RES1    0.0000
     14 C2         1.6656    4.3756    0.7022 C.3       1 RES1    0.0000
     15 H5         0.8436    3.9250    0.9503 H         1 RES1    0.0000
     16 H6         1.8975    4.0911   -0.1949 H         1 RES1    0.0000
     17 C3         4.0397    4.1360    1.2914 C.ar      1 RES1    0.0000
     18 C4         5.0579    3.9015    2.2261 C.ar      1 RES1    0.0000
     19 H7         4.8414    3.5465    3.0579 H         1 RES1    0.0000
     20 C5         6.3687    4.1859    1.9371 C.ar      1 RES1    0.0000
     21 H8         7.0187    4.0411    2.5861 H         1 RES1    0.0000
     22 C6         6.7465    4.6858    0.6983 C.ar      1 RES1    0.0000
     23 C7         9.8111    5.8250   -0.6457 C.ar      1 RES1    0.0000
     24 C8        10.7337    5.5560    0.3522 C.ar      1 RES1    0.0000
     25 H9        10.4566    5.1393    1.1363 H         1 RES1    0.0000
     26 C9        12.0535    5.9015    0.1927 C.ar      1 RES1    0.0000
     27 H10       12.6744    5.7155    0.8594 H         1 RES1    0.0000
     28 C10       12.4408    6.5248   -0.9669 C.ar      1 RES1    0.0000
     29 C11       10.2303    6.4748   -1.7953 C.ar      1 RES1    0.0000
     30 H11        9.6133    6.6740   -2.4620 H         1 RES1    0.0000
     31 C12       11.5533    6.8298   -1.9637 C.ar      1 RES1    0.0000
     32 H12       11.8347    7.2657   -2.7356 H         1 RES1    0.0000
     33 C13        2.3146    3.6126    2.9638 C.3       1 RES1    0.0000
     34 H13        1.4489    4.0147    3.1388 H         1 RES1    0.0000
     35 H14        2.9491    4.0029    3.5840 H         1 RES1    0.0000
     36 C14        2.2206    2.1514    3.2406 C.3       1 RES1    0.0000
     37 H15        3.0575    1.7251    2.9992 H         1 RES1    0.0000
     38 H16        2.0799    2.0147    4.1909 H         1 RES1    0.0000
     39 C15        4.4474    4.5836    0.0188 C.ar      1 RES1    0.0000
     40 H17        3.8061    4.7027   -0.6446 H         1 RES1    0.0000
     41 C16        5.7571    4.8482   -0.2669 C.ar      1 RES1    0.0000
     42 H18        5.9910    5.1407   -1.1186 H         1 RES1    0.0000
@<TRIPOS>BOND
     1    1    2 1
     2    3   10 2
     3    4   10 2
     4    5    6 1
     5    7   14 1
     6    8    9 2
     7    9   23 1
     8   10   28 1
     9   11    1 1
    10   12   11 1
    11   13   11 1
    12   14   11 1
    13   15   14 1
    14   16   14 1
    15   17    7 1
    16   18   17 ar
    17   19   18 1
    18   20   18 ar
    19   21   20 1
    20   22    8 1
    21   23   24 ar
    22   24   25 1
    23   26   24 ar
    24   27   26 1
    25   28   26 ar
    26   29   23 ar
    27   30   29 1
    28   31   28 ar
    29   32   31 1
    30   33    7 1
    31   34   33 1
    32   35   33 1
    33   36    5 1
    34   37   36 1
    35   38   36 1
    36   39   17 ar
    37   40   39 1
    38   41   22 ar
    39   42   41 1
    40   20   22 ar
    41   29   31 ar
    42   33   36 1
    43   39   41 ar
@<TRIPOS>SUBSTRUCTURE
     1 RES1 1

@<TRIPOS>CRYSIN
  19.0000    7.3502   11.0825  90.0000  92.0600  90.0000  14 1

