# MOL2 file generated by ConQuest
# Please check atom types

@<TRIPOS>MOLECULE
NEQKUP
    47    51     1
SMALL
NO_CHARGES
****
Generated from CSD

@<TRIPOS>ATOM
      1 O1         2.4276    0.6675    1.7097 O.3       1 RES1    0.0000
      2 O2         1.2680   -1.0586    0.8582 O.2       1 RES1    0.0000
      3 O3         6.3504    2.3748   -0.3970 O.2       1 RES1    0.0000
      4 O4         7.1258    1.4600   -2.1928 O.2       1 RES1    0.0000
      5 O5         2.9246   -2.7426   -3.5376 O.2       1 RES1    0.0000
      6 O6         5.0721   -2.7249   -3.7454 O.2       1 RES1    0.0000
      7 N1         6.3010    1.5524   -1.2974 N.pl3     1 RES1    0.0000
      8 N2         4.0344   -2.3263   -3.2419 N.pl3     1 RES1    0.0000
      9 C1         4.0049    3.2673    3.1490 C.ar      1 RES1    0.0000
     10 C2         2.7501    2.7660    3.4666 C.ar      1 RES1    0.0000
     11 C3         4.1133    4.5452    2.6185 C.ar      1 RES1    0.0000
     12 C4         2.9846    5.3069    2.3888 C.ar      1 RES1    0.0000
     13 C5         1.7241    4.8038    2.6794 C.ar      1 RES1    0.0000
     14 C6         1.6115    3.5352    3.2318 C.ar      1 RES1    0.0000
     15 C7        -0.5386    2.4355    5.9618 C.ar      1 RES1    0.0000
     16 C8         0.4062    2.2787    4.9668 C.ar      1 RES1    0.0000
     17 C9        -0.3583    1.8110    7.1765 C.ar      1 RES1    0.0000
     18 C10        0.7584    1.0371    7.4096 C.ar      1 RES1    0.0000
     19 C11        1.7246    0.8710    6.4180 C.ar      1 RES1    0.0000
     20 C12        1.5456    1.4973    5.1932 C.ar      1 RES1    0.0000
     21 C13        2.4464    1.3825    3.9819 C.3       1 RES1    0.0000
     22 C14        0.3253    2.8061    3.5460 C.3       1 RES1    0.0000
     23 C15        1.5756    0.7113    2.8939 C.3       1 RES1    0.0000
     24 C16        0.3081    1.5403    2.6456 C.3       1 RES1    0.0000
     25 C17        2.1795   -0.2791    0.8177 C.2       1 RES1    0.0000
     26 C18        3.2149   -0.2688   -0.2686 C.ar      1 RES1    0.0000
     27 C19        3.1378   -1.2481   -1.2468 C.ar      1 RES1    0.0000
     28 C20        4.1097   -1.2808   -2.2266 C.ar      1 RES1    0.0000
     29 C21        5.1638   -0.3846   -2.2739 C.ar      1 RES1    0.0000
     30 C22        5.1886    0.5834   -1.2941 C.ar      1 RES1    0.0000
     31 C23        4.2409    0.6675   -0.2872 C.ar      1 RES1    0.0000
     32 H1         4.8337    2.7258    3.3517 H         1 RES1    0.0000
     33 H2         4.9782    4.9009    2.3922 H         1 RES1    0.0000
     34 H3         3.0677    6.1798    1.9749 H         1 RES1    0.0000
     35 H4         0.9197    5.3396    2.4581 H         1 RES1    0.0000
     36 H5        -1.3454    2.9499    5.8199 H         1 RES1    0.0000
     37 H6        -1.0061    1.9230    7.8675 H         1 RES1    0.0000
     38 H7         0.9612    0.6535    8.2256 H         1 RES1    0.0000
     39 H8         2.4543    0.4201    6.5464 H         1 RES1    0.0000
     40 H9         3.2695    0.8682    4.1525 H         1 RES1    0.0000
     41 H10       -0.4718    3.3699    3.3754 H         1 RES1    0.0000
     42 H11        1.3651   -0.1867    3.1338 H         1 RES1    0.0000
     43 H12        0.2782    1.7830    1.6911 H         1 RES1    0.0000
     44 H13       -0.4950    1.0175    2.8669 H         1 RES1    0.0000
     45 H14        2.4033   -1.9230   -1.2366 H         1 RES1    0.0000
     46 H15        5.7968   -0.4294   -2.9649 H         1 RES1    0.0000
     47 H16        4.3420    1.3069    0.3902 H         1 RES1    0.0000
@<TRIPOS>BOND
     1    1   23 1
     2    2   25 2
     3    3    7 2
     4    4    7 2
     5    5    8 2
     6    6    8 2
     7    7   30 1
     8    8   28 1
     9    9   10 ar
    10   10   14 ar
    11   11    9 ar
    12   12   11 ar
    13   13   12 ar
    14   14   13 ar
    15   15   16 ar
    16   16   20 ar
    17   17   15 ar
    18   18   17 ar
    19   19   18 ar
    20   20   19 ar
    21   21   10 1
    22   22   14 1
    23   23   21 1
    24   24   22 1
    25   25    1 1
    26   26   25 1
    27   27   26 ar
    28   28   27 ar
    29   29   28 ar
    30   30   29 ar
    31   31   26 ar
    32   32    9 1
    33   33   11 1
    34   34   12 1
    35   35   13 1
    36   36   15 1
    37   37   17 1
    38   38   18 1
    39   39   19 1
    40   40   21 1
    41   41   22 1
    42   42   23 1
    43   43   24 1
    44   44   24 1
    45   45   27 1
    46   46   29 1
    47   47   31 1
    48   16   22 1
    49   20   21 1
    50   23   24 1
    51   30   31 ar
@<TRIPOS>SUBSTRUCTURE
     1 RES1 1

@<TRIPOS>CRYSIN
  12.3650    9.3350   17.4080  90.0000 103.9600  90.0000  14 1

