# MOL2 file generated by ConQuest
# Please check atom types

@<TRIPOS>MOLECULE
NEQKOJ
    45    49     1
SMALL
NO_CHARGES
****
Generated from CSD

@<TRIPOS>ATOM
      1 N1         4.4735    4.8818   12.4095 N.pl3     1 RES1    0.0000
      2 O1         5.0509    3.0366    6.3695 O.3       1 RES1    0.0000
      3 O2         7.1441    3.8043    6.6535 O.2       1 RES1    0.0000
      4 O3         5.1339    5.6963   13.0325 O.2       1 RES1    0.0000
      5 O4         3.5224    4.2799   12.8851 O.2       1 RES1    0.0000
      6 C1         1.8296    2.2779    5.1366 C.ar      1 RES1    0.0000
      7 C2         3.0342    2.3466    4.4620 C.ar      1 RES1    0.0000
      8 C3         0.7825    3.1103    4.7316 C.ar      1 RES1    0.0000
      9 C4         0.9447    3.9871    3.6772 C.ar      1 RES1    0.0000
     10 C5         2.1725    4.0721    3.0146 C.ar      1 RES1    0.0000
     11 C6         3.2127    3.2494    3.4052 C.ar      1 RES1    0.0000
     12 C7         5.2635    1.3137    1.1407 C.ar      1 RES1    0.0000
     13 C8         4.8603    1.7561    2.3951 C.ar      1 RES1    0.0000
     14 C9         5.5074   -0.0477    0.9525 C.ar      1 RES1    0.0000
     15 C10        5.3540   -0.9505    1.9926 C.ar      1 RES1    0.0000
     16 C11        4.9367   -0.5040    3.2482 C.ar      1 RES1    0.0000
     17 C12        4.6854    0.8445    3.4364 C.ar      1 RES1    0.0000
     18 C13        4.2597    1.4965    4.7400 C.3       1 RES1    0.0000
     19 C14        4.6060    3.1911    2.8109 C.3       1 RES1    0.0000
     20 C15        5.4284    2.4445    5.0898 C.3       1 RES1    0.0000
     21 C16        5.6012    3.4961    3.9767 C.3       1 RES1    0.0000
     22 C17        6.0328    3.6118    7.0740 C.2       1 RES1    0.0000
     23 C18        5.5821    3.9677    8.4567 C.ar      1 RES1    0.0000
     24 C19        6.4475    4.6876    9.2679 C.ar      1 RES1    0.0000
     25 C20        6.0769    5.0217   10.5619 C.ar      1 RES1    0.0000
     26 C21        4.8442    4.5978   11.0112 C.ar      1 RES1    0.0000
     27 C22        3.9534    3.8876   10.2276 C.ar      1 RES1    0.0000
     28 C23        4.3243    3.5867    8.9264 C.ar      1 RES1    0.0000
     29 H1         1.7667    1.6825    5.8471 H         1 RES1    0.0000
     30 H2        -0.0453    3.0011    5.2600 H         1 RES1    0.0000
     31 H3         0.2099    4.4975    3.4388 H         1 RES1    0.0000
     32 H4         2.2230    4.6836    2.2645 H         1 RES1    0.0000
     33 H5         5.4196    1.9333    0.4313 H         1 RES1    0.0000
     34 H6         5.7767   -0.3317    0.1198 H         1 RES1    0.0000
     35 H7         5.5437   -1.8686    1.8332 H         1 RES1    0.0000
     36 H8         4.8615   -1.1325    3.9540 H         1 RES1    0.0000
     37 H9         4.0741    0.8332    5.4589 H         1 RES1    0.0000
     38 H10        4.7302    3.7857    2.0728 H         1 RES1    0.0000
     39 H11        6.2803    1.9252    5.2288 H         1 RES1    0.0000
     40 H12        5.3797    4.4086    4.3494 H         1 RES1    0.0000
     41 H13        6.5201    3.5268    3.6496 H         1 RES1    0.0000
     42 H14        7.3421    4.9182    8.9264 H         1 RES1    0.0000
     43 H15        6.6639    5.5168   11.1909 H         1 RES1    0.0000
     44 H16        3.1144    3.6320   10.5799 H         1 RES1    0.0000
     45 H17        3.7179    3.0577    8.3513 H         1 RES1    0.0000
@<TRIPOS>BOND
     1    1    4 2
     2    2   20 1
     3    3   22 2
     4    5    1 2
     5    6    7 ar
     6    7   11 ar
     7    8    6 ar
     8    9    8 ar
     9   10    9 ar
    10   11   10 ar
    11   12   13 ar
    12   13   17 ar
    13   14   12 ar
    14   15   14 ar
    15   16   15 ar
    16   17   16 ar
    17   18    7 1
    18   19   11 1
    19   20   18 1
    20   21   19 1
    21   22    2 1
    22   23   22 1
    23   24   23 ar
    24   25   24 ar
    25   26    1 1
    26   27   26 ar
    27   28   23 ar
    28   29    6 1
    29   30    8 1
    30   31    9 1
    31   32   10 1
    32   33   12 1
    33   34   14 1
    34   35   15 1
    35   36   16 1
    36   37   18 1
    37   38   19 1
    38   39   20 1
    39   40   21 1
    40   41   21 1
    41   42   24 1
    42   43   25 1
    43   44   27 1
    44   45   28 1
    45   13   19 1
    46   17   18 1
    47   20   21 1
    48   25   26 ar
    49   27   28 ar
@<TRIPOS>SUBSTRUCTURE
     1 RES1 1

@<TRIPOS>CRYSIN
   9.1810    8.0891   12.4800  90.0000 106.2450  90.0000   4 1

