# MOL2 file generated by ConQuest
# Please check atom types

@<TRIPOS>MOLECULE
NEQKID
    43    47     1
SMALL
NO_CHARGES
****
Generated from CSD

@<TRIPOS>ATOM
      1 N1         2.4184   -0.8699    7.8845 N.pl3     1 RES1    0.0000
      2 O1        -0.2933    2.8963    4.8267 O.3       1 RES1    0.0000
      3 O2         3.3761   -1.4285    7.3538 O.2       1 RES1    0.0000
      4 O3         2.0597   -1.1124    9.0346 O.2       1 RES1    0.0000
      5 C1        -0.5213    5.2455    2.2839 C.ar      1 RES1    0.0000
      6 C2        -1.0970    5.2566    3.5423 C.ar      1 RES1    0.0000
      7 C3         0.4026    6.2277    1.9547 C.ar      1 RES1    0.0000
      8 C4         0.7709    7.1938    2.8772 C.ar      1 RES1    0.0000
      9 C5         0.2035    7.2022    4.1483 C.ar      1 RES1    0.0000
     10 C6        -0.7376    6.2407    4.4719 C.ar      1 RES1    0.0000
     11 C7        -3.9224    6.8381    6.0684 C.ar      1 RES1    0.0000
     12 C8        -2.9338    6.0348    5.5155 C.ar      1 RES1    0.0000
     13 C9        -5.2498    6.6169    5.7283 C.ar      1 RES1    0.0000
     14 C10       -5.5988    5.5827    4.8814 C.ar      1 RES1    0.0000
     15 C11       -4.6114    4.7664    4.3285 C.ar      1 RES1    0.0000
     16 C12       -3.2835    5.0182    4.6217 C.ar      1 RES1    0.0000
     17 C13       -2.0925    4.2565    4.0777 C.3       1 RES1    0.0000
     18 C14       -1.4548    6.0877    5.7977 C.3       1 RES1    0.0000
     19 C15       -1.4483    3.5973    5.3178 C.3       1 RES1    0.0000
     20 C16       -1.0805    4.6845    6.3519 C.3       1 RES1    0.0000
     21 C17        0.3104    1.9977    5.6457 C.ar      1 RES1    0.0000
     22 C18       -0.0921    1.7100    6.9496 C.ar      1 RES1    0.0000
     23 C19        0.6016    0.7642    7.6933 C.ar      1 RES1    0.0000
     24 C20        1.6787    0.1195    7.1167 C.ar      1 RES1    0.0000
     25 C21        2.0957    0.4054    5.8242 C.ar      1 RES1    0.0000
     26 C22        1.4112    1.3476    5.0891 C.ar      1 RES1    0.0000
     27 H1        -0.7513    4.5827    1.6809 H         1 RES1    0.0000
     28 H2         0.7990    6.2310    1.0715 H         1 RES1    0.0000
     29 H3         1.4528    7.8723    2.6464 H         1 RES1    0.0000
     30 H4         0.4314    7.8586    4.8340 H         1 RES1    0.0000
     31 H5        -3.6973    7.5516    6.6969 H         1 RES1    0.0000
     32 H6        -5.9727    7.1897    6.0830 H         1 RES1    0.0000
     33 H7        -6.5234    5.3717    4.6733 H         1 RES1    0.0000
     34 H8        -4.8773    4.0168    3.7413 H         1 RES1    0.0000
     35 H9        -2.3529    3.5983    3.4266 H         1 RES1    0.0000
     36 H10       -1.2191    6.7969    6.4748 H         1 RES1    0.0000
     37 H11       -2.0869    2.9225    5.6633 H         1 RES1    0.0000
     38 H12       -0.0820    4.6479    6.5462 H         1 RES1    0.0000
     39 H13       -1.5746    4.5261    7.2148 H         1 RES1    0.0000
     40 H14       -0.8563    2.1576    7.3632 H         1 RES1    0.0000
     41 H15        0.3479    0.5557    8.5932 H         1 RES1    0.0000
     42 H16        2.8658   -0.0617    5.4646 H         1 RES1    0.0000
     43 H17        1.6601    1.5848    4.1722 H         1 RES1    0.0000
@<TRIPOS>BOND
     1    1    3 2
     2    2   19 1
     3    4    1 2
     4    5    6 ar
     5    6   10 ar
     6    7    5 ar
     7    8    7 ar
     8    9    8 ar
     9   10    9 ar
    10   11   12 ar
    11   12   16 ar
    12   13   11 ar
    13   14   13 ar
    14   15   14 ar
    15   16   15 ar
    16   17    6 1
    17   18   10 1
    18   19   17 1
    19   20   18 1
    20   21    2 1
    21   22   21 ar
    22   23   22 ar
    23   24    1 1
    24   25   24 ar
    25   26   21 ar
    26   27    5 1
    27   28    7 1
    28   29    8 1
    29   30    9 1
    30   31   11 1
    31   32   13 1
    32   33   14 1
    33   34   15 1
    34   35   17 1
    35   36   18 1
    36   37   19 1
    37   38   20 1
    38   39   20 1
    39   40   22 1
    40   41   23 1
    41   42   25 1
    42   43   26 1
    43   12   18 1
    44   16   17 1
    45   19   20 1
    46   23   24 ar
    47   25   26 ar
@<TRIPOS>SUBSTRUCTURE
     1 RES1 1

@<TRIPOS>CRYSIN
   8.8980   17.1510   11.1940  90.0000  94.3700  90.0000 231 1

