# MOL2 file generated by ConQuest
# Please check atom types

@<TRIPOS>MOLECULE
NEQLEB
    47    49     1
SMALL
NO_CHARGES
****
Generated from CSD

@<TRIPOS>ATOM
      1 O1        -1.7383    5.9426   14.8442 O.3       1 RES1    0.0000
      2 O2         1.1897    5.9945   14.8472 O.3       1 RES1    0.0000
      3 O3        11.2076   13.4325   10.6232 O.2       1 RES1    0.0000
      4 O4         9.3695   14.3478   11.3169 O.2       1 RES1    0.0000
      5 N1         6.8133    8.1619   12.7787 N.2       1 RES1    0.0000
      6 N2         8.0899    8.3130   12.3311 N.pl3     1 RES1    0.0000
      7 H1         8.5884    7.6228   12.2067 H         1 RES1    0.0000
      8 N3        10.0793   13.3564   11.1323 N.pl3     1 RES1    0.0000
      9 C1        -3.6113    4.6724   14.3154 C.ar      1 RES1    0.0000
     10 H2        -3.3353    4.6938   13.4284 H         1 RES1    0.0000
     11 C2        -4.7512    3.9903   14.6618 C.ar      1 RES1    0.0000
     12 H3        -5.2444    3.5549   14.0041 H         1 RES1    0.0000
     13 C3        -5.1704    3.9445   15.9686 C.ar      1 RES1    0.0000
     14 H4        -5.9274    3.4613   16.2068 H         1 RES1    0.0000
     15 C4        -4.4482    4.6271   16.9144 C.ar      1 RES1    0.0000
     16 H5        -4.7387    4.6210   17.7979 H         1 RES1    0.0000
     17 C5        -3.3055    5.3201   16.5898 C.ar      1 RES1    0.0000
     18 H6        -2.8302    5.7777   17.2446 H         1 RES1    0.0000
     19 C6        -2.8731    5.3271   15.2831 C.ar      1 RES1    0.0000
     20 C7        -0.8965    6.5381   15.8253 C.3       1 RES1    0.0000
     21 H7        -0.6426    5.8758   16.4864 H         1 RES1    0.0000
     22 H8        -1.3719    7.2526   16.2771 H         1 RES1    0.0000
     23 C8         0.3225    7.0828   15.1605 C.3       1 RES1    0.0000
     24 H9         0.0758    7.5544   14.3495 H         1 RES1    0.0000
     25 H10        0.7724    7.7061   15.7522 H         1 RES1    0.0000
     26 C9         2.4348    6.3006   14.3829 C.ar      1 RES1    0.0000
     27 C10        2.8696    7.5913   14.0973 C.ar      1 RES1    0.0000
     28 H11        2.2942    8.3127   14.2120 H         1 RES1    0.0000
     29 C11        4.1508    7.7959   13.6464 C.ar      1 RES1    0.0000
     30 H12        4.4351    8.6636   13.4703 H         1 RES1    0.0000
     31 C12        5.0345    6.7422   13.4465 C.ar      1 RES1    0.0000
     32 C13        4.5739    5.4592   13.7236 C.ar      1 RES1    0.0000
     33 H13        5.1440    4.7355   13.5959 H         1 RES1    0.0000
     34 C14        3.2940    5.2362   14.1825 C.ar      1 RES1    0.0000
     35 H14        3.0081    4.3682   14.3570 H         1 RES1    0.0000
     36 C15        6.3925    6.9767   12.9844 C.2       1 RES1    0.0000
     37 H15        6.9593    6.2550   12.8377 H         1 RES1    0.0000
     38 C16        8.5748    9.5600   12.0821 C.ar      1 RES1    0.0000
     39 C17        7.8205   10.7067   12.3532 C.ar      1 RES1    0.0000
     40 H16        6.9763   10.6247   12.7331 H         1 RES1    0.0000
     41 C18        8.3194   11.9494   12.0625 C.ar      1 RES1    0.0000
     42 H17        7.8142   12.7107   12.2396 H         1 RES1    0.0000
     43 C19        9.5769   12.0623   11.5048 C.ar      1 RES1    0.0000
     44 C20       10.3561   10.9418   11.2761 C.ar      1 RES1    0.0000
     45 H18       11.2150   11.0335   10.9341 H         1 RES1    0.0000
     46 C21        9.8608    9.7040   11.5534 C.ar      1 RES1    0.0000
     47 H19       10.3804    8.9505   11.3902 H         1 RES1    0.0000
@<TRIPOS>BOND
     1    1   19 1
     2    2   23 1
     3    3    8 2
     4    4    8 2
     5    5    6 1
     6    6    7 1
     7    8   43 1
     8    9   10 1
     9   11    9 ar
    10   12   11 1
    11   13   11 ar
    12   14   13 1
    13   15   13 ar
    14   16   15 1
    15   17   15 ar
    16   18   17 1
    17   19    9 ar
    18   20    1 1
    19   21   20 1
    20   22   20 1
    21   23   20 1
    22   24   23 1
    23   25   23 1
    24   26    2 1
    25   27   26 ar
    26   28   27 1
    27   29   27 ar
    28   30   29 1
    29   31   29 ar
    30   32   31 ar
    31   33   32 1
    32   34   26 ar
    33   35   34 1
    34   36    5 2
    35   37   36 1
    36   38    6 1
    37   39   38 ar
    38   40   39 1
    39   41   39 ar
    40   42   41 1
    41   43   41 ar
    42   44   43 ar
    43   45   44 1
    44   46   38 ar
    45   47   46 1
    46   17   19 ar
    47   31   36 1
    48   32   34 ar
    49   44   46 ar
@<TRIPOS>SUBSTRUCTURE
     1 RES1 1

@<TRIPOS>CRYSIN
  16.8500   14.8680   15.1900  90.0000 100.1200  90.0000  15 1

