# MOL2 file generated by ConQuest
# Please check atom types

@<TRIPOS>MOLECULE
NEQVUC
    46    49     1
SMALL
NO_CHARGES
****
Generated from CSD

@<TRIPOS>ATOM
      1 C1         6.0718    2.0367    9.6940 C.ar      1 RES1    0.0000
      2 C2         5.3572    2.5418   10.7819 C.ar      1 RES1    0.0000
      3 H1         4.5490    3.0211   10.6416 H         1 RES1    0.0000
      4 C3         5.8314    2.3409   12.0657 C.ar      1 RES1    0.0000
      5 H2         5.3325    2.6692   12.8034 H         1 RES1    0.0000
      6 C4         7.0187    1.6719   12.2933 C.ar      1 RES1    0.0000
      7 H3         7.3416    1.5530   13.1780 H         1 RES1    0.0000
      8 C5         7.7277    1.1795   11.2225 C.ar      1 RES1    0.0000
      9 H4         8.5457    0.7210   11.3717 H         1 RES1    0.0000
     10 C6         7.2603    1.3464    9.9288 C.ar      1 RES1    0.0000
     11 H5         7.7520    0.9897    9.1985 H         1 RES1    0.0000
     12 C7         6.3782    1.7908    7.2499 C.ar      1 RES1    0.0000
     13 C8         7.5087    2.5158    6.9094 C.ar      1 RES1    0.0000
     14 H6         7.7573    3.2793    7.4170 H         1 RES1    0.0000
     15 C9         8.2745    2.1201    5.8250 C.ar      1 RES1    0.0000
     16 H7         9.0557    2.6085    5.5956 H         1 RES1    0.0000
     17 C10        7.9100    1.0231    5.0799 C.ar      1 RES1    0.0000
     18 H8         8.4421    0.7540    4.3407 H         1 RES1    0.0000
     19 C11        6.7729    0.3118    5.4029 C.ar      1 RES1    0.0000
     20 H9         6.5158   -0.4368    4.8788 H         1 RES1    0.0000
     21 C12        6.0007    0.6919    6.4998 C.ar      1 RES1    0.0000
     22 H10        5.2212    0.1993    6.7306 H         1 RES1    0.0000
     23 C13        3.9938    3.1559    7.0554 C.2       1 RES1    0.0000
     24 H11        4.4622    2.8235    6.2971 H         1 RES1    0.0000
     25 C14        2.7916    3.9251    6.8671 C.2       1 RES1    0.0000
     26 C15        2.1189    4.2466    5.7334 C.2       1 RES1    0.0000
     27 H12        2.3501    3.9934    4.8464 H         1 RES1    0.0000
     28 C16        1.0098    5.0311    6.1230 C.2       1 RES1    0.0000
     29 H13        0.3523    5.4077    5.5499 H         1 RES1    0.0000
     30 C17        1.0635    5.1445    7.4759 C.2       1 RES1    0.0000
     31 C18        0.3087    5.8572    8.5011 C.ar      1 RES1    0.0000
     32 C19        0.8861    6.0815    9.7560 C.ar      1 RES1    0.0000
     33 H14        1.7440    5.7180    9.9400 H         1 RES1    0.0000
     34 C20        0.2477    6.8136   10.7348 C.ar      1 RES1    0.0000
     35 H15        0.6670    6.9347   11.5790 H         1 RES1    0.0000
     36 C21       -0.9997    7.3765   10.5045 C.ar      1 RES1    0.0000
     37 H16       -1.4290    7.8915   11.1778 H         1 RES1    0.0000
     38 C22       -1.6051    7.1746    9.2805 C.ar      1 RES1    0.0000
     39 H17       -2.4581    7.5535    9.1016 H         1 RES1    0.0000
     40 C23       -0.9646    6.4189    8.3177 C.ar      1 RES1    0.0000
     41 O1        -1.8960    5.0394    6.7050 O.2       1 RES1    0.0000
     42 O2        -2.1924    7.1665    6.5124 O.2       1 RES1    0.0000
     43 N1         5.5965    2.1990    8.3806 N.pl3     1 RES1    0.0000
     44 N2         4.4417    2.9131    8.2332 N.2       1 RES1    0.0000
     45 N3        -1.7266    6.1889    7.0805 N.pl3     1 RES1    0.0000
     46 O3         2.1646    4.4671    7.9501 O.3       1 RES1    0.0000
@<TRIPOS>BOND
     1    1    2 ar
     2    2    3 1
     3    4    2 ar
     4    5    4 1
     5    6    4 ar
     6    7    6 1
     7    8    6 ar
     8    9    8 1
     9   10    1 ar
    10   11   10 1
    11   12   13 ar
    12   13   14 1
    13   15   13 ar
    14   16   15 1
    15   17   15 ar
    16   18   17 1
    17   19   17 ar
    18   20   19 1
    19   21   12 ar
    20   22   21 1
    21   23   24 1
    22   25   23 1
    23   26   25 2
    24   27   26 1
    25   28   26 1
    26   29   28 1
    27   30   28 2
    28   31   30 1
    29   32   31 ar
    30   33   32 1
    31   34   32 ar
    32   35   34 1
    33   36   34 ar
    34   37   36 1
    35   38   36 ar
    36   39   38 1
    37   40   31 ar
    38   41   45 2
    39   42   45 2
    40   43    1 1
    41   44   23 2
    42   45   40 1
    43   46   25 1
    44    8   10 ar
    45   12   43 1
    46   19   21 ar
    47   30   46 1
    48   38   40 ar
    49   43   44 1
@<TRIPOS>SUBSTRUCTURE
     1 RES1 1

@<TRIPOS>CRYSIN
  11.2439   17.3325   19.7575  90.0000 105.7780  90.0000  15 1

