# MOL2 file generated by ConQuest
# Please check atom types

@<TRIPOS>MOLECULE
NERGEZ
    45    45     1
SMALL
NO_CHARGES
****
Generated from CSD

@<TRIPOS>ATOM
      1 O1         5.2763    3.3536    9.3451 O.2       1 RES1    0.0000
      2 N1         5.7089    4.4766    6.9184 N.3       1 RES1    0.0000
      3 H1         5.7699    3.7578    7.3863 H         1 RES1    0.0000
      4 O2         4.0151    7.0435   10.5168 O.2       1 RES1    0.0000
      5 O3         3.1455    4.2696   11.2907 O.2       1 RES1    0.0000
      6 O4         5.1987    4.8208   12.0297 O.3       1 RES1    0.0000
      7 O5         7.3722   12.1420    6.9160 O.2       1 RES1    0.0000
      8 N2         6.2238   11.9966    7.2922 N.pl3     1 RES1    0.0000
      9 C1         5.3564    5.5549    7.5519 C.2       1 RES1    0.0000
     10 H2         5.3296    6.3408    7.0555 H         1 RES1    0.0000
     11 C2         5.0111    5.6524    8.9128 C.2       1 RES1    0.0000
     12 C3         6.3352    8.4206    8.2803 C.ar      1 RES1    0.0000
     13 H3         6.9410    7.7145    8.2743 H         1 RES1    0.0000
     14 C4         5.0574    8.2163    8.7875 C.ar      1 RES1    0.0000
     15 O6         5.3807   12.8822    7.2931 O.2       1 RES1    0.0000
     16 C5         4.9282    4.4756    9.7174 C.2       1 RES1    0.0000
     17 C6         6.0177    4.3581    5.4673 C.3       1 RES1    0.0000
     18 C7         6.7241    9.6471    7.7851 C.ar      1 RES1    0.0000
     19 H4         7.5868    9.7828    7.4652 H         1 RES1    0.0000
     20 C8         4.6449    6.9422    9.4680 C.2       1 RES1    0.0000
     21 C9         5.7976   10.6654    7.7784 C.ar      1 RES1    0.0000
     22 C10        4.1575    9.2660    8.7654 C.ar      1 RES1    0.0000
     23 H5         3.3013    9.1466    9.1074 H         1 RES1    0.0000
     24 C11        4.2964    4.5451   11.1117 C.2       1 RES1    0.0000
     25 C12        6.1442    5.7254    4.8339 C.3       1 RES1    0.0000
     26 H6         6.8574    6.2097    5.2556 H         1 RES1    0.0000
     27 H7         5.3212    6.2074    4.9454 H         1 RES1    0.0000
     28 H8         6.3331    5.6283    3.8980 H         1 RES1    0.0000
     29 C13        7.3378    3.6088    5.3633 C.3       1 RES1    0.0000
     30 H9         7.2484    2.7439    5.7699 H         1 RES1    0.0000
     31 H10        8.0240    4.1057    5.8162 H         1 RES1    0.0000
     32 H11        7.5746    3.5052    4.4397 H         1 RES1    0.0000
     33 C14        4.5194   10.4879    8.2412 C.ar      1 RES1    0.0000
     34 H12        3.9031   11.1840    8.2023 H         1 RES1    0.0000
     35 C15        4.8983    3.5469    4.8377 C.3       1 RES1    0.0000
     36 H13        4.8422    2.6902    5.2676 H         1 RES1    0.0000
     37 H14        5.0783    3.4242    3.9032 H         1 RES1    0.0000
     38 H15        4.0657    4.0139    4.9437 H         1 RES1    0.0000
     39 C16        4.6981    4.9349   13.4159 C.3       1 RES1    0.0000
     40 H16        3.7374    4.8015   13.4236 H         1 RES1    0.0000
     41 H17        5.1013    4.2415   13.9619 H         1 RES1    0.0000
     42 C17        4.9973    6.1871   13.9641 C.3       1 RES1    0.0000
     43 H18        4.6564    6.2336   14.8601 H         1 RES1    0.0000
     44 H19        4.5905    6.8746   13.4322 H         1 RES1    0.0000
     45 H20        5.9482    6.3122   13.9773 H         1 RES1    0.0000
@<TRIPOS>BOND
     1    1   16 2
     2    2    3 1
     3    4   20 2
     4    5   24 2
     5    6   24 1
     6    7    8 2
     7    8   15 2
     8    9    2 1
     9   10    9 1
    10   11    9 2
    11   12   13 1
    12   14   12 ar
    13   16   11 1
    14   17    2 1
    15   18   12 ar
    16   19   18 1
    17   20   11 1
    18   21    8 1
    19   22   14 ar
    20   23   22 1
    21   24   16 1
    22   25   17 1
    23   26   25 1
    24   27   25 1
    25   28   25 1
    26   29   17 1
    27   30   29 1
    28   31   29 1
    29   32   29 1
    30   33   21 ar
    31   34   33 1
    32   35   17 1
    33   36   35 1
    34   37   35 1
    35   38   35 1
    36   39    6 1
    37   40   39 1
    38   41   39 1
    39   42   39 1
    40   43   42 1
    41   44   42 1
    42   45   42 1
    43   14   20 1
    44   18   21 ar
    45   22   33 ar
@<TRIPOS>SUBSTRUCTURE
     1 RES1 1

@<TRIPOS>CRYSIN
   8.7087   11.9143   17.3100  90.0000  97.9970  90.0000 231 1

