# MOL2 file generated by ConQuest
# Please check atom types

@<TRIPOS>MOLECULE
NERGAV
    36    36     1
SMALL
NO_CHARGES
****
Generated from CSD

@<TRIPOS>ATOM
      1 O1         0.4512   11.4375    9.7775 O.2       1 RES1    0.0000
      2 O2         2.6099   10.7779   11.8688 O.2       1 RES1    0.0000
      3 C1         5.1829   11.5421    9.4809 C.2       1 RES1    0.0000
      4 H1         5.8932   11.4589   10.0751 H         1 RES1    0.0000
      5 O3         2.8018   11.7347    7.9548 O.2       1 RES1    0.0000
      6 N1         5.4707   11.9700    8.2829 N.3       1 RES1    0.0000
      7 H2         4.8153   12.1007    7.7414 H         1 RES1    0.0000
      8 C2         6.8124   12.2410    7.7913 C.3       1 RES1    0.0000
      9 H3         6.7654   12.5441    6.8824 H         1 RES1    0.0000
     10 H4         7.3370   11.4387    7.8346 H         1 RES1    0.0000
     11 H5         7.2211   12.9196    8.3343 H         1 RES1    0.0000
     12 C3        -0.7963    8.6147    9.0514 C.3       1 RES1    0.0000
     13 H6        -1.5663    8.1797    9.4255 H         1 RES1    0.0000
     14 H7        -0.4552    8.0893    8.3235 H         1 RES1    0.0000
     15 H8        -1.0443    9.4847    8.7313 H         1 RES1    0.0000
     16 C4         6.9389    9.9316   13.9647 C.ar      1 RES1    0.0000
     17 O4         1.4561    9.4158    9.6107 O.3       1 RES1    0.0000
     18 O5         8.0482   10.1194   15.9988 O.2       1 RES1    0.0000
     19 N2         8.0501    9.5857   14.8764 N.pl3     1 RES1    0.0000
     20 O6         8.9034    8.8084   14.4933 O.2       1 RES1    0.0000
     21 C5         5.8215    9.5489   11.9105 C.ar      1 RES1    0.0000
     22 H9         5.7467    9.1008   11.0989 H         1 RES1    0.0000
     23 C6         1.4262   10.7398    9.5822 C.2       1 RES1    0.0000
     24 C7         2.7743   11.2782    9.1041 C.2       1 RES1    0.0000
     25 C8         5.0266   11.2224   13.4488 C.ar      1 RES1    0.0000
     26 H10        4.4062   11.8761   13.6757 H         1 RES1    0.0000
     27 C9         4.9093   10.5461   12.2360 C.ar      1 RES1    0.0000
     28 C10        6.0613   10.9241   14.3186 C.ar      1 RES1    0.0000
     29 H11        6.1592   11.3840   15.1208 H         1 RES1    0.0000
     30 C11        3.7156   10.8444   11.3541 C.2       1 RES1    0.0000
     31 C12        6.8464    9.2161   12.7911 C.ar      1 RES1    0.0000
     32 H12        7.4482    8.5350   12.5939 H         1 RES1    0.0000
     33 C13        3.9163   11.1974    9.9630 C.2       1 RES1    0.0000
     34 C14        0.2575    8.7526   10.1035 C.3       1 RES1    0.0000
     35 H13       -0.1023    9.2601   10.8476 H         1 RES1    0.0000
     36 H14        0.4943    7.8706   10.4317 H         1 RES1    0.0000
@<TRIPOS>BOND
     1    1   23 2
     2    2   30 2
     3    3    4 1
     4    5   24 2
     5    6    3 1
     6    7    6 1
     7    8    6 1
     8    9    8 1
     9   10    8 1
    10   11    8 1
    11   12   13 1
    12   14   12 1
    13   15   12 1
    14   16   19 1
    15   17   23 1
    16   18   19 2
    17   19   20 2
    18   21   22 1
    19   23   24 1
    20   24   33 1
    21   25   26 1
    22   27   21 ar
    23   28   16 ar
    24   29   28 1
    25   30   27 1
    26   31   16 ar
    27   32   31 1
    28   33    3 2
    29   34   12 1
    30   35   34 1
    31   36   34 1
    32   17   34 1
    33   21   31 ar
    34   25   27 ar
    35   25   28 ar
    36   30   33 1
@<TRIPOS>SUBSTRUCTURE
     1 RES1 1

@<TRIPOS>CRYSIN
   9.1293   11.8856   13.6282  90.0000  97.6930  90.0000 231 1

