# MOL2 file generated by ConQuest
# Please check atom types

@<TRIPOS>MOLECULE
NERKOL
    48    48     1
SMALL
USER_CHARGES
****
Generated from CSD

@<TRIPOS>ATOM
      1 O1        14.0275    2.8978    8.5348 O.2       1 RES1   -1.0000
      2 N1        12.9241    2.2684    8.7727 N.pl3     1 RES1    1.0000
      3 C1        12.1722    2.4861   10.0318 C.3       1 RES1    0.0000
      4 C2        12.1011    3.9476   10.3091 C.3       1 RES1    0.0000
      5 H1        11.5556    4.3718    9.6429 H         1 RES1    0.0000
      6 H2        12.9843    4.3215   10.2852 H         1 RES1    0.0000
      7 H3        11.7169    4.0898   11.1769 H         1 RES1    0.0000
      8 C3        13.0513    1.8869   11.1310 C.3       1 RES1    0.0000
      9 H4        13.8320    2.4333   11.2507 H         1 RES1    0.0000
     10 H5        13.3193    0.9995   10.8776 H         1 RES1    0.0000
     11 H6        12.5564    1.8504   11.9528 H         1 RES1    0.0000
     12 C4        10.9239    1.6943    9.7905 C.3       1 RES1    0.0000
     13 C5         9.7878    2.7240    9.1980 C.3       1 RES1    0.0000
     14 H7         8.9743    2.2419    9.0325 H         1 RES1    0.0000
     15 H8        10.1036    3.1105    8.3782 H         1 RES1    0.0000
     16 H9         9.6237    3.4202    9.8384 H         1 RES1    0.0000
     17 C6        10.3224    0.9466   10.8038 C.3       1 RES1    0.0000
     18 H10       10.9608    0.3311   11.1689 H         1 RES1    0.0000
     19 H11        9.5786    0.4595   10.4408 H         1 RES1    0.0000
     20 H12       10.0134    1.5357   11.4940 H         1 RES1    0.0000
     21 N2        11.2685    0.8799    8.6074 N.pl3     1 RES1    0.0000
     22 O2        10.5001   -0.0441    8.1426 O.2       1 RES1    0.0000
     23 C7        12.4114    1.2827    8.0151 C.2       1 RES1    0.0000
     24 C8        12.9187    0.7276    6.8202 C.2       1 RES1    0.0000
     25 H13       12.3868    0.0629    6.6427 H         1 RES1    0.0000
     26 C9        14.0439    1.1606    6.2318 C.2       1 RES1    0.0000
     27 H14       14.5333    1.8882    6.6686 H         1 RES1    0.0000
     28 N3        14.6564    0.7150    5.1209 N.3       1 RES1    0.0000
     29 C10       15.8746    1.4325    4.6658 C.3       1 RES1    0.0000
     30 H15       16.1330    0.9063    3.8699 H         1 RES1    0.0000
     31 C11       15.5478    2.8814    4.3167 C.3       1 RES1    0.0000
     32 H16       14.7794    2.8827    3.6904 H         1 RES1    0.0000
     33 H17       16.3791    3.1974    3.9896 H         1 RES1    0.0000
     34 H18       15.3810    3.3358    5.0867 H         1 RES1    0.0000
     35 C12       16.9916    1.3041    5.6692 C.3       1 RES1    0.0000
     36 H19       17.2267    0.2140    5.7051 H         1 RES1    0.0000
     37 H20       16.8029    1.7749    6.3834 H         1 RES1    0.0000
     38 H21       17.8556    1.8001    5.2862 H         1 RES1    0.0000
     39 C13       14.1628   -0.4242    4.3507 C.3       1 RES1    0.0000
     40 H22       13.3165   -0.6420    4.8075 H         1 RES1    0.0000
     41 C14       13.7335   -0.0277    2.9603 C.3       1 RES1    0.0000
     42 H23       13.0021    0.7553    3.0121 H         1 RES1    0.0000
     43 H24       13.3849   -0.8686    2.5533 H         1 RES1    0.0000
     44 H25       14.4376    0.2518    2.5533 H         1 RES1    0.0000
     45 C15       15.1896   -1.5307    4.3227 C.3       1 RES1    0.0000
     46 H26       15.4904   -1.7749    5.2264 H         1 RES1    0.0000
     47 H27       16.0783   -1.0448    3.7103 H         1 RES1    0.0000
     48 H28       14.8068   -2.1525    3.9098 H         1 RES1    0.0000
@<TRIPOS>BOND
     1    1    2 1
     2    2    3 1
     3    3    4 1
     4    4    5 1
     5    6    4 1
     6    7    4 1
     7    8    3 1
     8    9    8 1
     9   10    8 1
    10   11    8 1
    11   12    3 1
    12   13   12 1
    13   14   13 1
    14   15   13 1
    15   16   13 1
    16   17   12 1
    17   18   17 1
    18   19   17 1
    19   20   17 1
    20   21   12 1
    21   22   21 1
    22   23    2 2
    23   24   23 1
    24   25   24 1
    25   26   24 2
    26   27   26 1
    27   28   26 1
    28   29   28 1
    29   30   29 1
    30   31   29 1
    31   32   31 1
    32   33   31 1
    33   34   31 1
    34   35   29 1
    35   36   35 1
    36   37   35 1
    37   38   35 1
    38   39   28 1
    39   40   39 1
    40   41   39 1
    41   42   41 1
    42   43   41 1
    43   44   41 1
    44   45   39 1
    45   46   45 1
    46   47   45 1
    47   48   45 1
    48   21   23 1
@<TRIPOS>SUBSTRUCTURE
     1 RES1 1

@<TRIPOS>CRYSIN
  13.6720   12.5880   19.9480  90.0000  90.0000  90.0000  61 1

