# MOL2 file generated by ConQuest
# Please check atom types

@<TRIPOS>MOLECULE
NERNII
    19    19     1
SMALL
NO_CHARGES
****
Generated from CSD

@<TRIPOS>ATOM
      1 O1         4.8420    5.3275    1.6015 O.3       1 RES1    0.0000
      2 H1         5.6413    5.5306    1.6794 H         1 RES1    0.0000
      3 O2         4.6153    6.5653    3.4685 O.2       1 RES1    0.0000
      4 O3        -0.1947    5.6238    1.6805 O.3       1 RES1    0.0000
      5 H2         0.0994    5.4333    0.8551 H         1 RES1    0.0000
      6 O4         3.2008    4.0514    4.4151 O.2       1 RES1    0.0000
      7 N1         1.9334    5.5996    3.6709 N.3       1 RES1    0.0000
      8 N2         2.1908    4.7831    4.6343 N.2       1 RES1    0.0000
      9 C1         4.1518    5.8941    2.5838 C.2       1 RES1    0.0000
     10 C2         2.6587    5.6282    2.3886 C.3       1 RES1    0.0000
     11 H3         2.5111    4.7678    1.9668 H         1 RES1    0.0000
     12 C3         1.9517    6.7781    1.6562 C.3       1 RES1    0.0000
     13 H4         2.4002    7.6278    1.8824 H         1 RES1    0.0000
     14 H5         1.9874    6.6279    0.7119 H         1 RES1    0.0000
     15 C4         0.5262    6.7408    2.2157 C.3       1 RES1    0.0000
     16 H6         0.0535    7.5659    2.0513 H         1 RES1    0.0000
     17 C5         0.7531    6.4866    3.6994 C.3       1 RES1    0.0000
     18 H7         0.0841    6.0527    4.1315 H         1 RES1    0.0000
     19 H8         1.0243    7.2916    4.1418 H         1 RES1    0.0000
@<TRIPOS>BOND
     1    1    2 1
     2    3    9 2
     3    4    5 1
     4    6    8 2
     5    7    8 1
     6    9    1 1
     7   10    7 1
     8   11   10 1
     9   12   10 1
    10   13   12 1
    11   14   12 1
    12   15    4 1
    13   16   15 1
    14   17    7 1
    15   18   17 1
    16   19   17 1
    17    9   10 1
    18   12   15 1
    19   15   17 1
@<TRIPOS>SUBSTRUCTURE
     1 RES1 1

@<TRIPOS>CRYSIN
   7.6440    8.8490   10.3030  90.0000  90.0000  90.0000  19 1

