# MOL2 file generated by ConQuest
# Please check atom types

@<TRIPOS>MOLECULE
NERQOT
    34    36     1
SMALL
NO_CHARGES
****
Generated from CSD

@<TRIPOS>ATOM
      1 O1        -2.0176   -0.0437    3.2928 O.3       1 RES1    0.0000
      2 O2        -0.8798    2.2268    4.3648 O.2       1 RES1    0.0000
      3 O3         3.0495   -0.5393    6.8263 O.2       1 RES1    0.0000
      4 O4         4.6248    0.6756    7.6159 O.2       1 RES1    0.0000
      5 N1         3.6014    0.5267    6.9682 N.pl3     1 RES1    0.0000
      6 C1        -2.2575   -1.3414    2.9446 C.2       1 RES1    0.0000
      7 H1        -3.0675   -1.6532    2.6096 H         1 RES1    0.0000
      8 C2        -1.1950   -2.0977    3.1445 C.2       1 RES1    0.0000
      9 H2        -1.1241   -3.0114    2.9857 H         1 RES1    0.0000
     10 C3        -0.1929   -1.2533    3.6419 C.2       1 RES1    0.0000
     11 H3         0.6721   -1.5018    3.8763 H         1 RES1    0.0000
     12 C4        -0.7150   -0.0183    3.7177 C.2       1 RES1    0.0000
     13 C5        -0.1840    1.2414    4.1941 C.2       1 RES1    0.0000
     14 C6         1.2947    1.2801    4.4926 C.2       1 RES1    0.0000
     15 C7         1.6364    1.4769    5.7644 C.2       1 RES1    0.0000
     16 H4         0.9410    1.4681    6.3817 H         1 RES1    0.0000
     17 C8         2.9934    1.7090    6.3143 C.3       1 RES1    0.0000
     18 C9         3.3070    3.0055    6.9834 C.3       1 RES1    0.0000
     19 H5         2.6276    3.6975    6.9649 H         1 RES1    0.0000
     20 H6         3.8381    2.9778    7.7945 H         1 RES1    0.0000
     21 C10        3.9763    2.6679    5.7131 C.3       1 RES1    0.0000
     22 H7         4.9162    2.4323    5.7465 H         1 RES1    0.0000
     23 H8         3.7056    3.1530    4.9181 H         1 RES1    0.0000
     24 C11        2.2008    1.1066    3.3358 C.ar      1 RES1    0.0000
     25 C12        3.3453    0.3217    3.4002 C.ar      1 RES1    0.0000
     26 H9         3.5626   -0.1049    4.1977 H         1 RES1    0.0000
     27 C13        4.1624    0.1653    2.3056 C.ar      1 RES1    0.0000
     28 H10        4.9236   -0.3653    2.3657 H         1 RES1    0.0000
     29 C14        3.8524    0.7929    1.1229 C.ar      1 RES1    0.0000
     30 H11        4.4118    0.7009    0.3862 H         1 RES1    0.0000
     31 C15        2.7145    1.5582    1.0308 C.ar      1 RES1    0.0000
     32 H12        2.5013    1.9759    0.2274 H         1 RES1    0.0000
     33 C16        1.8889    1.7084    2.1217 C.ar      1 RES1    0.0000
     34 H13        1.1141    2.2175    2.0455 H         1 RES1    0.0000
@<TRIPOS>BOND
     1    1    6 1
     2    2   13 2
     3    3    5 2
     4    4    5 2
     5    5   17 1
     6    6    7 1
     7    8    6 2
     8    9    8 1
     9   10    8 1
    10   11   10 1
    11   12    1 1
    12   13   12 1
    13   14   13 1
    14   15   14 2
    15   16   15 1
    16   17   15 1
    17   18   17 1
    18   19   18 1
    19   20   18 1
    20   21   17 1
    21   22   21 1
    22   23   21 1
    23   24   14 1
    24   25   24 ar
    25   26   25 1
    26   27   25 ar
    27   28   27 1
    28   29   27 ar
    29   30   29 1
    30   31   29 ar
    31   32   31 1
    32   33   24 ar
    33   34   33 1
    34   10   12 2
    35   18   21 1
    36   31   33 ar
@<TRIPOS>SUBSTRUCTURE
     1 RES1 1

@<TRIPOS>CRYSIN
  11.2067    9.8995   12.7175  90.0000  92.5370  90.0000 231 1

