# MOL2 file generated by ConQuest
# Please check atom types

@<TRIPOS>MOLECULE
NERSAF
    21    21     1
SMALL
NO_CHARGES
****
Generated from CSD

@<TRIPOS>ATOM
      1 N1         0.2594    3.8937    5.7952 N.3       1 RES1    0.0000
      2 H1        -1.5466    3.8217    4.8905 H         1 RES1    0.0000
      3 H2        -1.3826    2.8164    6.1827 H         1 RES1    0.0000
      4 H3        -0.7598    2.4480    4.7498 H         1 RES1    0.0000
      5 C1         1.0437    4.5264    4.8487 C.2       1 RES1    0.0000
      6 C2         2.1910    5.2205    5.3235 C.2       1 RES1    0.0000
      7 H4         2.7337    5.7095    4.6837 H         1 RES1    0.0000
      8 C3         2.5191    5.1981    6.6625 C.2       1 RES1    0.0000
      9 H5         3.3125    5.6942    6.9768 H         1 RES1    0.0000
     10 C4         1.7289    4.4920    7.5986 C.2       1 RES1    0.0000
     11 H6         1.3260    4.1670    9.6144 H         1 RES1    0.0000
     12 H7         2.7633    3.7450    9.2870 H         1 RES1    0.0000
     13 H8         2.4103    5.2951    9.4364 H         1 RES1    0.0000
     14 C5         0.5935    3.8705    7.1168 C.2       1 RES1    0.0000
     15 H9        -0.0115    3.4073    7.6789 H         1 RES1    0.0000
     16 C6        -0.9816    3.1834    5.3774 C.3       1 RES1    0.0000
     17 C7         2.0902    4.4207    9.0632 C.3       1 RES1    0.0000
     18 N2         0.5049    4.4371    3.5905 N.2       1 RES1    0.0000
     19 N3         1.2914    4.7378    2.5534 N.pl3     1 RES1    0.0000
     20 O1         0.7454    4.7150    1.4271 O.2       1 RES1    0.0000
     21 O2         2.5110    4.9742    2.6529 O.2       1 RES1    0.0000
@<TRIPOS>BOND
     1    1    5 1
     2    2   16 1
     3    3   16 1
     4    4   16 1
     5    5    6 1
     6    6    7 1
     7    8    6 2
     8    9    8 1
     9   10    8 1
    10   11   17 1
    11   12   17 1
    12   13   17 1
    13   14    1 1
    14   15   14 1
    15   16    1 1
    16   17   10 1
    17   18    5 2
    18   19   18 1
    19   20   19 2
    20   21   19 2
    21   10   14 2
@<TRIPOS>SUBSTRUCTURE
     1 RES1 1

@<TRIPOS>CRYSIN
  14.3053    7.6741   15.7900  90.0000 114.5860  90.0000  15 1

