# MOL2 file generated by ConQuest
# Please check atom types

@<TRIPOS>MOLECULE
NERTAI
    42    42     1
SMALL
NO_CHARGES
****
Generated from CSD

@<TRIPOS>ATOM
      1 O1        11.9626    5.8244    5.9650 O.2       1 RES1    0.0000
      2 O2        10.1667    5.0186    8.4318 O.2       1 RES1    0.0000
      3 O3         9.9915    7.1300    7.6852 O.3       1 RES1    0.0000
      4 O4         8.0209    5.2491    6.4211 O.2       1 RES1    0.0000
      5 N1        11.7361    4.4838    3.6336 N.3       1 RES1    0.0000
      6 H1        12.2782    4.9189    4.1391 H         1 RES1    0.0000
      7 C1        10.5195    4.2997    4.0561 C.2       1 RES1    0.0000
      8 H2         9.9472    3.8351    3.4898 H         1 RES1    0.0000
      9 C2        10.7932    5.4937    6.1770 C.2       1 RES1    0.0000
     10 C3         7.7635    3.4284    4.9728 C.ar      1 RES1    0.0000
     11 C4         9.9852    4.7283    5.2745 C.2       1 RES1    0.0000
     12 C5         8.5766    4.5225    5.6053 C.2       1 RES1    0.0000
     13 C6        10.2365    5.8378    7.5551 C.2       1 RES1    0.0000
     14 O5         5.7596   -0.5597    2.9343 O.2       1 RES1    0.0000
     15 C7         8.2829    2.2031    4.5946 C.ar      1 RES1    0.0000
     16 H3         9.1893    2.0313    4.7111 H         1 RES1    0.0000
     17 C8         6.4012    3.6597    4.8142 C.ar      1 RES1    0.0000
     18 H4         6.0430    4.4780    5.0739 H         1 RES1    0.0000
     19 N2         5.2518    0.4628    3.3403 N.pl3     1 RES1    0.0000
     20 C9         6.1289    1.5038    3.9072 C.ar      1 RES1    0.0000
     21 C10        7.4678    1.2338    4.0463 C.ar      1 RES1    0.0000
     22 H5         7.8187    0.4155    3.7773 H         1 RES1    0.0000
     23 C11        5.5792    2.7041    4.2813 C.ar      1 RES1    0.0000
     24 H6         4.6688    2.8634    4.1752 H         1 RES1    0.0000
     25 O6         4.0314    0.6440    3.4042 O.2       1 RES1    0.0000
     26 C12       12.2358    3.9933    2.3478 C.3       1 RES1    0.0000
     27 H7        11.5060    3.5293    1.8871 H         1 RES1    0.0000
     28 C13       13.3534    3.0099    2.5849 C.3       1 RES1    0.0000
     29 H8        13.0311    2.2817    3.1198 H         1 RES1    0.0000
     30 H9        14.0745    3.4497    3.0425 H         1 RES1    0.0000
     31 H10       13.6677    2.6741    1.7418 H         1 RES1    0.0000
     32 C14       12.6705    5.1716    1.4975 C.3       1 RES1    0.0000
     33 H11       11.9273    5.7660    1.3697 H         1 RES1    0.0000
     34 H12       12.9778    4.8554    0.6452 H         1 RES1    0.0000
     35 H13       13.3825    5.6402    1.9407 H         1 RES1    0.0000
     36 C15        9.4661    7.5595    8.9770 C.3       1 RES1    0.0000
     37 H14        8.4988    7.6149    8.9172 H         1 RES1    0.0000
     38 H15        9.6810    6.8855    9.6407 H         1 RES1    0.0000
     39 C16        9.9392    8.7413    9.3944 C.3       1 RES1    0.0000
     40 H16        9.5492    8.9606   10.2436 H         1 RES1    0.0000
     41 H17        9.7140    9.4199    8.7533 H         1 RES1    0.0000
     42 H18       10.8938    8.6894    9.4841 H         1 RES1    0.0000
@<TRIPOS>BOND
     1    1    9 2
     2    2   13 2
     3    3   13 1
     4    4   12 2
     5    5    6 1
     6    7    5 1
     7    8    7 1
     8    9   11 1
     9   10   12 1
    10   11    7 2
    11   12   11 1
    12   13    9 1
    13   14   19 2
    14   15   10 ar
    15   16   15 1
    16   17   10 ar
    17   18   17 1
    18   19   20 1
    19   20   21 ar
    20   21   15 ar
    21   22   21 1
    22   23   17 ar
    23   24   23 1
    24   25   19 2
    25   26    5 1
    26   27   26 1
    27   28   26 1
    28   29   28 1
    29   30   28 1
    30   31   28 1
    31   32   26 1
    32   33   32 1
    33   34   32 1
    34   35   32 1
    35   36    3 1
    36   37   36 1
    37   38   36 1
    38   39   36 1
    39   40   39 1
    40   41   39 1
    41   42   39 1
    42   20   23 ar
@<TRIPOS>SUBSTRUCTURE
     1 RES1 1

@<TRIPOS>CRYSIN
  14.1028   11.5412   10.4124  90.0000  98.1780  90.0000  14 1

