# MOL2 file generated by ConQuest
# Please check atom types

@<TRIPOS>MOLECULE
NESHOI
    60    66     1
SMALL
NO_CHARGES
****
Generated from CSD

@<TRIPOS>ATOM
      1 O1         0.9125    3.6740    9.2608 O.2       1 RES1    0.0000
      2 O2         0.8227    1.6495    9.7208 O.2       1 RES1    0.0000
      3 N1         5.1533   -0.0651    4.7894 N.3       1 RES1    0.0000
      4 N2         6.9732    1.6048    6.4090 N.2       1 RES1    0.0000
      5 N3         4.7704    2.6930    7.8275 N.3       1 RES1    0.0000
      6 N4         2.9688    0.9593    6.2582 N.2       1 RES1    0.0000
      7 N5         1.3028    2.5986    9.1484 N.pl3     1 RES1    0.0000
      8 C1         4.1558   -0.6914    4.0543 C.2       1 RES1    0.0000
      9 C2         4.7818   -1.5640    3.1106 C.2       1 RES1    0.0000
     10 C3         6.0989   -1.4760    3.2940 C.2       1 RES1    0.0000
     11 C4         6.3460   -0.5281    4.3353 C.2       1 RES1    0.0000
     12 C5         7.5871   -0.0944    4.7820 C.2       1 RES1    0.0000
     13 C6         7.9098    0.9108    5.6931 C.2       1 RES1    0.0000
     14 C7         9.2274    1.3994    5.9831 C.2       1 RES1    0.0000
     15 C8         9.0969    2.4085    6.8380 C.2       1 RES1    0.0000
     16 C9         7.6764    2.5425    7.1353 C.2       1 RES1    0.0000
     17 C10        7.1228    3.4916    8.0035 C.2       1 RES1    0.0000
     18 C11        5.7628    3.4903    8.3689 C.2       1 RES1    0.0000
     19 C12        5.1711    4.2659    9.4250 C.2       1 RES1    0.0000
     20 C13        3.8788    3.8998    9.5640 C.2       1 RES1    0.0000
     21 C14        3.6196    2.9392    8.5257 C.2       1 RES1    0.0000
     22 C15        2.4022    2.3230    8.1929 C.2       1 RES1    0.0000
     23 C16        2.0606    1.4415    7.1427 C.2       1 RES1    0.0000
     24 C17        0.7239    1.0563    6.7951 C.2       1 RES1    0.0000
     25 C18        0.8176    0.3585    5.6177 C.2       1 RES1    0.0000
     26 C19        2.2283    0.2666    5.2953 C.2       1 RES1    0.0000
     27 C20        2.7840   -0.4644    4.2584 C.2       1 RES1    0.0000
     28 C21        7.9975    4.5747    8.5760 C.ar      1 RES1    0.0000
     29 C22        7.8683    5.8682    8.1086 C.ar      1 RES1    0.0000
     30 C23        8.7128    6.8505    8.5981 C.ar      1 RES1    0.0000
     31 C24        9.6635    6.5762    9.5315 C.ar      1 RES1    0.0000
     32 C25        9.7892    5.2686    9.9782 C.ar      1 RES1    0.0000
     33 C26        8.9637    4.2506    9.5300 C.ar      1 RES1    0.0000
     34 C27        1.8707   -1.0576    3.2408 C.ar      1 RES1    0.0000
     35 C28        0.9155   -2.0335    3.5750 C.ar      1 RES1    0.0000
     36 C29        0.0640   -2.5386    2.6107 C.ar      1 RES1    0.0000
     37 C30        0.1368   -2.1075    1.3016 C.ar      1 RES1    0.0000
     38 C31        1.0769   -1.1711    0.9585 C.ar      1 RES1    0.0000
     39 C32        1.9431   -0.6774    1.8888 C.ar      1 RES1    0.0000
     40 H1         4.1756   -2.1827    2.3947 H         1 RES1    0.0000
     41 H2         6.8875   -1.8893    2.8148 H         1 RES1    0.0000
     42 H3         8.3332   -0.5575    4.4167 H         1 RES1    0.0000
     43 H4        10.0520    1.0627    5.6281 H         1 RES1    0.0000
     44 H5         9.7945    3.1956    7.3453 H         1 RES1    0.0000
     45 H6         4.8624    0.1276    5.8085 H         1 RES1    0.0000
     46 H7         5.7981    5.0658    9.9856 H         1 RES1    0.0000
     47 H8         3.3328    4.4216   10.5166 H         1 RES1    0.0000
     48 H9        -0.3371    1.7426    7.0968 H         1 RES1    0.0000
     49 H10       -0.1278    0.2398    4.9565 H         1 RES1    0.0000
     50 H11        4.9767    2.4481    6.8395 H         1 RES1    0.0000
     51 H12        6.9359    6.0672    7.4178 H         1 RES1    0.0000
     52 H13        8.6231    7.7397    8.2757 H         1 RES1    0.0000
     53 H14       10.3489    7.2983   10.1216 H         1 RES1    0.0000
     54 H15       10.4686    5.0633   10.6083 H         1 RES1    0.0000
     55 H16        8.8515    3.0566    9.9101 H         1 RES1    0.0000
     56 H17        0.8522   -2.3460    4.4670 H         1 RES1    0.0000
     57 H18       -0.6272   -3.4737    3.0322 H         1 RES1    0.0000
     58 H19       -0.4609   -2.4519    0.6434 H         1 RES1    0.0000
     59 H20        1.1238   -0.8624    0.0577 H         1 RES1    0.0000
     60 H21        2.6131   -0.0651    1.6122 H         1 RES1    0.0000
@<TRIPOS>BOND
     1    1    7 2
     2    2    7 2
     3    3    8 1
     4    4   13 1
     5    5   18 1
     6    6   23 2
     7    7   22 1
     8    8    9 2
     9    9   10 1
    10   10   11 2
    11   11    3 1
    12   12   11 1
    13   13   12 2
    14   14   13 1
    15   15   14 2
    16   16    4 2
    17   17   16 1
    18   18   17 2
    19   19   18 1
    20   20   19 2
    21   21    5 1
    22   22   21 2
    23   23   22 1
    24   24   23 1
    25   25   24 2
    26   26    6 1
    27   27    8 1
    28   28   17 1
    29   29   28 ar
    30   30   29 ar
    31   31   30 ar
    32   32   31 ar
    33   33   28 ar
    34   34   27 1
    35   35   34 ar
    36   36   35 ar
    37   37   36 ar
    38   38   37 ar
    39   39   34 ar
    40   40    9 1
    41   41   10 1
    42   42   12 1
    43   43   14 1
    44   44   15 1
    45   45    3 1
    46   46   19 1
    47   47   20 1
    48   48   24 1
    49   49   25 1
    50   50    5 1
    51   51   29 1
    52   52   30 1
    53   53   31 1
    54   54   32 1
    55   55   33 1
    56   56   35 1
    57   57   36 1
    58   58   37 1
    59   59   38 1
    60   60   39 1
    61   15   16 1
    62   20   21 1
    63   25   26 1
    64   26   27 2
    65   32   33 ar
    66   38   39 ar
@<TRIPOS>SUBSTRUCTURE
     1 RES1 1

@<TRIPOS>CRYSIN
  13.2310   12.7570   14.8420  90.0000  94.7400  90.0000  14 1

