# MOL2 file generated by ConQuest
# Please check atom types

@<TRIPOS>MOLECULE
NETKUU
    33    34     1
SMALL
NO_CHARGES
****
Generated from CSD

@<TRIPOS>ATOM
      1 O1         7.0834   10.1150    6.1611 O.2       1 RES1    0.0000
      2 O2         6.8797    7.8939    6.5759 O.3       1 RES1    0.0000
      3 O3         9.5420    7.6686    6.0873 O.2       1 RES1    0.0000
      4 N1         9.1829    6.9354    5.1849 N.pl3     1 RES1    0.0000
      5 N2         6.7592    8.2058    7.9921 N.2       1 RES1    0.0000
      6 O4         9.4750    5.7512    5.0970 O.2       1 RES1    0.0000
      7 C1         8.5751    7.0799    2.8263 C.ar      1 RES1    0.0000
      8 H1         9.1942    6.3809    2.6488 H         1 RES1    0.0000
      9 C2         7.1386    8.9728    5.8225 C.2       1 RES1    0.0000
     10 C3         6.7409    9.0963    3.3723 C.ar      1 RES1    0.0000
     11 H2         6.1082    9.7822    3.5494 H         1 RES1    0.0000
     12 C4         7.8695    7.6795    1.7977 C.ar      1 RES1    0.0000
     13 H3         8.0156    7.4014    0.9017 H         1 RES1    0.0000
     14 C5         6.5135    7.1258    8.6298 C.2       1 RES1    0.0000
     15 C6         6.9533    8.6801    2.0644 C.ar      1 RES1    0.0000
     16 H4         6.4693    9.0825    1.3537 H         1 RES1    0.0000
     17 C7         4.9703    5.2215   10.1893 C.3       1 RES1    0.0000
     18 H5         4.1033    4.8700   10.5122 H         1 RES1    0.0000
     19 H6         5.6901    4.6616   10.5755 H         1 RES1    0.0000
     20 C8         7.4414    8.5231    4.4242 C.ar      1 RES1    0.0000
     21 C9         8.3583    7.5213    4.1143 C.ar      1 RES1    0.0000
     22 C10        5.0191    5.1331    8.6645 C.3       1 RES1    0.0000
     23 H7         4.2360    5.6059    8.2861 H         1 RES1    0.0000
     24 H8         4.9625    4.1831    8.3915 H         1 RES1    0.0000
     25 C11        6.4349    7.2588   10.1255 C.3       1 RES1    0.0000
     26 H9         6.4770    8.2156   10.3741 H         1 RES1    0.0000
     27 H10        7.2079    6.7997   10.5392 H         1 RES1    0.0000
     28 C12        6.3004    5.7453    8.0939 C.3       1 RES1    0.0000
     29 H11        7.0740    5.1753    8.3330 H         1 RES1    0.0000
     30 H12        6.2388    5.7801    7.1069 H         1 RES1    0.0000
     31 C13        5.1399    6.6520   10.6557 C.3       1 RES1    0.0000
     32 H13        5.1469    6.6764   11.6458 H         1 RES1    0.0000
     33 H14        4.3721    7.1930   10.3424 H         1 RES1    0.0000
@<TRIPOS>BOND
     1    1    9 2
     2    2    5 1
     3    3    4 2
     4    4    6 2
     5    5   14 2
     6    7    8 1
     7    9    2 1
     8   10   11 1
     9   12    7 ar
    10   13   12 1
    11   14   25 1
    12   15   10 ar
    13   16   15 1
    14   17   18 1
    15   19   17 1
    16   20    9 1
    17   21    4 1
    18   22   17 1
    19   23   22 1
    20   24   22 1
    21   25   26 1
    22   27   25 1
    23   28   14 1
    24   29   28 1
    25   30   28 1
    26   31   17 1
    27   32   31 1
    28   33   31 1
    29    7   21 ar
    30   10   20 ar
    31   12   15 ar
    32   20   21 ar
    33   22   28 1
    34   25   31 1
@<TRIPOS>SUBSTRUCTURE
     1 RES1 1

@<TRIPOS>CRYSIN
  10.9742    9.7851   11.7102  90.0000  90.0000  90.0000  33 1

