# MOL2 file generated by ConQuest
# Please check atom types

@<TRIPOS>MOLECULE
NETKII
    33    34     1
SMALL
NO_CHARGES
****
Generated from CSD

@<TRIPOS>ATOM
      1 C1         2.7737    6.9250    2.2447 C.2       1 RES1    0.0000
      2 C2         1.5684    7.3526    3.0200 C.3       1 RES1    0.0000
      3 H1         1.8388    7.9757    3.7404 H         1 RES1    0.0000
      4 H2         1.1450    6.5624    3.4386 H         1 RES1    0.0000
      5 C3         0.5699    8.0410    2.0955 C.3       1 RES1    0.0000
      6 H3         0.2008    7.3794    1.4580 H         1 RES1    0.0000
      7 H4        -0.1815    8.4005    2.6313 H         1 RES1    0.0000
      8 C4         1.2246    9.1667    1.3288 C.3       1 RES1    0.0000
      9 H5         1.5128    9.8710    1.9619 H         1 RES1    0.0000
     10 H6         0.5662    9.5661    0.7059 H         1 RES1    0.0000
     11 C5         2.4221    8.6756    0.5456 C.3       1 RES1    0.0000
     12 H7         2.8540    9.4438    0.0941 H         1 RES1    0.0000
     13 H8         2.1190    8.0432   -0.1525 H         1 RES1    0.0000
     14 C6         3.4406    7.9830    1.4408 C.3       1 RES1    0.0000
     15 H9         4.1528    7.5795    0.8844 H         1 RES1    0.0000
     16 H10        3.8587    8.6467    2.0447 H         1 RES1    0.0000
     17 C7         4.5419    4.1346    1.4713 C.2       1 RES1    0.0000
     18 C8         5.7251    3.9421    0.5933 C.ar      1 RES1    0.0000
     19 C9         6.1324    2.6480    0.3557 C.ar      1 RES1    0.0000
     20 H11        5.6597    1.9112    0.7262 H         1 RES1    0.0000
     21 C10        7.2419    2.4527   -0.4327 C.ar      1 RES1    0.0000
     22 C11        7.9385    3.4853   -1.0101 C.ar      1 RES1    0.0000
     23 H12        8.6982    3.3173   -1.5546 H         1 RES1    0.0000
     24 C12        7.5054    4.7677   -0.7787 C.ar      1 RES1    0.0000
     25 H13        7.9624    5.5000   -1.1749 H         1 RES1    0.0000
     26 C13        6.4107    4.9985    0.0250 C.ar      1 RES1    0.0000
     27 H14        6.1249    5.8899    0.1899 H         1 RES1    0.0000
     28 N1         3.0603    5.6974    2.3314 N.2       1 RES1    0.0000
     29 N2         7.7053    1.0910   -0.6568 N.pl3     1 RES1    0.0000
     30 O1         4.2298    5.4341    1.5297 O.3       1 RES1    0.0000
     31 O2         3.9654    3.2594    2.0258 O.2       1 RES1    0.0000
     32 O3         7.0431    0.1798   -0.2080 O.2       1 RES1    0.0000
     33 O4         8.7349    0.9294   -1.2885 O.2       1 RES1    0.0000
@<TRIPOS>BOND
     1    1    2 1
     2    2    3 1
     3    4    2 1
     4    5    2 1
     5    6    5 1
     6    7    5 1
     7    8    5 1
     8    9    8 1
     9   10    8 1
    10   11    8 1
    11   12   11 1
    12   13   11 1
    13   14    1 1
    14   15   14 1
    15   16   14 1
    16   17   18 1
    17   18   19 ar
    18   19   20 1
    19   21   19 ar
    20   22   21 ar
    21   23   22 1
    22   24   22 ar
    23   25   24 1
    24   26   18 ar
    25   27   26 1
    26   28    1 2
    27   29   21 1
    28   30   17 1
    29   31   17 2
    30   32   29 2
    31   33   29 2
    32   11   14 1
    33   24   26 ar
    34   28   30 1
@<TRIPOS>SUBSTRUCTURE
     1 RES1 1

@<TRIPOS>CRYSIN
  18.4560    7.9400    8.1630  90.0000  96.2980  90.0000  14 1

