# MOL2 file generated by ConQuest
# Please check atom types

@<TRIPOS>MOLECULE
NETLEF
    35    36     1
SMALL
NO_CHARGES
****
Generated from CSD

@<TRIPOS>ATOM
      1 O1         2.1870    1.2930    5.0189 O.3       1 RES1    0.0000
      2 O2         1.3442   -1.0298    7.9843 O.2       1 RES1    0.0000
      3 O3         4.5765    2.6695    3.9093 O.2       1 RES1    0.0000
      4 O4         5.7839   -0.2024    9.9055 O.2       1 RES1    0.0000
      5 O5         4.8504    4.1600    5.4603 O.2       1 RES1    0.0000
      6 O6         1.4788   -1.1250    5.8220 O.2       1 RES1    0.0000
      7 O7         6.8252    1.5708    9.2303 O.2       1 RES1    0.0000
      8 C1         3.8785    0.0546    8.0036 C.ar      1 RES1    0.0000
      9 H1         3.7530   -0.6024    8.6505 H         1 RES1    0.0000
     10 C2         4.9608    0.9040    8.0543 C.ar      1 RES1    0.0000
     11 N1         4.5613    3.0376    5.0777 N.pl3     1 RES1    0.0000
     12 N2         1.9248    2.7121    4.6934 N.2       1 RES1    0.0000
     13 N3         1.8437   -0.7100    6.9177 N.pl3     1 RES1    0.0000
     14 C3         0.9502    2.7783    3.8741 C.2       1 RES1    0.0000
     15 C4         0.1729    1.6400    3.2767 C.3       1 RES1    0.0000
     16 H2        -0.7038    1.5962    3.6885 H         1 RES1    0.0000
     17 H3         0.6314    0.8056    3.4591 H         1 RES1    0.0000
     18 C5         2.9859    0.2089    6.9637 C.ar      1 RES1    0.0000
     19 C6         3.1269    1.1993    5.9777 C.ar      1 RES1    0.0000
     20 C7         5.1536    1.9106    7.1309 C.ar      1 RES1    0.0000
     21 H4         5.8759    2.4910    7.2018 H         1 RES1    0.0000
     22 C8         0.0171    1.8171    1.7623 C.3       1 RES1    0.0000
     23 H5         0.8781    1.6878    1.3329 H         1 RES1    0.0000
     24 H6        -0.5910    1.1432    1.4210 H         1 RES1    0.0000
     25 N4         5.9315    0.7452    9.1470 N.pl3     1 RES1    0.0000
     26 C9         4.2461    2.0319    6.1014 C.ar      1 RES1    0.0000
     27 C10       -0.5156    3.1981    1.4182 C.3       1 RES1    0.0000
     28 H7        -1.4038    3.3054    1.7949 H         1 RES1    0.0000
     29 H8        -0.5846    3.2878    0.4546 H         1 RES1    0.0000
     30 C11        0.4047    4.2852    1.9663 C.3       1 RES1    0.0000
     31 H9         0.0455    5.1576    1.7397 H         1 RES1    0.0000
     32 H10        1.2805    4.2052    1.5559 H         1 RES1    0.0000
     33 C12        0.5416    4.1697    3.4869 C.3       1 RES1    0.0000
     34 H11        1.2058    4.8025    3.8022 H         1 RES1    0.0000
     35 H12       -0.3058    4.3884    3.9063 H         1 RES1    0.0000
@<TRIPOS>BOND
     1    1   12 1
     2    2   13 2
     3    3   11 2
     4    4   25 2
     5    5   11 2
     6    6   13 2
     7    7   25 2
     8    8    9 1
     9   10    8 ar
    10   11   26 1
    11   12   14 2
    12   13   18 1
    13   14   15 1
    14   15   16 1
    15   17   15 1
    16   18    8 ar
    17   19    1 1
    18   20   10 ar
    19   21   20 1
    20   22   15 1
    21   23   22 1
    22   24   22 1
    23   25   10 1
    24   26   19 ar
    25   27   22 1
    26   28   27 1
    27   29   27 1
    28   30   27 1
    29   31   30 1
    30   32   30 1
    31   33   14 1
    32   34   33 1
    33   35   33 1
    34   18   19 ar
    35   20   26 ar
    36   30   33 1
@<TRIPOS>SUBSTRUCTURE
     1 RES1 1

@<TRIPOS>CRYSIN
  10.6930   12.5490   10.7920  90.0000 100.2250  90.0000  14 1

