# MOL2 file generated by ConQuest
# Please check atom types

@<TRIPOS>MOLECULE
NETMIK
    37    38     1
SMALL
NO_CHARGES
****
Generated from CSD

@<TRIPOS>ATOM
      1 C1         1.7528    0.3680    3.5838 C.2       1 RES1    0.0000
      2 C2         1.9876    0.6443    5.0622 C.3       1 RES1    0.0000
      3 C3         0.7050    0.2890    5.8448 C.3       1 RES1    0.0000
      4 H1         0.8985    0.3287    6.7942 H         1 RES1    0.0000
      5 H2         0.0289    0.9585    5.6543 H         1 RES1    0.0000
      6 C4         0.1362   -1.0854    5.5196 C.3       1 RES1    0.0000
      7 H3         0.7675   -1.7697    5.7912 H         1 RES1    0.0000
      8 H4        -0.6867   -1.2214    6.0155 H         1 RES1    0.0000
      9 C5        -0.1411   -1.2110    4.0359 C.3       1 RES1    0.0000
     10 H5        -0.8316   -0.5789    3.7837 H         1 RES1    0.0000
     11 H6        -0.4675   -2.1044    3.8443 H         1 RES1    0.0000
     12 C6         1.1145   -0.9446    3.2110 C.3       1 RES1    0.0000
     13 H7         1.7508   -1.6633    3.3534 H         1 RES1    0.0000
     14 H8         0.8830   -0.9331    2.2685 H         1 RES1    0.0000
     15 C7         3.1675   -0.2365    5.5134 C.3       1 RES1    0.0000
     16 H9         3.3408   -0.0869    6.4458 H         1 RES1    0.0000
     17 H10        3.9489   -0.0113    5.0026 H         1 RES1    0.0000
     18 H11        2.9498   -1.1603    5.3736 H         1 RES1    0.0000
     19 C8         2.3347    2.1110    5.3277 C.3       1 RES1    0.0000
     20 H12        2.4751    2.2413    6.2680 H         1 RES1    0.0000
     21 H13        1.6119    2.6697    5.0322 H         1 RES1    0.0000
     22 H14        3.1343    2.3424    4.8502 H         1 RES1    0.0000
     23 C9         2.4112    1.7487    0.5000 C.ar      1 RES1    0.0000
     24 C10        2.4018    1.2827   -0.8160 C.ar      1 RES1    0.0000
     25 H15        2.1215    0.4154   -1.0016 H         1 RES1    0.0000
     26 C11        2.8077    2.1083   -1.8378 C.ar      1 RES1    0.0000
     27 H16        2.8079    1.8063   -2.7171 H         1 RES1    0.0000
     28 C12        3.2177    3.4003   -1.5366 C.ar      1 RES1    0.0000
     29 C13        3.2388    3.8735   -0.2315 C.ar      1 RES1    0.0000
     30 H17        3.5203    4.7410   -0.0522 H         1 RES1    0.0000
     31 C14        2.8363    3.0406    0.8012 C.ar      1 RES1    0.0000
     32 H18        2.8500    3.3396    1.6816 H         1 RES1    0.0000
     33 N1         2.1489    1.2749    2.7731 N.2       1 RES1    0.0000
     34 N2         3.6555    4.2739   -2.6222 N.pl3     1 RES1    0.0000
     35 O1         1.9540    0.8439    1.4119 O.3       1 RES1    0.0000
     36 O2         3.6583    3.8269   -3.7672 O.2       1 RES1    0.0000
     37 O3         4.0073    5.4138   -2.3512 O.2       1 RES1    0.0000
@<TRIPOS>BOND
     1    1    2 1
     2    2    3 1
     3    3    4 1
     4    5    3 1
     5    6    3 1
     6    7    6 1
     7    8    6 1
     8    9    6 1
     9   10    9 1
    10   11    9 1
    11   12    1 1
    12   13   12 1
    13   14   12 1
    14   15    2 1
    15   16   15 1
    16   17   15 1
    17   18   15 1
    18   19    2 1
    19   20   19 1
    20   21   19 1
    21   22   19 1
    22   23   24 ar
    23   24   25 1
    24   26   24 ar
    25   27   26 1
    26   28   26 ar
    27   29   28 ar
    28   30   29 1
    29   31   23 ar
    30   32   31 1
    31   33    1 2
    32   34   28 1
    33   35   23 1
    34   36   34 2
    35   37   34 2
    36    9   12 1
    37   29   31 ar
    38   33   35 1
@<TRIPOS>SUBSTRUCTURE
     1 RES1 1

@<TRIPOS>CRYSIN
   7.0117    7.3439   14.5526  76.0640  87.6720  69.4130   2 1

