# MOL2 file generated by ConQuest
# Please check atom types

@<TRIPOS>MOLECULE
NETMUW
    41    42     1
SMALL
NO_CHARGES
****
Generated from CSD

@<TRIPOS>ATOM
      1 C1        10.2574   -0.6949    3.1500 C.2       1 RES1    0.0000
      2 C2         8.8940   -0.1232    3.5073 C.3       1 RES1    0.0000
      3 C3         8.7038   -0.2406    5.0361 C.3       1 RES1    0.0000
      4 H1         9.2910    0.3964    5.4727 H         1 RES1    0.0000
      5 H2         7.7903    0.0024    5.2555 H         1 RES1    0.0000
      6 C4         8.9886   -1.6291    5.5941 C.3       1 RES1    0.0000
      7 H3         8.8949   -1.6164    6.5597 H         1 RES1    0.0000
      8 H4         8.3454   -2.2606    5.2367 H         1 RES1    0.0000
      9 C5        10.3927   -2.0762    5.2291 C.3       1 RES1    0.0000
     10 H5        10.5405   -2.9768    5.5576 H         1 RES1    0.0000
     11 H6        11.0370   -1.4913    5.6563 H         1 RES1    0.0000
     12 C6        10.6066   -2.0472    3.7143 C.3       1 RES1    0.0000
     13 H7        11.5335   -2.2512    3.5148 H         1 RES1    0.0000
     14 H8        10.0524   -2.7255    3.2966 H         1 RES1    0.0000
     15 C7         8.7412    1.3349    3.0913 C.3       1 RES1    0.0000
     16 H9         7.8657    1.6459    3.3332 H         1 RES1    0.0000
     17 H10        8.8558    1.4111    2.1415 H         1 RES1    0.0000
     18 H11        9.4053    1.8665    3.5385 H         1 RES1    0.0000
     19 C8         7.8369   -0.9569    2.7674 C.3       1 RES1    0.0000
     20 H12        6.9619   -0.6194    2.9738 H         1 RES1    0.0000
     21 H13        7.8991   -1.8736    3.0459 H         1 RES1    0.0000
     22 H14        7.9884   -0.8979    1.8216 H         1 RES1    0.0000
     23 C9        13.2944    0.0070    1.9584 C.2       1 RES1    0.0000
     24 C10       14.4131   -0.8121    1.3790 C.ar      1 RES1    0.0000
     25 C11       14.1936   -2.0857    0.8669 C.ar      1 RES1    0.0000
     26 H15       13.3493   -2.4730    0.9024 H         1 RES1    0.0000
     27 C12       15.2555   -2.7616    0.3050 C.ar      1 RES1    0.0000
     28 C13       16.5279   -2.2435    0.2392 C.ar      1 RES1    0.0000
     29 H16       17.2319   -2.7172   -0.1432 H         1 RES1    0.0000
     30 C14       16.7059   -0.9746    0.7741 C.ar      1 RES1    0.0000
     31 C15       15.6789   -0.2484    1.3327 C.ar      1 RES1    0.0000
     32 H17       15.8317    0.6041    1.6725 H         1 RES1    0.0000
     33 N1        10.9851    0.0248    2.3813 N.2       1 RES1    0.0000
     34 N2        15.0139   -4.0815   -0.3087 N.pl3     1 RES1    0.0000
     35 N3        18.0601   -0.3957    0.7109 N.pl3     1 RES1    0.0000
     36 O1        12.1781   -0.7365    2.0041 O.3       1 RES1    0.0000
     37 O2        13.4051    1.1492    2.3098 O.2       1 RES1    0.0000
     38 O3        13.8519   -4.4229   -0.4697 O.2       1 RES1    0.0000
     39 O4        15.9854   -4.7425   -0.6482 O.2       1 RES1    0.0000
     40 O5        18.9905   -1.1288    0.4475 O.2       1 RES1    0.0000
     41 O6        18.1672    0.8062    0.9174 O.2       1 RES1    0.0000
@<TRIPOS>BOND
     1    1    2 1
     2    2    3 1
     3    3    4 1
     4    5    3 1
     5    6    3 1
     6    7    6 1
     7    8    6 1
     8    9    6 1
     9   10    9 1
    10   11    9 1
    11   12    1 1
    12   13   12 1
    13   14   12 1
    14   15    2 1
    15   16   15 1
    16   17   15 1
    17   18   15 1
    18   19    2 1
    19   20   19 1
    20   21   19 1
    21   22   19 1
    22   23   24 1
    23   24   25 ar
    24   25   26 1
    25   27   25 ar
    26   28   27 ar
    27   29   28 1
    28   30   28 ar
    29   31   24 ar
    30   32   31 1
    31   33    1 2
    32   34   27 1
    33   35   30 1
    34   36   23 1
    35   37   23 2
    36   38   34 2
    37   39   34 2
    38   40   35 2
    39   41   35 2
    40    9   12 1
    41   30   31 ar
    42   33   36 1
@<TRIPOS>SUBSTRUCTURE
     1 RES1 1

@<TRIPOS>CRYSIN
  27.8924   11.7985    9.8731  90.0000  90.0000  90.0000  56 1

