# MOL2 file generated by ConQuest
# Please check atom types

@<TRIPOS>MOLECULE
NETMOQ
    39    40     1
SMALL
NO_CHARGES
****
Generated from CSD

@<TRIPOS>ATOM
      1 C1        13.4541    4.6437    1.1961 C.2       1 RES1    0.0000
      2 C2        14.7757    4.1222    0.6478 C.3       1 RES1    0.0000
      3 C3        15.8836    4.5581    1.6279 C.3       1 RES1    0.0000
      4 H1        15.7707    4.0786    2.4633 H         1 RES1    0.0000
      5 H2        16.7457    4.3084    1.2583 H         1 RES1    0.0000
      6 C4        15.8854    6.0527    1.9155 C.3       1 RES1    0.0000
      7 H3        16.5838    6.2586    2.5558 H         1 RES1    0.0000
      8 H4        16.0727    6.5402    1.0984 H         1 RES1    0.0000
      9 C5        14.5444    6.4922    2.4700 C.3       1 RES1    0.0000
     10 H5        14.5493    7.4532    2.5981 H         1 RES1    0.0000
     11 H6        14.4020    6.0752    3.3343 H         1 RES1    0.0000
     12 C6        13.4059    6.1134    1.5339 C.3       1 RES1    0.0000
     13 H7        12.5575    6.3206    1.9553 H         1 RES1    0.0000
     14 H8        13.4713    6.6344    0.7182 H         1 RES1    0.0000
     15 C7        15.0288    4.7327   -0.7364 C.3       1 RES1    0.0000
     16 H9        15.8626    4.4053   -1.0833 H         1 RES1    0.0000
     17 H10       15.0666    5.6891   -0.6618 H         1 RES1    0.0000
     18 H11       14.3169    4.4854   -1.3307 H         1 RES1    0.0000
     19 C8        14.7891    2.5986    0.5167 C.3       1 RES1    0.0000
     20 H12       15.6374    2.3144    0.1670 H         1 RES1    0.0000
     21 H13       14.0890    2.3221   -0.0795 H         1 RES1    0.0000
     22 H14       14.6502    2.2020    1.3800 H         1 RES1    0.0000
     23 C9        10.3657    3.6252    2.2827 C.2       1 RES1    0.0000
     24 C10        9.2910    4.4013    2.9761 C.ar      1 RES1    0.0000
     25 C11        8.2612    3.6766    3.5685 C.ar      1 RES1    0.0000
     26 H15        8.2338    2.7483    3.5144 H         1 RES1    0.0000
     27 C12        7.2791    4.3803    4.2405 C.ar      1 RES1    0.0000
     28 C13        7.2865    5.7615    4.3497 C.ar      1 RES1    0.0000
     29 H16        6.6154    6.2044    4.8159 H         1 RES1    0.0000
     30 C14        8.3136    6.4663    3.7510 C.ar      1 RES1    0.0000
     31 H17        8.3340    7.3938    3.8081 H         1 RES1    0.0000
     32 C15        9.3127    5.7941    3.0652 C.ar      1 RES1    0.0000
     33 H18       10.0002    6.2728    2.6624 H         1 RES1    0.0000
     34 N1        12.5202    3.7876    1.3514 N.2       1 RES1    0.0000
     35 N2         6.1870    3.6339    4.8798 N.pl3     1 RES1    0.0000
     36 O1        11.3613    4.4585    1.9210 O.3       1 RES1    0.0000
     37 O2        10.3433    2.4399    2.1059 O.2       1 RES1    0.0000
     38 O3         6.2701    2.4160    4.9394 O.2       1 RES1    0.0000
     39 O4         5.2397    4.2647    5.3214 O.2       1 RES1    0.0000
@<TRIPOS>BOND
     1    1    2 1
     2    2    3 1
     3    3    4 1
     4    5    3 1
     5    6    3 1
     6    7    6 1
     7    8    6 1
     8    9    6 1
     9   10    9 1
    10   11    9 1
    11   12    1 1
    12   13   12 1
    13   14   12 1
    14   15    2 1
    15   16   15 1
    16   17   15 1
    17   18   15 1
    18   19    2 1
    19   20   19 1
    20   21   19 1
    21   22   19 1
    22   23   24 1
    23   24   25 ar
    24   25   26 1
    25   27   25 ar
    26   28   27 ar
    27   29   28 1
    28   30   28 ar
    29   31   30 1
    30   32   24 ar
    31   33   32 1
    32   34    1 2
    33   35   27 1
    34   36   23 1
    35   37   23 2
    36   38   35 2
    37   39   35 2
    38    9   12 1
    39   30   32 ar
    40   34   36 1
@<TRIPOS>SUBSTRUCTURE
     1 RES1 1

@<TRIPOS>CRYSIN
  11.3138   12.9150   10.7704  90.0000 110.9510  90.0000  14 1

