# MOL2 file generated by ConQuest
# Please check atom types

@<TRIPOS>MOLECULE
NETNAD
    41    42     1
SMALL
NO_CHARGES
****
Generated from CSD

@<TRIPOS>ATOM
      1 C1         6.7311    7.9808    2.1872 C.2       1 RES1    0.0000
      2 C2         7.6131    9.2214    2.1647 C.3       1 RES1    0.0000
      3 C3         8.4049    9.2141    0.8439 C.3       1 RES1    0.0000
      4 H1         7.7911    9.3766    0.1106 H         1 RES1    0.0000
      5 H2         9.0455    9.9431    0.8588 H         1 RES1    0.0000
      6 C4         9.1492    7.9145    0.5801 C.3       1 RES1    0.0000
      7 H3         9.6090    7.9728   -0.2713 H         1 RES1    0.0000
      8 H4         9.8142    7.7767    1.2717 H         1 RES1    0.0000
      9 C5         8.1887    6.7366    0.5581 C.3       1 RES1    0.0000
     10 H5         8.6908    5.9139    0.4493 H         1 RES1    0.0000
     11 H6         7.5892    6.8243   -0.2004 H         1 RES1    0.0000
     12 C6         7.3703    6.6639    1.8445 C.3       1 RES1    0.0000
     13 H7         6.6791    5.9909    1.7452 H         1 RES1    0.0000
     14 H8         7.9477    6.3909    2.5746 H         1 RES1    0.0000
     15 C7         6.8048   10.5117    2.2521 C.3       1 RES1    0.0000
     16 H9         6.2148   10.5718    1.4964 H         1 RES1    0.0000
     17 H10        7.4010   11.2636    2.2532 H         1 RES1    0.0000
     18 H11        6.2885   10.5119    3.0618 H         1 RES1    0.0000
     19 C8         8.5588    9.1323    3.3725 C.3       1 RES1    0.0000
     20 H12        9.1336    9.9011    3.3867 H         1 RES1    0.0000
     21 H13        9.0912    8.3354    3.3037 H         1 RES1    0.0000
     22 H14        8.0426    9.1042    4.1815 H         1 RES1    0.0000
     23 C9         3.4876    7.1153    2.8090 C.2       1 RES1    0.0000
     24 C10        2.7503    5.8244    2.6703 C.ar      1 RES1    0.0000
     25 C11        1.3679    5.8978    2.6496 C.ar      1 RES1    0.0000
     26 H15        0.9361    6.7138    2.7629 H         1 RES1    0.0000
     27 C12        0.6420    4.7438    2.4586 C.ar      1 RES1    0.0000
     28 C13        1.2820    3.5241    2.3002 C.ar      1 RES1    0.0000
     29 C14        2.6572    3.4381    2.3527 C.ar      1 RES1    0.0000
     30 H16        3.0840    2.6161    2.2670 H         1 RES1    0.0000
     31 C15        3.3906    4.5980    2.5352 C.ar      1 RES1    0.0000
     32 H17        4.3193    4.5560    2.5677 H         1 RES1    0.0000
     33 N1         5.5208    8.1905    2.5286 N.2       1 RES1    0.0000
     34 N2        -0.8182    4.8593    2.4070 N.pl3     1 RES1    0.0000
     35 N3         0.5422    2.2580    2.1500 N.pl3     1 RES1    0.0000
     36 O1         4.7874    6.9331    2.5194 O.3       1 RES1    0.0000
     37 O2         2.9667    8.1527    3.0966 O.2       1 RES1    0.0000
     38 O3        -1.3281    5.8263    2.9331 O.2       1 RES1    0.0000
     39 O4        -1.4284    3.9841    1.8181 O.2       1 RES1    0.0000
     40 O5         0.0015    1.8181    3.1398 O.2       1 RES1    0.0000
     41 O6         0.5814    1.7157    1.0722 O.2       1 RES1    0.0000
@<TRIPOS>BOND
     1    1    2 1
     2    2    3 1
     3    3    4 1
     4    5    3 1
     5    6    3 1
     6    7    6 1
     7    8    6 1
     8    9    6 1
     9   10    9 1
    10   11    9 1
    11   12    1 1
    12   13   12 1
    13   14   12 1
    14   15    2 1
    15   16   15 1
    16   17   15 1
    17   18   15 1
    18   19    2 1
    19   20   19 1
    20   21   19 1
    21   22   19 1
    22   23   24 1
    23   24   25 ar
    24   25   26 1
    25   27   25 ar
    26   28   27 ar
    27   29   28 ar
    28   30   29 1
    29   31   24 ar
    30   32   31 1
    31   33    1 2
    32   34   27 1
    33   35   28 1
    34   36   23 1
    35   37   23 2
    36   38   34 2
    37   39   34 2
    38   40   35 2
    39   41   35 2
    40    9   12 1
    41   29   31 ar
    42   33   36 1
@<TRIPOS>SUBSTRUCTURE
     1 RES1 1

@<TRIPOS>CRYSIN
  11.9121    7.7814   17.5510  90.0000 100.1010  90.0000 231 1

