# MOL2 file generated by ConQuest
# Please check atom types

@<TRIPOS>MOLECULE
NEVPEK
    30    30     1
SMALL
NO_CHARGES
****
Generated from CSD

@<TRIPOS>ATOM
      1 O1         0.3784    2.2746   18.6199 O.3       1 RES1    0.0000
      2 O2        -0.9291    4.4071   17.3667 O.2       1 RES1    0.0000
      3 O3        -0.8301    8.3686   16.0696 O.3       1 RES1    0.0000
      4 O4         3.7967   -0.5330   20.0410 O.2       1 RES1    0.0000
      5 O5         5.0779   -0.0609   21.7160 O.2       1 RES1    0.0000
      6 N1         4.1478    0.2041   20.9568 N.pl3     1 RES1    0.0000
      7 C1         3.4294    1.4729   21.1537 C.ar      1 RES1    0.0000
      8 C2         3.7790    2.2834   22.2200 C.ar      1 RES1    0.0000
      9 H1         4.4716    2.0350   22.8212 H         1 RES1    0.0000
     10 C3         3.0818    3.4712   22.3795 C.ar      1 RES1    0.0000
     11 H2         3.2955    4.0490   23.1016 H         1 RES1    0.0000
     12 C4         2.0688    3.8236   21.4880 C.ar      1 RES1    0.0000
     13 H3         1.5939    4.6366   21.6157 H         1 RES1    0.0000
     14 C5         1.7445    2.9960   20.4117 C.ar      1 RES1    0.0000
     15 C6         2.4311    1.7986   20.2481 C.ar      1 RES1    0.0000
     16 H4         2.2204    1.2143   19.5286 H         1 RES1    0.0000
     17 C7         0.6618    3.4020   19.4292 C.3       1 RES1    0.0000
     18 H5        -0.1622    3.6471   19.9398 H         1 RES1    0.0000
     19 C8         1.1054    4.6080   18.6009 C.3       1 RES1    0.0000
     20 H6         1.3580    5.3443   19.2139 H         1 RES1    0.0000
     21 H7         1.9077    4.3617   18.0769 H         1 RES1    0.0000
     22 C9         0.0318    5.0975   17.6589 C.2       1 RES1    0.0000
     23 C10        0.2167    6.4707   17.0583 C.3       1 RES1    0.0000
     24 H8         0.5997    7.0750   17.7436 H         1 RES1    0.0000
     25 H9         0.8609    6.4127   16.3075 H         1 RES1    0.0000
     26 C11       -1.0786    7.0527   16.5533 C.3       1 RES1    0.0000
     27 H10       -1.4414    6.4881   15.8247 H         1 RES1    0.0000
     28 H11       -1.7440    7.0820   17.2857 H         1 RES1    0.0000
     29 H12       -0.1970    2.5263   18.0022 H         1 RES1    0.0000
     30 H13       -1.6066    8.6745   15.8403 H         1 RES1    0.0000
@<TRIPOS>BOND
     1    1   17 1
     2    2   22 2
     3    3   26 1
     4    4    6 2
     5    5    6 2
     6    6    7 1
     7    7    8 ar
     8    8    9 1
     9   10    8 ar
    10   11   10 1
    11   12   10 ar
    12   13   12 1
    13   14   12 ar
    14   15    7 ar
    15   16   15 1
    16   17   14 1
    17   18   17 1
    18   19   17 1
    19   20   19 1
    20   21   19 1
    21   22   19 1
    22   23   22 1
    23   24   23 1
    24   25   23 1
    25   26   23 1
    26   27   26 1
    27   28   26 1
    28   29    1 1
    29   30    3 1
    30   14   15 ar
@<TRIPOS>SUBSTRUCTURE
     1 RES1 1

@<TRIPOS>CRYSIN
   5.0521    6.9787   31.1510  90.0000  90.0000  90.0000  19 1

