# MOL2 file generated by ConQuest
# Please check atom types

@<TRIPOS>MOLECULE
NEVZET
    37    33     2
SMALL
USER_CHARGES
****
Generated from CSD

@<TRIPOS>ATOM
      1 O1         1.3511    5.4177    0.5831 O.2       1 RES1   -1.0000
      2 N1         0.3365    5.1260   -0.1168 N.pl3     1 RES1    1.0000
      3 O2        -2.2201    6.0907   -2.3374 O.2       1 RES1    0.0000
      4 C1        -0.0711    5.9416   -1.3210 C.3       1 RES1    0.0000
      5 C2        -1.6039    6.1218   -1.3070 C.2       1 RES1    0.0000
      6 C3        -2.2314    6.5598   -0.0120 C.3       1 RES1    0.0000
      7 C4         0.5745    7.3068   -1.1842 C.3       1 RES1    0.0000
      8 C5         0.4084    5.2101   -2.5640 C.3       1 RES1    0.0000
      9 H1        -3.1817    6.6366   -0.1268 H         1 RES1    0.0000
     10 H2        -1.8702    7.4110    0.2466 H         1 RES1    0.0000
     11 H3        -2.0433    5.9115    0.6710 H         1 RES1    0.0000
     12 H4        -1.5484    6.6695    0.6540 Du        2 SUP2    0.0000
     13 H5        -2.8592    5.8950    0.2806 Du        2 SUP2    0.0000
     14 H6        -2.6871    7.3946   -0.1428 Du        2 SUP2    0.0000
     15 H7         0.2886    7.8618   -1.8901 H         1 RES1    0.0000
     16 H8         1.5111    7.2154   -1.2161 H         1 RES1    0.0000
     17 H9         0.3243    7.6918   -0.3614 H         1 RES1    0.0000
     18 H10        0.1329    5.6884   -3.3398 H         1 RES1    0.0000
     19 H11        0.0352    4.3351   -2.5810 H         1 RES1    0.0000
     20 H12        1.3584    5.1507   -2.5501 H         1 RES1    0.0000
     21 N1B       -0.3365    4.0178    0.1168 N.pl3     1 RES1    1.0000
     22 O1B       -1.3511    3.7261   -0.5831 O.2       1 RES1   -1.0000
     23 C1B        0.0711    3.2022    1.3210 C.3       1 RES1    0.0000
     24 C2B        1.6039    3.0220    1.3070 C.2       1 RES1    0.0000
     25 O2B        2.2201    3.0531    2.3374 O.2       1 RES1    0.0000
     26 C3B        2.2314    2.5840    0.0120 C.3       1 RES1    0.0000
     27 H1B        3.1817    2.5072    0.1268 H         1 RES1    0.0000
     28 H2B        1.8702    1.7328   -0.2466 H         1 RES1    0.0000
     29 H3B        2.0433    3.2323   -0.6710 H         1 RES1    0.0000
     30 C4B       -0.5745    1.8370    1.1842 C.3       1 RES1    0.0000
     31 H7B       -0.2886    1.2820    1.8901 H         1 RES1    0.0000
     32 H8B       -1.5111    1.9284    1.2161 H         1 RES1    0.0000
     33 H9B       -0.3243    1.4520    0.3614 H         1 RES1    0.0000
     34 C5B       -0.4084    3.9337    2.5640 C.3       1 RES1    0.0000
     35 H10B      -0.1329    3.4554    3.3398 H         1 RES1    0.0000
     36 H11B      -0.0352    4.8087    2.5810 H         1 RES1    0.0000
     37 H12B      -1.3584    3.9931    2.5501 H         1 RES1    0.0000
@<TRIPOS>BOND
     1    1    2 1
     2    2    4 1
     3    3    5 2
     4    4    5 1
     5    5    6 1
     6    6    9 1
     7    7    4 1
     8    8    4 1
     9   10    6 1
    10   11    6 1
    11   15    7 1
    12   16    7 1
    13   17    7 1
    14   18    8 1
    15   19    8 1
    16   20    8 1
    17   21    2 2
    18   22   21 1
    19   23   21 1
    20   24   23 1
    21   25   24 2
    22   26   24 1
    23   27   26 1
    24   28   26 1
    25   29   26 1
    26   30   23 1
    27   31   30 1
    28   32   30 1
    29   33   30 1
    30   34   23 1
    31   35   34 1
    32   36   34 1
    33   37   34 1
@<TRIPOS>SUBSTRUCTURE
     1 RES1 1
     2 SUP2 12

@<TRIPOS>CRYSIN
   6.7448    9.1438   10.3286  90.0000 104.8290  90.0000 231 1

