# MOL2 file generated by ConQuest
# Please check atom types

@<TRIPOS>MOLECULE
NEWHEF
    97    78     2
SMALL
NO_CHARGES
****
Generated from CSD

@<TRIPOS>ATOM
      1 O1         4.2040    2.1613    4.6004 O.3       1 RES1    0.0000
      2 O2         2.9583    1.8144    2.7733 O.3       1 RES1    0.0000
      3 O3         4.8161    2.3970    1.6258 O.2       1 RES1    0.0000
      4 O4         3.7708    0.5504    1.1894 O.2       1 RES1    0.0000
      5 O5         1.2700    3.9626    3.5012 O.3       1 RES1    0.0000
      6 O6        -0.6225    2.8432    4.0403 O.2       1 RES1    0.0000
      7 O7         1.0717    4.0913    6.3584 O.3       1 RES1    0.0000
      8 O8         1.3788    6.2750    6.7737 O.2       1 RES1    0.0000
      9 O9         3.7546    4.2113    7.5604 O.3       1 RES1    0.0000
     10 O10        2.4333    3.1727    9.0142 O.2       1 RES1    0.0000
     11 O11        6.8348    2.1384    5.8151 O.3       1 RES1    0.0000
     12 O12        7.0719    0.0333    6.5136 O.2       1 RES1    0.0000
     13 N1         3.9542    1.5765    1.7747 N.pl3     1 RES1    0.0000
     14 C1         3.3200    2.7892    3.7215 C.3       1 RES1    0.0000
     15 H1         3.7385    3.5864    3.2867 H         1 RES1    0.0000
     16 C2         2.0224    3.1552    4.4242 C.3       1 RES1    0.0000
     17 H2         1.5102    2.3314    4.6670 H         1 RES1    0.0000
     18 C3         2.3122    3.9757    5.6451 C.3       1 RES1    0.0000
     19 H3         2.6322    4.8833    5.3741 H         1 RES1    0.0000
     20 C4         3.3528    3.3069    6.5241 C.3       1 RES1    0.0000
     21 H4         2.9803    2.4688    6.9234 H         1 RES1    0.0000
     22 C5         4.5961    2.9905    5.6997 C.3       1 RES1    0.0000
     23 H5         5.0277    3.8312    5.3736 H         1 RES1    0.0000
     24 C6         5.5529    2.1913    6.5241 C.3       1 RES1    0.0000
     25 H6         5.6728    2.6141    7.4116 H         1 RES1    0.0000
     26 H7         5.2020    1.2754    6.6599 H         1 RES1    0.0000
     27 C7         7.5875    1.1019    6.0668 C.2       1 RES1    0.0000
     28 C8         8.9332    1.3092    5.4752 C.ar      1 RES1    0.0000
     29 C9         9.0880    1.8711    4.2417 C.ar      1 RES1    0.0000
     30 H8         8.3279    2.2250    3.7959 H         1 RES1    0.0000
     31 C10       10.3867    1.9366    3.5851 C.ar      1 RES1    0.0000
     32 H9        10.4935    2.3304    2.7273 H         1 RES1    0.0000
     33 C11       11.4642    1.3965    4.2837 C.ar      1 RES1    0.0000
     34 H10       12.3374    1.5044    3.9254 H         1 RES1    0.0000
     35 C12       11.3246    0.7201    5.4437 C.ar      1 RES1    0.0000
     36 H11       12.0647    0.2710    5.8353 H         1 RES1    0.0000
     37 C13       10.0895    0.6873    6.0479 C.ar      1 RES1    0.0000
     38 H12        9.9999    0.2386    6.8786 H         1 RES1    0.0000
     39 C14       -0.0835    3.7111    3.4131 C.2       1 RES1    0.0000
     40 C15       -0.7186    4.6434    2.4670 C.ar      1 RES1    0.0000
     41 C16       -2.0707    4.4077    2.1523 C.ar      1 RES1    0.0000
     42 H13       -2.5351    3.6729    2.5333 H         1 RES1    0.0000
     43 C17       -2.7158    5.2805    1.2734 C.ar      1 RES1    0.0000
     44 H14       -3.6238    5.1274    1.0422 H         1 RES1    0.0000
     45 C18       -2.0479    6.3552    0.7405 C.ar      1 RES1    0.0000
     46 H15       -2.4986    6.9564    0.1611 H         1 RES1    0.0000
     47 C19       -0.7075    6.5516    1.0531 C.ar      1 RES1    0.0000
     48 H16       -0.2387    7.2742    0.6504 H         1 RES1    0.0000
     49 C20       -0.0530    5.7306    1.9279 C.ar      1 RES1    0.0000
     50 H17        0.8507    5.9045    2.1622 H         1 RES1    0.0000
     51 C21        0.7319    5.2794    6.9227 C.2       1 RES1    0.0000
     52 C22       -0.4891    5.1605    7.7052 C.ar      1 RES1    0.0000
     53 C23       -1.3507    4.0548    7.5667 C.ar      1 RES1    0.0000
     54 H18       -1.1564    3.3799    6.9267 H         1 RES1    0.0000
     55 C24       -2.4768    3.9500    8.3555 C.ar      1 RES1    0.0000
     56 H19       -3.0571    3.2052    8.2522 H         1 RES1    0.0000
     57 C25       -2.7630    4.9150    9.2911 C.ar      1 RES1    0.0000
     58 H20       -3.5372    4.8355    9.8369 H         1 RES1    0.0000
     59 C26       -1.9125    6.0137    9.4358 C.ar      1 RES1    0.0000
     60 H21       -2.1145    6.6828   10.0802 H         1 RES1    0.0000
     61 C27       -0.7734    6.1386    8.6513 C.ar      1 RES1    0.0000
     62 H22       -0.1940    6.8845    8.7590 H         1 RES1    0.0000
     63 C28        3.2390    4.0095    8.8044 C.2       1 RES1    0.0000
     64 C29        3.8724    5.0187    9.7232 C.ar      1 RES1    0.0000
     65 C30        3.3454    5.1169   11.0050 C.ar      1 RES1    0.0000
     66 H23        2.6054    4.5772   11.2575 H         1 RES1    0.0000
     67 C31        3.9004    6.0061   11.9175 C.ar      1 RES1    0.0000
     68 H24        3.5394    6.0751   12.7936 H         1 RES1    0.0000
     69 C32        4.9824    6.7971   11.5483 C.ar      1 RES1    0.0000
     70 H25        5.3616    7.4047   12.1713 H         1 RES1    0.0000
     71 C33        5.5095    6.6989   10.2666 C.ar      1 RES1    0.0000
     72 H26        6.2498    7.2365   10.0130 H         1 RES1    0.0000
     73 C34        4.9545    5.8042    9.3540 C.ar      1 RES1    0.0000
     74 H27        5.3158    5.7387    8.4769 H         1 RES1    0.0000
     75 O13        7.5522    0.8783    7.3276 Du        2 SUP2    0.0000
     76 C35        8.9819    1.0092    5.5801 Du        2 SUP2    0.0000
     77 C36        9.5021    2.2639    5.4018 Du        2 SUP2    0.0000
     78 H28        8.9558    3.0365    5.4781 Du        2 SUP2    0.0000
     79 C37       10.9279    2.3730    5.0850 Du        2 SUP2    0.0000
     80 H29       11.3590    3.2084    4.9363 Du        2 SUP2    0.0000
     81 C38       11.5961    1.1619    5.0179 Du        2 SUP2    0.0000
     82 H30       12.5312    1.1512    4.8543 Du        2 SUP2    0.0000
     83 C39       10.8755   -0.0982    5.2004 Du        2 SUP2    0.0000
     84 H31       11.3118   -0.9335    5.0904 Du        2 SUP2    0.0000
     85 C40        9.6644   -0.0327    5.5046 Du        2 SUP2    0.0000
     86 H32        9.2226   -0.8548    5.6895 Du        2 SUP2    0.0000
     87 C41        3.5527    4.7732    9.9540 Du        2 SUP2    0.0000
     88 C42        3.3828    4.4295   11.2882 Du        2 SUP2    0.0000
     89 H33        3.0071    3.5861   11.5171 Du        2 SUP2    0.0000
     90 C43        3.7552    5.3133   12.2909 Du        2 SUP2    0.0000
     91 H34        3.6435    5.0787   13.2031 Du        2 SUP2    0.0000
     92 C44        4.3126    6.5461   11.9574 Du        2 SUP2    0.0000
     93 H35        4.5676    7.1537   12.6410 Du        2 SUP2    0.0000
     94 C45        4.4827    6.8952   10.6211 Du        2 SUP2    0.0000
     95 H36        4.8552    7.7361   10.3930 Du        2 SUP2    0.0000
     96 C46        4.0951    6.0061    9.6204 Du        2 SUP2    0.0000
     97 H37        4.2188    6.2435    8.7070 Du        2 SUP2    0.0000
@<TRIPOS>BOND
     1    1   14 1
     2    2   13 1
     3    3   13 2
     4    4   13 2
     5    5   16 1
     6    6   39 2
     7    7   18 1
     8    8   51 2
     9    9   20 1
    10   10   63 2
    11   11   24 1
    12   12   27 2
    13   14    2 1
    14   15   14 1
    15   16   14 1
    16   17   16 1
    17   18   16 1
    18   19   18 1
    19   20   18 1
    20   21   20 1
    21   22    1 1
    22   23   22 1
    23   24   22 1
    24   25   24 1
    25   26   24 1
    26   27   11 1
    27   28   27 1
    28   29   28 ar
    29   30   29 1
    30   31   29 ar
    31   32   31 1
    32   33   31 ar
    33   34   33 1
    34   35   33 ar
    35   36   35 1
    36   37   28 ar
    37   38   37 1
    38   39    5 1
    39   40   39 1
    40   41   40 ar
    41   42   41 1
    42   43   41 ar
    43   44   43 1
    44   45   43 ar
    45   46   45 1
    46   47   45 ar
    47   48   47 1
    48   49   40 ar
    49   50   49 1
    50   51    7 1
    51   52   51 1
    52   53   52 ar
    53   54   53 1
    54   55   53 ar
    55   56   55 1
    56   57   55 ar
    57   58   57 1
    58   59   57 ar
    59   60   59 1
    60   61   52 ar
    61   62   61 1
    62   63    9 1
    63   64   63 1
    64   65   64 ar
    65   66   65 1
    66   67   65 ar
    67   68   67 1
    68   69   67 ar
    69   70   69 1
    70   71   69 ar
    71   72   71 1
    72   73   64 ar
    73   74   73 1
    74   20   22 1
    75   35   37 ar
    76   47   49 ar
    77   59   61 ar
    78   71   73 ar
@<TRIPOS>SUBSTRUCTURE
     1 RES1 1
     2 SUP2 75

@<TRIPOS>CRYSIN
  14.9257    5.4551   21.0930  90.0000  95.9900  90.0000   4 1

