# MOL2 file generated by ConQuest
# Please check atom types

@<TRIPOS>MOLECULE
NEWWAN
    84    87     1
SMALL
NO_CHARGES
****
Generated from CSD

@<TRIPOS>ATOM
      1 O1         8.6305    7.0626    4.5275 O.3       1 RES1    0.0000
      2 O2        10.0550    7.3757    6.1975 O.2       1 RES1    0.0000
      3 O3         8.7264   13.2069    7.8732 O.2       1 RES1    0.0000
      4 O4         9.7369   11.5898    8.6897 O.2       1 RES1    0.0000
      5 O5         5.6355   12.4905    4.2092 O.2       1 RES1    0.0000
      6 O6         5.6092   10.5934    3.2001 O.2       1 RES1    0.0000
      7 O7         4.7601    5.3079    3.6069 O.3       1 RES1    0.0000
      8 O8         5.7259    5.2166    5.5952 O.2       1 RES1    0.0000
      9 O9         5.4465    9.3845    8.3428 O.2       1 RES1    0.0000
     10 O10        4.5810   11.0993    7.4836 O.2       1 RES1    0.0000
     11 O11        1.2536   10.3682    4.0194 O.2       1 RES1    0.0000
     12 O12        1.5424    8.7458    2.6606 O.2       1 RES1    0.0000
     13 N1         6.0286   11.3628    4.0479 N.pl3     1 RES1    0.0000
     14 N2         9.0199   12.0583    7.8704 N.pl3     1 RES1    0.0000
     15 N3         4.8390    9.9315    7.4836 N.pl3     1 RES1    0.0000
     16 N4         1.8321    9.3611    3.6483 N.pl3     1 RES1    0.0000
     17 C1         9.6819    3.4064    1.3132 C.3       1 RES1    0.0000
     18 C2        10.2242    1.9589    1.2404 C.3       1 RES1    0.0000
     19 H1        10.3569    1.7214    0.2983 H         1 RES1    0.0000
     20 H2        11.1015    1.9318    1.6771 H         1 RES1    0.0000
     21 C3         9.3384    0.9152    1.8784 C.3       1 RES1    0.0000
     22 H3         9.3231    1.0591    2.8476 H         1 RES1    0.0000
     23 H4         9.7214    0.0280    1.7142 H         1 RES1    0.0000
     24 C4         7.3497    2.3747    1.5330 C.3       1 RES1    0.0000
     25 H5         7.4474    2.6014    2.4921 H         1 RES1    0.0000
     26 C5         7.9040    0.9449    1.3474 C.3       1 RES1    0.0000
     27 H6         7.3502    0.3035    1.8398 H         1 RES1    0.0000
     28 H7         7.8918    0.7004    0.3982 H         1 RES1    0.0000
     29 C6         5.8289    2.5576    1.1690 C.3       1 RES1    0.0000
     30 C7         5.6934    2.6036   -0.3483 C.3       1 RES1    0.0000
     31 H8         6.1271    1.7834   -0.6923 H         1 RES1    0.0000
     32 C8         6.4570    3.7608   -0.9292 C.3       1 RES1    0.0000
     33 H9         5.9346    4.5798   -0.8022 H         1 RES1    0.0000
     34 H10        6.5589    3.6200   -1.8941 H         1 RES1    0.0000
     35 C9         8.2206    3.3267    0.7665 C.2       1 RES1    0.0000
     36 C10        7.8318    3.9591   -0.3169 C.2       1 RES1    0.0000
     37 H11        8.4286    4.5586   -0.7279 H         1 RES1    0.0000
     38 C11       10.5617    4.3040    0.4582 C.3       1 RES1    0.0000
     39 H12       11.4571    4.3275    0.8293 H         1 RES1    0.0000
     40 H13       10.1923    5.2007    0.4453 H         1 RES1    0.0000
     41 H14       10.5958    3.9551   -0.4468 H         1 RES1    0.0000
     42 C12        4.2556    2.5915   -0.8864 C.3       1 RES1    0.0000
     43 H15        4.2730    2.6234   -1.8570 H         1 RES1    0.0000
     44 H16        3.7753    3.3623   -0.5467 H         1 RES1    0.0000
     45 H17        3.8095    1.7796   -0.5981 H         1 RES1    0.0000
     46 C13        5.0120    1.3992    1.7556 C.3       1 RES1    0.0000
     47 H18        4.0766    1.5169    1.5301 H         1 RES1    0.0000
     48 H19        5.1132    1.3871    2.7205 H         1 RES1    0.0000
     49 H20        5.3299    0.5594    1.3874 H         1 RES1    0.0000
     50 C14        9.7005    3.9274    2.7376 C.3       1 RES1    0.0000
     51 H21       10.6299    3.9474    3.0445 H         1 RES1    0.0000
     52 H22        9.2183    3.2891    3.3043 H         1 RES1    0.0000
     53 C15        9.0980    5.3045    2.9517 C.3       1 RES1    0.0000
     54 H23        9.5682    5.9544    2.3908 H         1 RES1    0.0000
     55 H24        8.1569    5.2926    2.6763 H         1 RES1    0.0000
     56 C16        9.1859    5.7152    4.3363 C.3       1 RES1    0.0000
     57 H25       10.1230    5.7052    4.6189 H         1 RES1    0.0000
     58 H26        8.6933    5.0778    4.8958 H         1 RES1    0.0000
     59 C17        9.1732    7.7636    5.5024 C.2       1 RES1    0.0000
     60 C18        8.5775    9.1352    5.6223 C.ar      1 RES1    0.0000
     61 C19        7.5893    9.6011    4.7702 C.ar      1 RES1    0.0000
     62 H27        7.2651    9.0564    4.0751 H         1 RES1    0.0000
     63 C20        7.0891   10.8654    4.9500 C.ar      1 RES1    0.0000
     64 C21        7.5688   11.7075    5.9363 C.ar      1 RES1    0.0000
     65 H28        7.2507   12.5883    6.0205 H         1 RES1    0.0000
     66 C22        8.5161   11.2154    6.7785 C.ar      1 RES1    0.0000
     67 C23        9.0586    9.9478    6.6500 C.ar      1 RES1    0.0000
     68 H29        9.7291    9.6453    7.2352 H         1 RES1    0.0000
     69 C24        5.3028    3.8894    1.7899 C.3       1 RES1    0.0000
     70 H30        5.8858    4.6180    1.4901 H         1 RES1    0.0000
     71 H31        4.4085    4.0624    1.4288 H         1 RES1    0.0000
     72 C25        5.2225    3.9408    3.2758 C.3       1 RES1    0.0000
     73 H32        4.5883    3.2728    3.6098 H         1 RES1    0.0000
     74 H33        6.1006    3.7676    3.6740 H         1 RES1    0.0000
     75 C26        5.0790    5.7953    4.7959 C.2       1 RES1    0.0000
     76 C27        4.5009    7.1396    5.0143 C.ar      1 RES1    0.0000
     77 C28        4.9194    7.8908    6.1119 C.ar      1 RES1    0.0000
     78 H34        5.5852    7.5612    6.6885 H         1 RES1    0.0000
     79 C29        4.3463    9.1189    6.3417 C.ar      1 RES1    0.0000
     80 C30        3.3478    9.6503    5.5624 C.ar      1 RES1    0.0000
     81 H35        2.9633   10.4896    5.7436 H         1 RES1    0.0000
     82 C31        2.9402    8.8640    4.4819 C.ar      1 RES1    0.0000
     83 C32        3.5150    7.6501    4.1907 C.ar      1 RES1    0.0000
     84 H36        3.2386    7.1684    3.4342 H         1 RES1    0.0000
@<TRIPOS>BOND
     1    1   56 1
     2    2   59 2
     3    3   14 2
     4    4   14 2
     5    5   13 2
     6    6   13 2
     7    7   72 1
     8    8   75 2
     9    9   15 2
    10   10   15 2
    11   11   16 2
    12   12   16 2
    13   13   63 1
    14   14   66 1
    15   15   79 1
    16   16   82 1
    17   17   18 1
    18   18   19 1
    19   20   18 1
    20   21   18 1
    21   22   21 1
    22   23   21 1
    23   24   25 1
    24   26   21 1
    25   27   26 1
    26   28   26 1
    27   29   24 1
    28   30   29 1
    29   31   30 1
    30   32   30 1
    31   33   32 1
    32   34   32 1
    33   35   17 1
    34   36   32 1
    35   37   36 1
    36   38   17 1
    37   39   38 1
    38   40   38 1
    39   41   38 1
    40   42   30 1
    41   43   42 1
    42   44   42 1
    43   45   42 1
    44   46   29 1
    45   47   46 1
    46   48   46 1
    47   49   46 1
    48   50   17 1
    49   51   50 1
    50   52   50 1
    51   53   50 1
    52   54   53 1
    53   55   53 1
    54   56   53 1
    55   57   56 1
    56   58   56 1
    57   59    1 1
    58   60   59 1
    59   61   60 ar
    60   62   61 1
    61   63   61 ar
    62   64   63 ar
    63   65   64 1
    64   66   64 ar
    65   67   60 ar
    66   68   67 1
    67   69   29 1
    68   70   69 1
    69   71   69 1
    70   72   69 1
    71   73   72 1
    72   74   72 1
    73   75    7 1
    74   76   75 1
    75   77   76 ar
    76   78   77 1
    77   79   77 ar
    78   80   79 ar
    79   81   80 1
    80   82   80 ar
    81   83   76 ar
    82   84   83 1
    83   24   26 1
    84   24   35 1
    85   35   36 2
    86   66   67 ar
    87   82   83 ar
@<TRIPOS>SUBSTRUCTURE
     1 RES1 1

@<TRIPOS>CRYSIN
   9.7272   11.9970   15.2160  75.9300  72.4500  74.9520   2 1

