# MOL2 file generated by ConQuest
# Please check atom types

@<TRIPOS>MOLECULE
NEZBIE
    34    36     1
SMALL
NO_CHARGES
****
Generated from CSD

@<TRIPOS>ATOM
      1 N1         0.5593    7.7885    6.1800 N.pl3     1 RES1    0.0000
      2 H1         0.8578    8.4376    6.6856 H         1 RES1    0.0000
      3 C1         0.0239    7.9736    4.9395 C.2       1 RES1    0.0000
      4 H2        -0.1365    8.8478    4.6207 H         1 RES1    0.0000
      5 C2        -0.1955    6.7907    4.3271 C.2       1 RES1    0.0000
      6 H3        -0.5380    6.6986    3.4119 H         1 RES1    0.0000
      7 C3         0.2835    4.3845    5.2522 C.ar      1 RES1    0.0000
      8 C4         0.7533    3.7455    6.3451 C.ar      1 RES1    0.0000
      9 H4         0.7824    2.8164    6.3850 H         1 RES1    0.0000
     10 N2         1.2070    4.3812    7.4637 N.ar      1 RES1    0.0000
     11 C5         1.1702    5.6972    7.4705 C.ar      1 RES1    0.0000
     12 C6         0.6945    6.4368    6.3837 C.ar      1 RES1    0.0000
     13 C7         0.2258    5.7883    5.2316 C.ar      1 RES1    0.0000
     14 C8         2.1019    5.6586    9.6664 C.3       1 RES1    0.0000
     15 H5         2.8563    5.0836    9.3949 H         1 RES1    0.0000
     16 H6         1.4516    5.0485   10.0423 H         1 RES1    0.0000
     17 H7         2.3818    6.3107   10.2755 H         1 RES1    0.0000
     18 O1        -0.2172    3.6158    4.1804 O.3       1 RES1    0.0000
     19 O2         1.6120    6.3976    8.5370 O.3       1 RES1    0.0000
     20 O3         1.5785    4.1703    2.9507 O.2       1 RES1    0.0000
     21 C9         0.5411    3.5881    3.0605 C.2       1 RES1    0.0000
     22 C10       -0.0861    2.7712    1.9854 C.ar      1 RES1    0.0000
     23 C11        0.3789    2.9824    0.6903 C.ar      1 RES1    0.0000
     24 H8         1.0584    3.6637    0.5492 H         1 RES1    0.0000
     25 C12       -0.1284    2.2534   -0.3596 C.ar      1 RES1    0.0000
     26 H9         0.1548    2.3957   -1.3071 H         1 RES1    0.0000
     27 C13       -1.0973    1.3209   -0.0988 C.ar      1 RES1    0.0000
     28 C14       -1.5786    1.0901    1.1705 C.ar      1 RES1    0.0000
     29 H10       -2.2634    0.4125    1.3193 H         1 RES1    0.0000
     30 C15       -1.0686    1.8275    2.2159 C.ar      1 RES1    0.0000
     31 H11       -1.3571    1.6945    3.0498 H         1 RES1    0.0000
     32 N3        -1.6523    0.5494   -1.2248 N.pl3     1 RES1    0.0000
     33 O4        -2.5432   -0.2452   -1.0015 O.2       1 RES1    0.0000
     34 O5        -1.2116    0.7676   -2.3401 O.2       1 RES1    0.0000
@<TRIPOS>BOND
     1    1    2 1
     2    3    1 1
     3    4    3 1
     4    5    3 2
     5    6    5 1
     6    7    8 ar
     7    8    9 1
     8   10    8 ar
     9   11   10 ar
    10   12    1 1
    11   13    5 1
    12   14   15 1
    13   16   14 1
    14   17   14 1
    15   18    7 1
    16   19   11 1
    17   20   21 2
    18   21   18 1
    19   22   21 1
    20   23   22 ar
    21   24   23 1
    22   25   23 ar
    23   26   25 1
    24   27   25 ar
    25   28   27 ar
    26   29   28 1
    27   30   22 ar
    28   31   30 1
    29   32   27 1
    30   33   32 2
    31   34   32 2
    32    7   13 ar
    33   11   12 ar
    34   12   13 ar
    35   14   19 1
    36   28   30 ar
@<TRIPOS>SUBSTRUCTURE
     1 RES1 1

@<TRIPOS>CRYSIN
   7.7200   11.6864   30.7877  90.0000  94.7450  90.0000  15 1

