# MOL2 file generated by ConQuest
# Please check atom types

@<TRIPOS>MOLECULE
NEZMUA
     9     9     1
SMALL
NO_CHARGES
****
Generated from CSD

@<TRIPOS>ATOM
      1 O1         5.7264    5.0862    0.9962 O.3       1 RES1    0.0000
      2 N1         4.4165    4.6904    0.6554 N.2       1 RES1    0.0000
      3 C1         3.7349    5.8056    0.5364 C.2       1 RES1    0.0000
      4 O2         2.4488    5.8232    0.1899 O.3       1 RES1    0.0000
      5 C2         4.5316    6.9503    0.8092 C.2       1 RES1    0.0000
      6 C3         5.7385    6.4336    1.0798 C.2       1 RES1    0.0000
      7 H1         2.1551    4.9989   -0.0992 H         1 RES1    0.0000
      8 H2         4.2664    7.8668    0.7865 H         1 RES1    0.0000
      9 H3         6.6266    6.7853    1.3108 H         1 RES1    0.0000
@<TRIPOS>BOND
     1    1    2 1
     2    2    3 2
     3    3    4 1
     4    4    7 1
     5    5    3 1
     6    6    1 1
     7    8    5 1
     8    9    6 1
     9    5    6 2
@<TRIPOS>SUBSTRUCTURE
     1 RES1 1

@<TRIPOS>CRYSIN
   6.2611    8.0110    7.0860  90.0000  90.7200  90.0000  14 1

