# MOL2 file generated by ConQuest
# Please check atom types

@<TRIPOS>MOLECULE
NEZRUH
    66    69     1
SMALL
NO_CHARGES
****
Generated from CSD

@<TRIPOS>ATOM
      1 C1         7.7698    0.1641   -3.3230 C.ar      1 RES1    0.0000
      2 H1         7.0707   -0.3876   -3.0537 H         1 RES1    0.0000
      3 C2         7.9551    0.4563   -4.6509 C.ar      1 RES1    0.0000
      4 C3         8.9443    1.2979   -5.1012 C.ar      1 RES1    0.0000
      5 H2         9.0431    1.4888   -6.0053 H         1 RES1    0.0000
      6 C4         9.7744    1.8414   -4.1626 C.ar      1 RES1    0.0000
      7 C5         9.6696    1.5388   -2.8123 C.ar      1 RES1    0.0000
      8 H3        10.2771    1.8892   -2.2007 H         1 RES1    0.0000
      9 C6         8.6431    0.7054   -2.3869 C.ar      1 RES1    0.0000
     10 C7         8.5203    0.4202   -0.9334 C.2       1 RES1    0.0000
     11 C8         7.0817   -0.1979    0.8172 C.3       1 RES1    0.0000
     12 H4         7.2772    0.6169    1.3068 H         1 RES1    0.0000
     13 H5         7.6761   -0.8940    1.1389 H         1 RES1    0.0000
     14 C9         5.6654   -0.5983    1.0475 C.3       1 RES1    0.0000
     15 H6         5.0610    0.0256    0.5921 H         1 RES1    0.0000
     16 C10        5.3652   -0.6227    2.5308 C.3       1 RES1    0.0000
     17 H7         5.4317    0.2782    2.8835 H         1 RES1    0.0000
     18 H8         6.0301   -1.1675    2.9788 H         1 RES1    0.0000
     19 C11        3.9811   -1.1745    2.8373 C.3       1 RES1    0.0000
     20 H9         3.9700   -1.4562    3.7752 H         1 RES1    0.0000
     21 C12        3.5862   -2.3827    1.9756 C.3       1 RES1    0.0000
     22 H10        3.8985   -3.1963    2.4230 H         1 RES1    0.0000
     23 C13        4.1695   -2.3594    0.5565 C.3       1 RES1    0.0000
     24 H11        4.1574   -3.2813    0.2246 H         1 RES1    0.0000
     25 C14        3.6668   -1.7181   -1.6587 C.3       1 RES1    0.0000
     26 H12        3.8421   -2.6434   -1.8921 H         1 RES1    0.0000
     27 H13        4.4556   -1.1919   -1.8649 H         1 RES1    0.0000
     28 C15        2.4902   -1.2071   -2.4053 C.2       1 RES1    0.0000
     29 H14        1.9281   -0.6763   -1.8898 H         1 RES1    0.0000
     30 C16        2.0943   -1.3456   -3.6027 C.2       1 RES1    0.0000
     31 H15        2.5889   -1.8601   -4.1994 H         1 RES1    0.0000
     32 H16        1.3096   -0.9335   -3.8818 H         1 RES1    0.0000
     33 C17        2.0691   -2.3583    2.0303 C.3       1 RES1    0.0000
     34 H17        1.7468   -2.7796    2.8427 H         1 RES1    0.0000
     35 H18        1.6893   -2.8204    1.2659 H         1 RES1    0.0000
     36 C18        1.7004   -0.8788    2.0055 C.3       1 RES1    0.0000
     37 H19        1.5715   -0.5669    1.0958 H         1 RES1    0.0000
     38 H20        0.8915   -0.7124    2.5137 H         1 RES1    0.0000
     39 C19        2.7874    0.8474    3.4530 C.2       1 RES1    0.0000
     40 C20        1.6168    1.7670    3.3117 C.ar      1 RES1    0.0000
     41 C21        1.1141    2.1744    2.0834 C.ar      1 RES1    0.0000
     42 H21        1.4909    1.8601    1.2932 H         1 RES1    0.0000
     43 C22        0.0584    3.0450    2.0480 C.ar      1 RES1    0.0000
     44 C23       -0.5248    3.5723    3.1807 C.ar      1 RES1    0.0000
     45 H22       -1.2511    4.1520    3.1376 H         1 RES1    0.0000
     46 C24        0.0353    3.1894    4.3809 C.ar      1 RES1    0.0000
     47 C25        1.0839    2.3164    4.4626 C.ar      1 RES1    0.0000
     48 H23        1.4385    2.0905    5.2929 H         1 RES1    0.0000
     49 N1         7.0284   -0.1234   -5.6348 N.pl3     1 RES1    0.0000
     50 N2        10.8231    2.7924   -4.5933 N.pl3     1 RES1    0.0000
     51 N3         2.8730   -0.2153    2.6353 N.am      1 RES1    0.0000
     52 N4        -0.4855    3.4559    0.7469 N.pl3     1 RES1    0.0000
     53 N5        -0.5037    3.7632    5.6321 N.pl3     1 RES1    0.0000
     54 O1         6.1278   -0.8055   -5.2078 O.2       1 RES1    0.0000
     55 O2         7.1905    0.1001   -6.7973 O.2       1 RES1    0.0000
     56 O3        10.8684    3.1067   -5.7650 O.2       1 RES1    0.0000
     57 O4        11.5998    3.2150   -3.7352 O.2       1 RES1    0.0000
     58 O5         9.4118    0.5587   -0.1570 O.2       1 RES1    0.0000
     59 O6         7.2993    0.0163   -0.6039 O.3       1 RES1    0.0000
     60 O7         5.5093   -1.9172    0.5086 O.3       1 RES1    0.0000
     61 O8         3.3434   -1.6067   -0.2834 O.3       1 RES1    0.0000
     62 O9         3.6456    1.1128    4.2911 O.2       1 RES1    0.0000
     63 O10        0.2559    3.3488   -0.2194 O.2       1 RES1    0.0000
     64 O11       -1.6208    3.8982    0.7083 O.2       1 RES1    0.0000
     65 O12       -1.5221    4.4197    5.5570 O.2       1 RES1    0.0000
     66 O13        0.0947    3.5479    6.6562 O.2       1 RES1    0.0000
@<TRIPOS>BOND
     1    1    2 1
     2    3    1 ar
     3    4    3 ar
     4    5    4 1
     5    6    4 ar
     6    7    6 ar
     7    8    7 1
     8    9    1 ar
     9   10    9 1
    10   11   12 1
    11   13   11 1
    12   14   11 1
    13   15   14 1
    14   16   14 1
    15   17   16 1
    16   18   16 1
    17   19   16 1
    18   20   19 1
    19   21   19 1
    20   22   21 1
    21   23   21 1
    22   24   23 1
    23   25   26 1
    24   27   25 1
    25   28   25 1
    26   29   28 1
    27   30   28 2
    28   31   30 1
    29   32   30 1
    30   33   21 1
    31   34   33 1
    32   35   33 1
    33   36   33 1
    34   37   36 1
    35   38   36 1
    36   39   40 1
    37   40   41 ar
    38   41   42 1
    39   43   41 ar
    40   44   43 ar
    41   45   44 1
    42   46   44 ar
    43   47   40 ar
    44   48   47 1
    45   49    3 1
    46   50    6 1
    47   51   19 1
    48   52   43 1
    49   53   46 1
    50   54   49 2
    51   55   49 2
    52   56   50 2
    53   57   50 2
    54   58   10 2
    55   59   10 1
    56   60   14 1
    57   61   23 1
    58   62   39 2
    59   63   52 2
    60   64   52 2
    61   65   53 2
    62   66   53 2
    63    7    9 ar
    64   11   59 1
    65   23   60 1
    66   25   61 1
    67   36   51 1
    68   39   51 1
    69   46   47 ar
@<TRIPOS>SUBSTRUCTURE
     1 RES1 1

@<TRIPOS>CRYSIN
  10.0736   11.6400   22.6872  90.0000  90.0000  90.0000  19 1

