# MOL2 file generated by ConQuest
# Please check atom types

@<TRIPOS>MOLECULE
NEZWAR
    83    87     1
SMALL
NO_CHARGES
****
Generated from CSD

@<TRIPOS>ATOM
      1 C1         4.9671    0.9705    3.7242 C.ar      1 RES1    0.0000
      2 C2         5.7121    2.1345    3.4682 C.ar      1 RES1    0.0000
      3 H1         5.6739    2.8288    4.0862 H         1 RES1    0.0000
      4 C3         6.4838    2.2941    2.3620 C.ar      1 RES1    0.0000
      5 H2         6.9505    3.0894    2.2431 H         1 RES1    0.0000
      6 C4         6.5876    1.3134    1.4269 C.ar      1 RES1    0.0000
      7 C5         5.8193    0.1006    1.6071 C.ar      1 RES1    0.0000
      8 C6         5.0063   -0.0756    2.7859 C.ar      1 RES1    0.0000
      9 C7         4.2987   -1.3102    2.9673 C.ar      1 RES1    0.0000
     10 H3         3.7743   -1.4328    3.7240 H         1 RES1    0.0000
     11 C8         4.3885   -2.3053    2.0395 C.ar      1 RES1    0.0000
     12 H4         3.9390   -3.1087    2.1710 H         1 RES1    0.0000
     13 C9         5.2003   -2.1006    0.8306 C.ar      1 RES1    0.0000
     14 C10        5.2759   -3.1655   -0.1387 C.ar      1 RES1    0.0000
     15 H5         4.8092   -3.9621   -0.0270 H         1 RES1    0.0000
     16 C11        6.0896   -2.9381   -1.2558 C.ar      1 RES1    0.0000
     17 H6         6.1531   -3.6010   -1.9044 H         1 RES1    0.0000
     18 C12        6.7987   -1.7728   -1.4323 C.ar      1 RES1    0.0000
     19 H7         7.3420   -1.6736   -2.1800 H         1 RES1    0.0000
     20 C13        6.7143   -0.7668   -0.5261 C.ar      1 RES1    0.0000
     21 C14        5.9194   -0.9390    0.6612 C.ar      1 RES1    0.0000
     22 C15        7.3777    1.4126    0.2432 C.ar      1 RES1    0.0000
     23 H8         7.8653    2.1908    0.0973 H         1 RES1    0.0000
     24 C16        7.4449    0.4742   -0.6306 C.ar      1 RES1    0.0000
     25 H9         7.9931    0.6012   -1.3711 H         1 RES1    0.0000
     26 C17        4.1472    0.9021    4.9683 C.2       1 RES1    0.0000
     27 O1         3.0936    0.2744    5.0396 O.2       1 RES1    0.0000
     28 N1         4.5951    1.6465    6.0015 N.am      1 RES1    0.0000
     29 H10        5.3068    2.1132    5.8770 H         1 RES1    0.0000
     30 C18        3.9582    1.7146    7.3183 C.3       1 RES1    0.0000
     31 C19        4.5883    2.9231    8.0257 C.3       1 RES1    0.0000
     32 H11        5.5336    2.7826    8.1201 H         1 RES1    0.0000
     33 H12        4.1917    3.0287    8.8948 H         1 RES1    0.0000
     34 H13        4.4326    3.7151    7.5057 H         1 RES1    0.0000
     35 C20        4.2206    0.4413    8.1075 C.3       1 RES1    0.0000
     36 H14        3.8555   -0.3098    7.6336 H         1 RES1    0.0000
     37 H15        3.8048    0.5081    8.9705 H         1 RES1    0.0000
     38 H16        5.1674    0.3210    8.2156 H         1 RES1    0.0000
     39 C21        2.4461    1.9492    7.2279 C.2       1 RES1    0.0000
     40 O2         1.6827    1.4308    8.0134 O.2       1 RES1    0.0000
     41 N2         2.0182    2.7906    6.2471 N.am      1 RES1    0.0000
     42 H17        2.6016    3.1307    5.7149 H         1 RES1    0.0000
     43 C22        0.6119    3.1416    6.0572 C.3       1 RES1    0.0000
     44 C23        0.5074    3.9001    4.7272 C.3       1 RES1    0.0000
     45 H18        1.0132    4.7144    4.7816 H         1 RES1    0.0000
     46 H19       -0.4127    4.1077    4.5474 H         1 RES1    0.0000
     47 H20        0.8558    3.3539    4.0195 H         1 RES1    0.0000
     48 C24        0.0926    4.0045    7.2088 C.3       1 RES1    0.0000
     49 H21        0.0855    3.4879    8.0174 H         1 RES1    0.0000
     50 H22       -0.7988    4.3004    7.0103 H         1 RES1    0.0000
     51 H23        0.6657    4.7663    7.3201 H         1 RES1    0.0000
     52 C25       -0.2753    1.8885    5.9149 C.2       1 RES1    0.0000
     53 O3        -1.4602    1.9542    6.1974 O.2       1 RES1    0.0000
     54 N3         0.3008    0.8005    5.3989 N.am      1 RES1    0.0000
     55 H24        1.1184    0.8529    5.1347 H         1 RES1    0.0000
     56 C26       -0.3968   -0.4758    5.2627 C.3       1 RES1    0.0000
     57 H25       -1.2428   -0.3412    4.7852 H         1 RES1    0.0000
     58 C27       -0.6669   -1.1117    6.6162 C.3       1 RES1    0.0000
     59 H26       -1.1969   -0.5000    7.1508 H         1 RES1    0.0000
     60 H27        0.1776   -1.2492    7.0733 H         1 RES1    0.0000
     61 C28       -1.3979   -2.4437    6.5190 C.3       1 RES1    0.0000
     62 C29       -0.0799   -2.8067    4.2573 C.3       1 RES1    0.0000
     63 C30        0.4889   -1.4187    4.4789 C.3       1 RES1    0.0000
     64 H28        1.3351   -1.5039    4.9438 H         1 RES1    0.0000
     65 H29        0.6713   -1.0194    3.6123 H         1 RES1    0.0000
     66 C31       -2.8567   -2.2454    6.1256 C.3       1 RES1    0.0000
     67 H30       -2.9122   -1.6033    5.4140 H         1 RES1    0.0000
     68 H31       -3.3508   -1.9251    6.8841 H         1 RES1    0.0000
     69 H32       -3.2261   -3.0815    5.8338 H         1 RES1    0.0000
     70 C32       -1.3060   -3.1818    7.8516 C.3       1 RES1    0.0000
     71 H33       -1.7886   -4.0096    7.7940 H         1 RES1    0.0000
     72 H34       -1.6869   -2.6372    8.5453 H         1 RES1    0.0000
     73 H35       -0.3859   -3.3612    8.0552 H         1 RES1    0.0000
     74 C33        1.0004   -3.7592    3.8447 C.3       1 RES1    0.0000
     75 H36        1.5862   -3.9197    4.5870 H         1 RES1    0.0000
     76 H37        1.5005   -3.3809    3.1169 H         1 RES1    0.0000
     77 H38        0.6057   -4.5884    3.5637 H         1 RES1    0.0000
     78 C34       -1.1448   -2.7814    3.1259 C.3       1 RES1    0.0000
     79 H39       -1.5690   -3.6414    3.0664 H         1 RES1    0.0000
     80 H40       -0.7194   -2.5766    2.2899 H         1 RES1    0.0000
     81 H41       -1.8044   -2.1121    3.3223 H         1 RES1    0.0000
     82 N4        -0.7411   -3.3036    5.4803 N.pl3     1 RES1    0.0000
     83 O4        -1.0982   -4.5405    5.4477 O.2       1 RES1    0.0000
@<TRIPOS>BOND
     1    1    2 ar
     2    2    3 1
     3    4    2 ar
     4    5    4 1
     5    6    4 ar
     6    7    6 ar
     7    8    1 ar
     8    9    8 ar
     9   10    9 1
    10   11    9 ar
    11   12   11 1
    12   13   11 ar
    13   14   13 ar
    14   15   14 1
    15   16   14 ar
    16   17   16 1
    17   18   16 ar
    18   19   18 1
    19   20   18 ar
    20   21    7 ar
    21   22    6 ar
    22   23   22 1
    23   24   20 ar
    24   25   24 1
    25   26    1 1
    26   27   26 2
    27   28   26 1
    28   29   28 1
    29   30   28 1
    30   31   30 1
    31   32   31 1
    32   33   31 1
    33   34   31 1
    34   35   30 1
    35   36   35 1
    36   37   35 1
    37   38   35 1
    38   39   30 1
    39   40   39 2
    40   41   39 1
    41   42   41 1
    42   43   41 1
    43   44   43 1
    44   45   44 1
    45   46   44 1
    46   47   44 1
    47   48   43 1
    48   49   48 1
    49   50   48 1
    50   51   48 1
    51   52   43 1
    52   53   52 2
    53   54   52 1
    54   55   54 1
    55   56   54 1
    56   57   56 1
    57   58   56 1
    58   59   58 1
    59   60   58 1
    60   61   58 1
    61   62   63 1
    62   63   56 1
    63   64   63 1
    64   65   63 1
    65   66   61 1
    66   67   66 1
    67   68   66 1
    68   69   66 1
    69   70   61 1
    70   71   70 1
    71   72   70 1
    72   73   70 1
    73   74   62 1
    74   75   74 1
    75   76   74 1
    76   77   74 1
    77   78   62 1
    78   79   78 1
    79   80   78 1
    80   81   78 1
    81   82   61 1
    82   83   82 2
    83    7    8 ar
    84   13   21 ar
    85   20   21 ar
    86   22   24 ar
    87   62   82 1
@<TRIPOS>SUBSTRUCTURE
     1 RES1 1

@<TRIPOS>CRYSIN
   8.9120   10.6570   18.2620  91.9500  97.7100 112.7800   2 1

