# MOL2 file generated by ConQuest
# Please check atom types

@<TRIPOS>MOLECULE
NHMENT
    30    32     1
SMALL
NO_CHARGES
****
Generated from CSD

@<TRIPOS>ATOM
      1 C1        -0.2411    4.9724   10.5669 C.3       1 RES1    0.0000
      2 C2        -1.2954    5.9762   10.0930 C.3       1 RES1    0.0000
      3 C3        -1.1412    6.4764    8.6690 C.3       1 RES1    0.0000
      4 C4        -0.0685    7.5690    8.6209 C.3       1 RES1    0.0000
      5 C5         1.2412    6.7504    8.5728 C.3       1 RES1    0.0000
      6 C6         0.7660    5.3054    8.3395 C.3       1 RES1    0.0000
      7 C7         0.8030    4.4466    9.6095 C.3       1 RES1    0.0000
      8 C8        -1.6902    4.5736   10.4346 C.3       1 RES1    0.0000
      9 C9        -0.1865    8.4562    7.3990 C.3       1 RES1    0.0000
     10 H1        -1.5152    6.5277   10.7280 H         1 RES1    0.0000
     11 H2        -0.2680    8.0330    6.5908 H         1 RES1    0.0000
     12 H3         0.6382    9.0042    7.2883 H         1 RES1    0.0000
     13 H4        -1.6994    9.1915    6.8073 H         1 RES1    0.0000
     14 H5        -1.0253    4.7241    7.8416 H         1 RES1    0.0000
     15 H6        -2.0298    6.6942    8.2986 H         1 RES1    0.0000
     16 H7        -0.1306    8.0747    9.4532 H         1 RES1    0.0000
     17 H8         1.8027    7.0133    7.7935 H         1 RES1    0.0000
     18 H9         1.7684    6.6526    9.4291 H         1 RES1    0.0000
     19 H10        0.6206    3.4546    9.3810 H         1 RES1    0.0000
     20 H11        1.6851    4.4605   10.0545 H         1 RES1    0.0000
     21 H12       -2.1916    4.4119   11.3294 H         1 RES1    0.0000
     22 H13       -1.8659    4.0720    9.7178 H         1 RES1    0.0000
     23 N1        -0.5530    5.4573    7.7814 N.3       1 RES1    0.0000
     24 N2         1.6769    4.6540    7.3028 N.pl3     1 RES1    0.0000
     25 N3         0.2335    5.1979   11.9500 N.pl3     1 RES1    0.0000
     26 O1        -1.2774    9.3580    7.5337 O.3       1 RES1    0.0000
     27 O2         2.7647    4.2912    7.6732 O.2       1 RES1    0.0000
     28 O3         1.4244    5.1313   12.1857 O.2       1 RES1    0.0000
     29 O4        -0.5868    5.4650   12.8135 O.2       1 RES1    0.0000
     30 O5         1.2938    4.5319    6.1650 O.2       1 RES1    0.0000
@<TRIPOS>BOND
     1    1    2 1
     2    2    3 1
     3    3    4 1
     4    4    5 1
     5    5    6 1
     6    6    7 1
     7    7    1 1
     8    8    1 1
     9    9    4 1
    10   10    2 1
    11   11    9 1
    12   12    9 1
    13   13   26 1
    14   14   23 1
    15   15    3 1
    16   16    4 1
    17   17    5 1
    18   18    5 1
    19   19    7 1
    20   20    7 1
    21   21    8 1
    22   22    8 1
    23   23    3 1
    24   24    6 1
    25   25    1 1
    26   26    9 1
    27   27   24 2
    28   28   25 2
    29   29   25 2
    30   30   24 2
    31    2    8 1
    32    6   23 1
@<TRIPOS>SUBSTRUCTURE
     1 RES1 1

@<TRIPOS>CRYSIN
   6.4230    6.9370   24.4160  90.0000  99.8800  90.0000  14 1

