# MOL2 file generated by ConQuest
# Please check atom types

@<TRIPOS>MOLECULE
NHPYOX10
    40    42     1
SMALL
NO_CHARGES
****
Generated from CSD

@<TRIPOS>ATOM
      1 C1         2.6031   -0.0612    0.7462 C.3       1 RES1    0.0000
      2 C2         4.7835   -1.1122    0.8312 C.3       1 RES1    0.0000
      3 C3         3.3805   -0.7440   -2.7545 C.3       1 RES1    0.0000
      4 C4         1.7506    1.0994    1.2145 C.ar      1 RES1    0.0000
      5 C5         2.2400    2.3913    1.1105 C.ar      1 RES1    0.0000
      6 C6         1.4491    3.4741    1.4394 C.ar      1 RES1    0.0000
      7 C7         0.1561    3.2355    1.8822 C.ar      1 RES1    0.0000
      8 C8        -0.3479    1.9616    2.0138 C.ar      1 RES1    0.0000
      9 C9         0.4631    0.8895    1.6840 C.ar      1 RES1    0.0000
     10 C10        3.4526   -0.9822   -1.2684 C.3       1 RES1    0.0000
     11 C11        4.8448   -0.9996   -0.6754 C.3       1 RES1    0.0000
     12 C12        6.1588   -1.0319    1.4791 C.3       1 RES1    0.0000
     13 C13        6.0884   -1.1334    2.9881 C.3       1 RES1    0.0000
     14 C14        5.1066   -0.1098    3.5381 C.3       1 RES1    0.0000
     15 C15        3.7670   -0.2297    2.8317 C.3       1 RES1    0.0000
     16 H1         4.3620   -2.0198    1.0693 H         1 RES1    0.0000
     17 H2         2.0791   -0.9335    0.9200 H         1 RES1    0.0000
     18 H3         3.7788    0.1933   -3.0320 H         1 RES1    0.0000
     19 H4         2.5115   -0.6948   -3.0866 H         1 RES1    0.0000
     20 H5         3.9134   -1.4188   -3.2102 H         1 RES1    0.0000
     21 H6         3.1422    2.4574    0.8068 H         1 RES1    0.0000
     22 H7         1.7488    4.3794    1.3326 H         1 RES1    0.0000
     23 H8        -1.2277    1.8225    2.2686 H         1 RES1    0.0000
     24 H9         0.1189    0.0502    1.7139 H         1 RES1    0.0000
     25 H10        2.9787   -1.8111   -1.0187 H         1 RES1    0.0000
     26 H11        5.3532   -0.1707   -0.9432 H         1 RES1    0.0000
     27 H12        5.3186   -1.7610   -1.0925 H         1 RES1    0.0000
     28 H13        6.5827   -0.2249    1.2579 H         1 RES1    0.0000
     29 H14        6.7269   -1.6955    1.1399 H         1 RES1    0.0000
     30 H15        6.9116   -1.0872    3.3772 H         1 RES1    0.0000
     31 H16        5.7896   -2.0506    3.1805 H         1 RES1    0.0000
     32 H17        4.9468   -0.2313    4.4890 H         1 RES1    0.0000
     33 H18        5.3930    0.8655    3.3892 H         1 RES1    0.0000
     34 H19        3.2986   -1.0872    3.0272 H         1 RES1    0.0000
     35 H20        3.1215    0.4247    3.1355 H         1 RES1    0.0000
     36 N1        -0.7118    4.3802    2.1836 N.pl3     1 RES1    0.0000
     37 N2         3.9169   -0.0492    1.3840 N.3       1 RES1    0.0000
     38 O1        -1.8634    4.1615    2.5060 O.2       1 RES1    0.0000
     39 O2         2.7164    0.0921   -0.6516 O.3       1 RES1    0.0000
     40 O3        -0.2477    5.4839    2.0909 O.2       1 RES1    0.0000
@<TRIPOS>BOND
     1    1    4 1
     2    2   11 1
     3    3   10 1
     4    4    5 ar
     5    5    6 ar
     6    6    7 ar
     7    7    8 ar
     8    8    9 ar
     9    9    4 ar
    10   10   11 1
    11   11   26 1
    12   12    2 1
    13   13   12 1
    14   14   13 1
    15   15   14 1
    16   16    2 1
    17   17    1 1
    18   18    3 1
    19   19    3 1
    20   20    3 1
    21   21    5 1
    22   22    6 1
    23   23    8 1
    24   24    9 1
    25   25   10 1
    26   27   11 1
    27   28   12 1
    28   29   12 1
    29   30   13 1
    30   31   13 1
    31   32   14 1
    32   33   14 1
    33   34   15 1
    34   35   15 1
    35   36    7 1
    36   37    1 1
    37   38   36 2
    38   39    1 1
    39   40   36 2
    40    2   37 1
    41   10   39 1
    42   15   37 1
@<TRIPOS>SUBSTRUCTURE
     1 RES1 1

@<TRIPOS>CRYSIN
  22.5060    8.0890    8.4430  90.0000 108.0500  90.0000   5 1

