# MOL2 file generated by ConQuest
# Please check atom types

@<TRIPOS>MOLECULE
NIBBEI
    37    39     1
SMALL
NO_CHARGES
****
Generated from CSD

@<TRIPOS>ATOM
      1 O1         1.5604    7.5763    1.6326 O.3       1 RES1    0.0000
      2 O2         2.1913    9.7273    2.3329 O.3       1 RES1    0.0000
      3 O3        -0.4276    6.7381    2.0883 O.2       1 RES1    0.0000
      4 N1        -2.0670    8.1341    3.7656 N.pl3     1 RES1    0.0000
      5 H1        -1.9709    7.3949    3.3365 H         1 RES1    0.0000
      6 C1         0.0723    8.8643    2.9747 C.2       1 RES1    0.0000
      7 C2         0.3493    7.6519    2.2398 C.2       1 RES1    0.0000
      8 O4         0.7898   11.0905    3.3366 O.2       1 RES1    0.0000
      9 C3        -1.1092    9.0327    3.6602 C.2       1 RES1    0.0000
     10 H2        -1.2426    9.8492    4.0843 H         1 RES1    0.0000
     11 C4        -3.2405    8.3009    4.5346 C.ar      1 RES1    0.0000
     12 C5        -3.7625    7.1910    5.1769 C.ar      1 RES1    0.0000
     13 H3        -3.3520    6.3597    5.1054 H         1 RES1    0.0000
     14 C6         1.0006    9.9746    2.9356 C.2       1 RES1    0.0000
     15 C7        -3.8592    9.5384    4.6604 C.ar      1 RES1    0.0000
     16 H4        -3.5135   10.2815    4.2204 H         1 RES1    0.0000
     17 C8        -4.9064    7.3549    5.9247 C.ar      1 RES1    0.0000
     18 C9         2.6098    8.3673    2.2128 C.3       1 RES1    0.0000
     19 C10       -5.5324    8.5705    6.0772 C.ar      1 RES1    0.0000
     20 H5        -6.2999    8.6534    6.5951 H         1 RES1    0.0000
     21 O5        -4.8193    5.1344    6.5737 O.2       1 RES1    0.0000
     22 C11       -4.9873    9.6591    5.4402 C.ar      1 RES1    0.0000
     23 H6        -5.3883   10.4928    5.5380 H         1 RES1    0.0000
     24 N2        -5.4636    6.1652    6.5870 N.pl3     1 RES1    0.0000
     25 O6        -6.5484    6.2665    7.1205 O.2       1 RES1    0.0000
     26 C12        3.0591    7.7552    3.5185 C.3       1 RES1    0.0000
     27 H7         2.3042    7.4059    4.0180 H         1 RES1    0.0000
     28 H8         3.5260    8.4059    4.0657 H         1 RES1    0.0000
     29 C13        3.8058    8.2748    1.2777 C.3       1 RES1    0.0000
     30 H9         4.2556    9.1319    1.2106 H         1 RES1    0.0000
     31 H10        3.5271    7.9977    0.3908 H         1 RES1    0.0000
     32 C14        3.9903    6.6380    3.0853 C.3       1 RES1    0.0000
     33 H11        4.6070    6.4026    3.7959 H         1 RES1    0.0000
     34 H12        3.4897    5.8481    2.8248 H         1 RES1    0.0000
     35 C15        4.7221    7.2332    1.9049 C.3       1 RES1    0.0000
     36 H13        4.9346    6.5423    1.2595 H         1 RES1    0.0000
     37 H14        5.5495    7.6479    2.1968 H         1 RES1    0.0000
@<TRIPOS>BOND
     1    1    7 1
     2    2   14 1
     3    3    7 2
     4    4    5 1
     5    6    7 1
     6    8   14 2
     7    9    4 1
     8   10    9 1
     9   11    4 1
    10   12   11 ar
    11   13   12 1
    12   14    6 1
    13   15   11 ar
    14   16   15 1
    15   17   12 ar
    16   18    1 1
    17   19   17 ar
    18   20   19 1
    19   21   24 2
    20   22   15 ar
    21   23   22 1
    22   24   17 1
    23   25   24 2
    24   26   18 1
    25   27   26 1
    26   28   26 1
    27   29   18 1
    28   30   29 1
    29   31   29 1
    30   32   26 1
    31   33   32 1
    32   34   32 1
    33   35   29 1
    34   36   35 1
    35   37   35 1
    36    2   18 1
    37    6    9 2
    38   19   22 ar
    39   32   35 1
@<TRIPOS>SUBSTRUCTURE
     1 RES1 1

@<TRIPOS>CRYSIN
  11.2510   11.0010   12.7500  90.0000 114.2000  90.0000  14 1

