# MOL2 file generated by ConQuest
# Please check atom types

@<TRIPOS>MOLECULE
NIBLOC
    45    47     1
SMALL
NO_CHARGES
****
Generated from CSD

@<TRIPOS>ATOM
      1 O1        11.9267    6.6792    3.6274 O.3       1 RES1    0.0000
      2 C1         5.8936    6.9038    1.7304 C.ar      1 RES1    0.0000
      3 N1        10.6956    7.1326    3.0929 N.2       1 RES1    0.0000
      4 O2         4.6183    7.2555    1.4060 O.3       1 RES1    0.0000
      5 C2         6.4647    5.6795    1.4622 C.ar      1 RES1    0.0000
      6 H1         5.9737    5.0177    0.9911 H         1 RES1    0.0000
      7 C3         7.9237    7.6233    2.7867 C.ar      1 RES1    0.0000
      8 H2         8.4147    8.2969    3.2415 H         1 RES1    0.0000
      9 C4         8.5148    6.3831    2.5566 C.ar      1 RES1    0.0000
     10 C5         7.7594    5.4154    1.8807 C.ar      1 RES1    0.0000
     11 H3         8.1398    4.5633    1.7068 H         1 RES1    0.0000
     12 C6        10.5033    4.8146    3.4480 C.3       1 RES1    0.0000
     13 C7         9.8811    6.1361    3.0240 C.2       1 RES1    0.0000
     14 C8         6.6386    7.8906    2.3663 C.ar      1 RES1    0.0000
     15 H4         6.2627    8.7503    2.5095 H         1 RES1    0.0000
     16 C9        11.6481    5.4293    4.2779 C.3       1 RES1    0.0000
     17 H5        11.2946    5.6293    5.1911 H         1 RES1    0.0000
     18 C10       12.8938    4.6970    4.4319 C.3       1 RES1    0.0000
     19 H6        13.3147    4.5986    3.5422 H         1 RES1    0.0000
     20 H7        12.6864    3.7892    4.7671 H         1 RES1    0.0000
     21 C11       13.8668    5.3267    5.3469 C.1       1 RES1    0.0000
     22 C12       14.6308    5.8260    6.1242 C.1       1 RES1    0.0000
     23 C13       15.6077    6.4077    6.9993 C.ar      1 RES1    0.0000
     24 C14       15.2863    6.8043    8.3075 C.ar      1 RES1    0.0000
     25 H8        14.3956    6.7049    8.6264 H         1 RES1    0.0000
     26 C15       16.2581    7.3379    9.1319 C.ar      1 RES1    0.0000
     27 H9        16.0393    7.5998   10.0197 H         1 RES1    0.0000
     28 C16       17.5336    7.4875    8.6644 C.ar      1 RES1    0.0000
     29 H10       18.2026    7.8511    9.2316 H         1 RES1    0.0000
     30 C17       16.9042    6.5851    6.5554 C.ar      1 RES1    0.0000
     31 H11       17.1372    6.3350    5.6676 H         1 RES1    0.0000
     32 C18       17.8593    7.1187    7.3816 C.ar      1 RES1    0.0000
     33 H12       18.7489    7.2341    7.0664 H         1 RES1    0.0000
     34 C19       10.9804    4.0640    2.2159 C.3       1 RES1    0.0000
     35 H13       11.4207    3.2311    2.4895 H         1 RES1    0.0000
     36 H14       11.6159    4.6210    1.7195 H         1 RES1    0.0000
     37 H15       10.2133    3.8544    1.6434 H         1 RES1    0.0000
     38 C20        9.5886    3.9410    4.3087 C.3       1 RES1    0.0000
     39 H16       10.1052    3.1979    4.6837 H         1 RES1    0.0000
     40 H17        8.8621    3.5861    3.7542 H         1 RES1    0.0000
     41 H18        9.2129    4.4788    5.0352 H         1 RES1    0.0000
     42 C21        3.8367    6.3061    0.6740 C.3       1 RES1    0.0000
     43 H19        2.9540    6.6856    0.4838 H         1 RES1    0.0000
     44 H20        3.7342    5.4892    1.2049 H         1 RES1    0.0000
     45 H21        4.2888    6.0912   -0.1685 H         1 RES1    0.0000
@<TRIPOS>BOND
     1    1    3 1
     2    2    4 1
     3    3   13 2
     4    4   42 1
     5    5    2 ar
     6    6    5 1
     7    7    8 1
     8    9    7 ar
     9   10    5 ar
    10   11   10 1
    11   12   13 1
    12   13    9 1
    13   14    2 ar
    14   15   14 1
    15   16    1 1
    16   17   16 1
    17   18   16 1
    18   19   18 1
    19   20   18 1
    20   21   18 1
    21   22   21 3
    22   23   22 1
    23   24   23 ar
    24   25   24 1
    25   26   24 ar
    26   27   26 1
    27   28   26 ar
    28   29   28 1
    29   30   23 ar
    30   31   30 1
    31   32   28 ar
    32   33   32 1
    33   34   12 1
    34   35   34 1
    35   36   34 1
    36   37   34 1
    37   38   12 1
    38   39   38 1
    39   40   38 1
    40   41   38 1
    41   42   43 1
    42   44   42 1
    43   45   42 1
    44    7   14 ar
    45    9   10 ar
    46   12   16 1
    47   30   32 ar
@<TRIPOS>SUBSTRUCTURE
     1 RES1 1

@<TRIPOS>CRYSIN
  17.8381   10.6919   19.0278  90.0000 107.7810  90.0000  15 1

