# MOL2 file generated by ConQuest
# Please check atom types

@<TRIPOS>MOLECULE
NIBNAQ
    31    31     1
SMALL
NO_CHARGES
****
Generated from CSD

@<TRIPOS>ATOM
      1 C1         1.3616    2.0054    6.7944 C.3       1 RES1    0.0000
      2 O1        -0.1027    0.8197    5.3137 O.3       1 RES1    0.0000
      3 H1        -0.4036   -0.0333    5.4711 H         1 RES1    0.0000
      4 N1        -0.0214    1.5052    6.5988 N.3       1 RES1    0.0000
      5 H2        -0.5029    2.2225    6.5157 H         1 RES1    0.0000
      6 C2         2.3074    0.8354    6.9812 C.3       1 RES1    0.0000
      7 H3         1.9377    0.2196    7.6477 H         1 RES1    0.0000
      8 H4         3.1779    1.1648    7.2881 H         1 RES1    0.0000
      9 H5         2.4183    0.3656    6.1282 H         1 RES1    0.0000
     10 C3         1.8259    2.8313    5.5900 C.3       1 RES1    0.0000
     11 H6         2.8108    2.9234    5.6293 H         1 RES1    0.0000
     12 H7         1.6043    2.3364    4.7617 H         1 RES1    0.0000
     13 N2         1.2299    4.1746    5.5099 N.3       1 RES1    0.0000
     14 C4         1.0657    4.5648    4.1097 C.3       1 RES1    0.0000
     15 H8         0.6679    5.4589    4.0641 H         1 RES1    0.0000
     16 H9         0.4787    3.9225    3.6585 H         1 RES1    0.0000
     17 H10        1.9407    4.5733    3.6684 H         1 RES1    0.0000
     18 C5         2.1007    5.1473    6.1778 C.3       1 RES1    0.0000
     19 H11        1.8237    6.0574    5.9035 H         1 RES1    0.0000
     20 H12        3.0280    5.0095    5.8593 H         1 RES1    0.0000
     21 C6         2.0968    5.0791    7.6882 C.3       1 RES1    0.0000
     22 H13        2.7561    5.7318    8.0340 H         1 RES1    0.0000
     23 H14        1.2039    5.3572    8.0131 H         1 RES1    0.0000
     24 N3         2.4086    3.7554    8.2540 N.3       1 RES1    0.0000
     25 C7         2.7327    3.9046    9.6721 C.3       1 RES1    0.0000
     26 H15        1.9561    4.2659   10.1484 H         1 RES1    0.0000
     27 H16        3.4909    4.5175    9.7713 H         1 RES1    0.0000
     28 H17        2.9681    3.0303   10.0471 H         1 RES1    0.0000
     29 C8         1.2734    2.8380    8.0755 C.3       1 RES1    0.0000
     30 H18        0.4352    3.3646    8.0587 H         1 RES1    0.0000
     31 H19        1.2298    2.2267    8.8530 H         1 RES1    0.0000
@<TRIPOS>BOND
     1    1    4 1
     2    2    3 1
     3    4    2 1
     4    5    4 1
     5    6    1 1
     6    7    6 1
     7    8    6 1
     8    9    6 1
     9   10    1 1
    10   11   10 1
    11   12   10 1
    12   13   10 1
    13   14   13 1
    14   15   14 1
    15   16   14 1
    16   17   14 1
    17   18   13 1
    18   19   18 1
    19   20   18 1
    20   21   18 1
    21   22   21 1
    22   23   21 1
    23   24   21 1
    24   25   24 1
    25   26   25 1
    26   27   25 1
    27   28   25 1
    28   29    1 1
    29   30   29 1
    30   31   29 1
    31   24   29 1
@<TRIPOS>SUBSTRUCTURE
     1 RES1 1

@<TRIPOS>CRYSIN
   9.2188    7.9374   13.1770  90.0000  95.1780  90.0000  14 1

