# MOL2 file generated by ConQuest
# Please check atom types

@<TRIPOS>MOLECULE
NIBZAL01
    16    16     1
SMALL
NO_CHARGES
****
Generated from CSD

@<TRIPOS>ATOM
      1 C1         3.5754   -2.7680    1.9636 C.ar      1 RES1    0.0000
      2 C2         2.6166   -2.6690    0.9727 C.ar      1 RES1    0.0000
      3 C3         1.3490   -3.1165    1.2725 C.ar      1 RES1    0.0000
      4 C4         1.0506   -3.6392    2.5253 C.ar      1 RES1    0.0000
      5 C5         2.0220   -3.7224    3.4860 C.ar      1 RES1    0.0000
      6 C6         3.3076   -3.2710    3.2203 C.ar      1 RES1    0.0000
      7 C7         2.8814   -2.2453   -0.4307 C.2       1 RES1    0.0000
      8 H1         0.6136   -3.1284    0.4928 H         1 RES1    0.0000
      9 H2         0.0665   -4.0709    2.7297 H         1 RES1    0.0000
     10 H3         1.8472   -4.0828    4.4807 H         1 RES1    0.0000
     11 H4         4.0761   -3.2947    3.9939 H         1 RES1    0.0000
     12 H5         3.8900   -2.5106   -0.8251 H         1 RES1    0.0000
     13 N1         4.9246   -2.2453    1.7214 N.pl3     1 RES1    0.0000
     14 O1         5.0591   -1.3504    0.8925 O.2       1 RES1    0.0000
     15 O2         5.8447   -2.7601    2.3611 O.2       1 RES1    0.0000
     16 O3         2.0421   -1.7226   -1.1098 O.2       1 RES1    0.0000
@<TRIPOS>BOND
     1    1    2 ar
     2    2    3 ar
     3    3    4 ar
     4    4    5 ar
     5    5    6 ar
     6    6    1 ar
     7    7    2 1
     8    8    3 1
     9    9    4 1
    10   10    5 1
    11   11    6 1
    12   12    7 1
    13   13    1 1
    14   14   13 2
    15   15   13 2
    16   16    7 2
@<TRIPOS>SUBSTRUCTURE
     1 RES1 1

@<TRIPOS>CRYSIN
  11.3700    3.9600    7.5700  90.0000  90.1800  90.0000   4 1

