# MOL2 file generated by ConQuest
# Please check atom types

@<TRIPOS>MOLECULE
NICQIC
    34    35     1
SMALL
NO_CHARGES
****
Generated from CSD

@<TRIPOS>ATOM
      1 C1         1.8583    5.1261   -1.0924 C.2       1 RES1    0.0000
      2 C2         3.6512    4.5846    0.5069 C.2       1 RES1    0.0000
      3 C3         2.8268    5.1885    1.5691 C.2       1 RES1    0.0000
      4 C4         1.5211    5.8124    1.2350 C.2       1 RES1    0.0000
      5 C5        -0.2412    6.1674   -0.4215 C.3       1 RES1    0.0000
      6 H1        -0.8266    6.1309    0.3630 H         1 RES1    0.0000
      7 H2        -0.6237    5.6221   -1.1406 H         1 RES1    0.0000
      8 H3        -0.1586    7.0954   -0.7246 H         1 RES1    0.0000
      9 C6         3.8706    3.9968   -1.8547 C.3       1 RES1    0.0000
     10 H4         4.8249    3.9913   -1.6320 H         1 RES1    0.0000
     11 H5         3.7316    4.4961   -2.6861 H         1 RES1    0.0000
     12 H6         3.5565    3.0758   -1.9713 H         1 RES1    0.0000
     13 C7         3.1537    5.1385    2.8728 C.2       1 RES1    0.0000
     14 H7         2.4767    5.4220    3.4763 H         1 RES1    0.0000
     15 C8         4.4243    4.7026    3.4960 C.ar      1 RES1    0.0000
     16 C9         5.5117    5.5852    3.4531 C.ar      1 RES1    0.0000
     17 H8         5.4591    6.3620    2.9081 H         1 RES1    0.0000
     18 C10        6.6637    5.3476    4.1905 C.ar      1 RES1    0.0000
     19 H9         7.3866    5.9630    4.1702 H         1 RES1    0.0000
     20 C11        6.7388    4.1926    4.9585 C.ar      1 RES1    0.0000
     21 C12        5.7111    3.2715    5.0180 C.ar      1 RES1    0.0000
     22 H10        5.7890    2.4740    5.5286 H         1 RES1    0.0000
     23 C13        4.5607    3.5624    4.3008 C.ar      1 RES1    0.0000
     24 N1         1.0855    5.6493   -0.0672 N.am      1 RES1    0.0000
     25 N2         3.1198    4.6361   -0.7686 N.am      1 RES1    0.0000
     26 N3         3.4552    2.6052    4.4251 N.pl3     1 RES1    0.0000
     27 N4         7.9597    3.9196    5.7219 N.pl3     1 RES1    0.0000
     28 O1         1.4585    5.1123   -2.2393 O.2       1 RES1    0.0000
     29 O2         4.7398    4.0682    0.7190 O.2       1 RES1    0.0000
     30 O3         0.8533    6.4258    2.0468 O.2       1 RES1    0.0000
     31 O4         3.5517    1.7068    5.2534 O.2       1 RES1    0.0000
     32 O5         2.4789    2.7557    3.6959 O.2       1 RES1    0.0000
     33 O6         8.0672    2.8349    6.2704 O.2       1 RES1    0.0000
     34 O7         8.8219    4.7996    5.7744 O.2       1 RES1    0.0000
@<TRIPOS>BOND
     1    1   24 1
     2    2    3 1
     3    3    4 1
     4    4   24 1
     5    5    6 1
     6    7    5 1
     7    8    5 1
     8    9   10 1
     9   11    9 1
    10   12    9 1
    11   13    3 2
    12   14   13 1
    13   15   13 1
    14   16   15 ar
    15   17   16 1
    16   18   16 ar
    17   19   18 1
    18   20   18 ar
    19   21   20 ar
    20   22   21 1
    21   23   15 ar
    22   24    5 1
    23   25    1 1
    24   26   23 1
    25   27   20 1
    26   28    1 2
    27   29    2 2
    28   30    4 2
    29   31   26 2
    30   32   26 2
    31   33   27 2
    32   34   27 2
    33    2   25 1
    34    9   25 1
    35   21   23 ar
@<TRIPOS>SUBSTRUCTURE
     1 RES1 1

@<TRIPOS>CRYSIN
   7.5143   12.9125   13.9610  90.0000  90.0000  90.0000  19 1

