# MOL2 file generated by ConQuest
# Please check atom types

@<TRIPOS>MOLECULE
NICZOR
    51    54     2
SMALL
NO_CHARGES
****
Generated from CSD

@<TRIPOS>ATOM
      1 O1         1.7456    0.0570    0.6290 O.2       1 RES1    0.0000
      2 O2         3.9471    3.6900    1.8312 O.2       1 RES1    0.0000
      3 N1         1.1845    0.8734    2.6952 N.am      1 RES1    0.0000
      4 O3        -7.7230    0.7705    6.7720 O.3       1 RES1    0.0000
      5 N2         3.1395    1.5906    1.5745 N.am      1 RES1    0.0000
      6 N3        -1.3129    3.3445    1.5414 N.3       1 RES1    0.0000
      7 C1        -0.9778    4.6879    1.4860 C.ar      1 RES1    0.0000
      8 C2         3.1135    2.8618    2.1394 C.2       1 RES1    0.0000
      9 C3        -0.2768    2.6707    2.1419 C.2       1 RES1    0.0000
     10 C4         0.3011    4.8458    2.0660 C.ar      1 RES1    0.0000
     11 C5         1.9847    0.7828    1.5723 C.2       1 RES1    0.0000
     12 N4        -6.7647    0.9245    5.7753 N.am      1 RES1    0.0000
     13 H1        -6.2523    0.2445    5.6689 H         1 RES1    0.0000
     14 C6        -5.2195    1.1896    3.3619 C.ar      1 RES1    0.0000
     15 H2        -5.7221    0.3437    3.4001 H         1 RES1    0.0000
     16 C7         0.7248    3.5450    2.4702 C.2       1 RES1    0.0000
     17 O4        -7.0321    3.1451    5.7930 O.2       1 RES1    0.0000
     18 C8        -5.4483    2.2220    4.2657 C.ar      1 RES1    0.0000
     19 C9        -3.5419    2.5213    2.2380 C.ar      1 RES1    0.0000
     20 C10       -4.7023    3.3898    4.1645 C.ar      1 RES1    0.0000
     21 H3        -4.8679    4.1022    4.7953 H         1 RES1    0.0000
     22 C11        0.1666    7.1994    1.6345 C.ar      1 RES1    0.0000
     23 H4         0.5515    8.0959    1.6843 H         1 RES1    0.0000
     24 C12        1.9971    3.0918    3.1443 C.3       1 RES1    0.0000
     25 H5         2.3279    3.7370    3.7913 H         1 RES1    0.0000
     26 C13        0.8718    6.1249    2.1398 C.ar      1 RES1    0.0000
     27 H6         1.7774    6.2454    2.5485 H         1 RES1    0.0000
     28 C14       -1.6879    5.7698    0.9658 C.ar      1 RES1    0.0000
     29 H7        -2.5649    5.6735    0.5892 H         1 RES1    0.0000
     30 C15       -4.2672    1.3444    2.3590 C.ar      1 RES1    0.0000
     31 H8        -4.0932    0.6046    1.7126 H         1 RES1    0.0000
     32 C16       -1.0919    7.0170    1.0491 C.ar      1 RES1    0.0000
     33 H9        -1.5570    7.7931    0.7228 H         1 RES1    0.0000
     34 C17       -3.7511    3.5280    3.1726 C.ar      1 RES1    0.0000
     35 H10       -3.2226    4.3334    3.1204 H         1 RES1    0.0000
     36 C18       -6.4732    2.1511    5.3501 C.2       1 RES1    0.0000
     37 C19       -0.2248    1.1836    2.3639 C.3       1 RES1    0.0000
     38 H11       -0.7952    0.9094    3.1157 H         1 RES1    0.0000
     39 H12       -0.4644    0.6762    1.5508 H         1 RES1    0.0000
     40 C20       -2.5601    2.7336    1.1019 C.3       1 RES1    0.0000
     41 H13       -2.3754    1.8833    0.6615 H         1 RES1    0.0000
     42 H14       -2.9740    3.3268    0.4258 H         1 RES1    0.0000
     43 C21        1.7073    1.7384    3.7666 C.3       1 RES1    0.0000
     44 H15        2.5236    1.3432    4.1590 H         1 RES1    0.0000
     45 H16        1.0070    1.8025    4.4544 H         1 RES1    0.0000
     46 C22        4.1546    1.2909    0.5557 C.3       1 RES1    0.0000
     47 H17        3.8461    1.5611   -0.3142 H         1 RES1    0.0000
     48 H18        4.3265    0.3304    0.5955 H         1 RES1    0.0000
     49 H19        4.9294    1.7790    0.7919 H         1 RES1    0.0000
     50 H20       -7.2722    0.6649    7.5104 H         1 RES1    0.0000
     51 H21       -7.7046    1.7289    7.0704 Du        2 SUP2    0.0000
@<TRIPOS>BOND
     1    1   11 2
     2    2    8 2
     3    3   11 1
     4    4   12 1
     5    5    8 1
     6    6    7 1
     7    7   10 ar
     8    8   24 1
     9    9    6 1
    10   10   16 1
    11   11    5 1
    12   12   13 1
    13   14   15 1
    14   16    9 2
    15   17   36 2
    16   18   14 ar
    17   19   30 ar
    18   20   18 ar
    19   21   20 1
    20   22   23 1
    21   24   16 1
    22   25   24 1
    23   26   10 ar
    24   27   26 1
    25   28    7 ar
    26   29   28 1
    27   30   14 ar
    28   31   30 1
    29   32   22 ar
    30   33   32 1
    31   34   19 ar
    32   35   34 1
    33   36   12 1
    34   37    3 1
    35   38   37 1
    36   39   37 1
    37   40    6 1
    38   41   40 1
    39   42   40 1
    40   43    3 1
    41   44   43 1
    42   45   43 1
    43   46    5 1
    44   47   46 1
    45   48   46 1
    46   49   46 1
    47   50    4 1
    48    9   37 1
    49   18   36 1
    50   19   40 1
    51   20   34 ar
    52   22   26 ar
    53   24   43 1
    54   28   32 ar
@<TRIPOS>SUBSTRUCTURE
     1 RES1 1
     2 SUP2 51

@<TRIPOS>CRYSIN
  11.5277   10.2299   15.9378  90.0000  99.6558  90.0000  14 1

