# MOL2 file generated by ConQuest
# Please check atom types

@<TRIPOS>MOLECULE
NIDMUL
    60    65     1
SMALL
NO_CHARGES
****
Generated from CSD

@<TRIPOS>ATOM
      1 O1         7.1656    6.1516    3.8005 O.3       1 RES1    0.0000
      2 O2         4.2478    5.9415    0.2978 O.2       1 RES1    0.0000
      3 O3         8.1668    7.9051    1.6065 O.2       1 RES1    0.0000
      4 N1         5.7983    6.6730    3.9819 N.3       1 RES1    0.0000
      5 N2         6.1612    7.1688    0.7074 N.am      1 RES1    0.0000
      6 N3         4.0804    2.7869    5.6541 N.pl3     1 RES1    0.0000
      7 C1         4.9740    5.5508    3.4004 C.3       1 RES1    0.0000
      8 H1         4.0555    5.8837    3.1870 H         1 RES1    0.0000
      9 C2         5.7471    5.2989    2.0971 C.3       1 RES1    0.0000
     10 H2         5.7744    4.3258    1.8673 H         1 RES1    0.0000
     11 C3         5.2576    6.1296    0.9333 C.2       1 RES1    0.0000
     12 C4         7.2696    7.1052    1.5540 C.2       1 RES1    0.0000
     13 C5         7.1432    5.8433    2.4112 C.3       1 RES1    0.0000
     14 H3         7.8517    5.1773    2.1792 H         1 RES1    0.0000
     15 C6         3.7897    3.9531    4.9863 C.2       1 RES1    0.0000
     16 H4         2.9661    4.4252    5.0316 H         1 RES1    0.0000
     17 C7         4.8790    4.3208    4.2485 C.2       1 RES1    0.0000
     18 C8         5.8830    3.3291    4.4679 C.2       1 RES1    0.0000
     19 H5         6.7510    3.3148    4.0846 H         1 RES1    0.0000
     20 C9         5.3656    2.4069    5.3320 C.2       1 RES1    0.0000
     21 H6         5.8147    1.6346    5.6553 H         1 RES1    0.0000
     22 C10        5.5821    6.9283    5.3818 C.ar      1 RES1    0.0000
     23 C11        4.5177    7.7849    5.7059 C.ar      1 RES1    0.0000
     24 C12        4.2738    8.0209    7.0613 C.ar      1 RES1    0.0000
     25 H7         3.5470    8.5811    7.3097 H         1 RES1    0.0000
     26 C13        5.0618    7.4613    8.0551 C.ar      1 RES1    0.0000
     27 H8         4.8773    7.6447    8.9678 H         1 RES1    0.0000
     28 C14        6.1144    6.6378    7.7128 C.ar      1 RES1    0.0000
     29 H9         6.6602    6.2566    8.3897 H         1 RES1    0.0000
     30 C15        6.3737    6.3683    6.3764 C.ar      1 RES1    0.0000
     31 H10        7.0958    5.7988    6.1421 H         1 RES1    0.0000
     32 C16        5.9696    8.1485   -0.3278 C.ar      1 RES1    0.0000
     33 C17        4.7586    8.8231   -0.3990 C.ar      1 RES1    0.0000
     34 H11        4.0733    8.6515    0.2358 H         1 RES1    0.0000
     35 C18        4.5640    9.7508   -1.4106 C.ar      1 RES1    0.0000
     36 H12        3.7386   10.2178   -1.4718 H         1 RES1    0.0000
     37 C19        5.5685   10.0038   -2.3389 C.ar      1 RES1    0.0000
     38 H13        5.4297   10.6425   -3.0273 H         1 RES1    0.0000
     39 C20        6.7694    9.3228   -2.2545 C.ar      1 RES1    0.0000
     40 H14        7.4535    9.4906   -2.8942 H         1 RES1    0.0000
     41 C21        6.9806    8.3938   -1.2394 C.ar      1 RES1    0.0000
     42 H15        7.8095    7.9347   -1.1752 H         1 RES1    0.0000
     43 C22        3.1934    2.0531    6.5007 C.ar      1 RES1    0.0000
     44 C23        2.6819    2.6441    7.6607 C.ar      1 RES1    0.0000
     45 C24        1.8358    1.8712    8.4510 C.ar      1 RES1    0.0000
     46 H16        1.4620    2.2520    9.2379 H         1 RES1    0.0000
     47 C25        1.5213    0.5567    8.1220 C.ar      1 RES1    0.0000
     48 H17        0.9393    0.0518    8.6788 H         1 RES1    0.0000
     49 C26        2.0607   -0.0139    6.9811 C.ar      1 RES1    0.0000
     50 H18        1.8601   -0.9157    6.7582 H         1 RES1    0.0000
     51 C27        2.8925    0.7371    6.1691 C.ar      1 RES1    0.0000
     52 H19        3.2598    0.3522    5.3815 H         1 RES1    0.0000
     53 C28        3.6775    8.4460    4.6497 C.3       1 RES1    0.0000
     54 H20        4.2370    8.6598    3.8754 H         1 RES1    0.0000
     55 H21        3.2895    9.2710    5.0087 H         1 RES1    0.0000
     56 H22        2.9584    7.8374    4.3774 H         1 RES1    0.0000
     57 C29        3.0628    4.0469    8.0764 C.3       1 RES1    0.0000
     58 H23        4.0175    4.1890    7.9067 H         1 RES1    0.0000
     59 H24        2.8777    4.1662    9.0325 H         1 RES1    0.0000
     60 H25        2.5401    4.6945    7.5607 H         1 RES1    0.0000
@<TRIPOS>BOND
     1    1    4 1
     2    2   11 2
     3    3   12 2
     4    4    7 1
     5    5   11 1
     6    6   15 1
     7    7    8 1
     8    9    7 1
     9   10    9 1
    10   11    9 1
    11   12    5 1
    12   13    1 1
    13   14   13 1
    14   15   16 1
    15   17    7 1
    16   18   17 1
    17   19   18 1
    18   20    6 1
    19   21   20 1
    20   22    4 1
    21   23   22 ar
    22   24   23 ar
    23   25   24 1
    24   26   24 ar
    25   27   26 1
    26   28   26 ar
    27   29   28 1
    28   30   22 ar
    29   31   30 1
    30   32    5 1
    31   33   32 ar
    32   34   33 1
    33   35   33 ar
    34   36   35 1
    35   37   35 ar
    36   38   37 1
    37   39   37 ar
    38   40   39 1
    39   41   32 ar
    40   42   41 1
    41   43    6 1
    42   44   43 ar
    43   45   44 ar
    44   46   45 1
    45   47   45 ar
    46   48   47 1
    47   49   47 ar
    48   50   49 1
    49   51   43 ar
    50   52   51 1
    51   53   23 1
    52   54   53 1
    53   55   53 1
    54   56   53 1
    55   57   44 1
    56   58   57 1
    57   59   57 1
    58   60   57 1
    59    9   13 1
    60   12   13 1
    61   15   17 2
    62   18   20 2
    63   28   30 ar
    64   39   41 ar
    65   49   51 ar
@<TRIPOS>SUBSTRUCTURE
     1 RES1 1

@<TRIPOS>CRYSIN
   5.9334   20.7173   38.0315  90.0000  90.0000  90.0000  61 1

