# MOL2 file generated by ConQuest
# Please check atom types

@<TRIPOS>MOLECULE
NIFGOZ
    33    34     1
SMALL
NO_CHARGES
****
Generated from CSD

@<TRIPOS>ATOM
      1 O1         1.3329    7.5013    7.1976 O.2       1 RES1    0.0000
      2 O2         2.9917    8.7457   -0.5972 O.2       1 RES1    0.0000
      3 O3         1.8247   10.3160   -1.5246 O.2       1 RES1    0.0000
      4 N1         2.0386    9.5183   -0.6120 N.pl3     1 RES1    0.0000
      5 N2        -1.2645    4.6340    5.0644 N.1       1 RES1    0.0000
      6 C1         1.5132    7.1705    6.0394 C.2       1 RES1    0.0000
      7 C2         1.9446    5.7751    5.6763 C.3       1 RES1    0.0000
      8 C3         1.2160    5.1912    4.4422 C.3       1 RES1    0.0000
      9 C4         1.1999    6.2205    3.3077 C.3       1 RES1    0.0000
     10 C5         0.5673    7.5422    3.7357 C.3       1 RES1    0.0000
     11 C6         1.3613    8.1480    4.9004 C.3       1 RES1    0.0000
     12 C7         1.8965    3.8962    3.9839 C.3       1 RES1    0.0000
     13 C8         0.4164    8.5367    2.6066 C.ar      1 RES1    0.0000
     14 C9         1.3046    8.5724    1.5278 C.ar      1 RES1    0.0000
     15 C10        1.0987    9.5013    0.5197 C.ar      1 RES1    0.0000
     16 C11        0.0549   10.3865    0.5233 C.ar      1 RES1    0.0000
     17 C12       -0.8114   10.3694    1.6058 C.ar      1 RES1    0.0000
     18 C13       -0.6255    9.4535    2.6311 C.ar      1 RES1    0.0000
     19 C14       -0.1772    4.8745    4.8089 C.1       1 RES1    0.0000
     20 H1         2.9185    5.7793    5.4980 H         1 RES1    0.0000
     21 H2         1.7840    5.1805    6.4513 H         1 RES1    0.0000
     22 H3         0.6938    5.8512    2.5410 H         1 RES1    0.0000
     23 H4         2.1283    6.3869    3.0069 H         1 RES1    0.0000
     24 H5        -0.3503    7.3368    4.0759 H         1 RES1    0.0000
     25 H6         0.8969    8.9592    5.2258 H         1 RES1    0.0000
     26 H7         2.2580    8.4174    4.5794 H         1 RES1    0.0000
     27 H8         1.4108    3.5256    3.2177 H         1 RES1    0.0000
     28 H9         2.8213    4.0884    3.7227 H         1 RES1    0.0000
     29 H10        1.8925    3.2476    4.7184 H         1 RES1    0.0000
     30 H11        2.0376    7.9693    1.4861 H         1 RES1    0.0000
     31 H12       -0.0721   10.9953   -0.1950 H         1 RES1    0.0000
     32 H13       -1.5332   10.9862    1.6454 H         1 RES1    0.0000
     33 H14       -1.2256    9.4539    3.3677 H         1 RES1    0.0000
@<TRIPOS>BOND
     1    1    6 2
     2    2    4 2
     3    3    4 2
     4    4   15 1
     5    5   19 3
     6    6    7 1
     7    7    8 1
     8    8    9 1
     9    9   10 1
    10   10   11 1
    11   11    6 1
    12   12    8 1
    13   13   10 1
    14   14   13 ar
    15   15   14 ar
    16   16   15 ar
    17   17   16 ar
    18   18   13 ar
    19   19    8 1
    20   20    7 1
    21   21    7 1
    22   22    9 1
    23   23    9 1
    24   24   10 1
    25   25   11 1
    26   26   11 1
    27   27   12 1
    28   28   12 1
    29   29   12 1
    30   30   14 1
    31   31   16 1
    32   32   17 1
    33   33   18 1
    34   17   18 ar
@<TRIPOS>SUBSTRUCTURE
     1 RES1 1

@<TRIPOS>CRYSIN
  12.2284    8.0986   13.1376  90.0000  91.3360  90.0000  14 2

