# MOL2 file generated by ConQuest
# Please check atom types

@<TRIPOS>MOLECULE
NIHKAR
    45    48     1
SMALL
NO_CHARGES
****
Generated from CSD

@<TRIPOS>ATOM
      1 N1         9.0300    3.2009    2.6442 N.pl3     1 RES1    0.0000
      2 O1         8.4826    4.1603    2.1398 O.2       1 RES1    0.0000
      3 C1         8.9423    5.8781   -2.0824 C.3       1 RES1    0.0000
      4 O2         9.7308    3.2944    3.6478 O.2       1 RES1    0.0000
      5 C2         8.2933    5.2818   -0.7965 C.3       1 RES1    0.0000
      6 H1         8.4992    5.7982    0.0215 H         1 RES1    0.0000
      7 H2         7.2169    5.0834   -0.9362 H         1 RES1    0.0000
      8 C3         8.8565    3.8566   -0.6396 C.3       1 RES1    0.0000
      9 H3         9.6131    3.8026   -0.0592 H         1 RES1    0.0000
     10 C4         9.0989    3.4609   -2.0851 C.3       1 RES1    0.0000
     11 C5         9.5401    4.6695   -2.8633 C.3       1 RES1    0.0000
     12 H4         9.3323    4.7260   -3.7251 H         1 RES1    0.0000
     13 H5        10.4836    4.7657   -2.8499 H         1 RES1    0.0000
     14 C6         7.8675    6.6189   -2.8655 C.2       1 RES1    0.0000
     15 O3         7.3266    6.2309   -3.8551 O.2       1 RES1    0.0000
     16 O4         7.5945    7.7728   -2.2498 O.3       1 RES1    0.0000
     17 C7         6.5916    8.6308   -2.8490 C.3       1 RES1    0.0000
     18 H6         7.0100    9.1928   -3.5350 H         1 RES1    0.0000
     19 H7         6.1928    9.1997   -2.1576 H         1 RES1    0.0000
     20 H8         5.8933    8.0788   -3.2606 H         1 RES1    0.0000
     21 C8        10.0411    6.8762   -1.7531 C.2       1 RES1    0.0000
     22 O5        10.4667    7.1282   -0.6711 O.2       1 RES1    0.0000
     23 O6        10.4746    7.4448   -2.8881 O.3       1 RES1    0.0000
     24 C9        11.4543    8.4929   -2.7367 C.3       1 RES1    0.0000
     25 H9        11.2156    9.0548   -1.9693 H         1 RES1    0.0000
     26 H10       11.4740    9.0409   -3.5493 H         1 RES1    0.0000
     27 H11       12.3379    8.0957   -2.5898 H         1 RES1    0.0000
     28 C10        7.9824    2.5347   -2.4271 C.3       1 RES1    0.0000
     29 H12        7.5913    2.5020   -3.2534 H         1 RES1    0.0000
     30 O7         7.1557    2.3176   -1.3058 O.3       1 RES1    0.0000
     31 C11        7.7867    2.8614   -0.1284 C.3       1 RES1    0.0000
     32 H13        7.1045    3.3360    0.3713 H         1 RES1    0.0000
     33 C12        9.4053    2.0243   -2.4029 C.3       1 RES1    0.0000
     34 H14        9.6693    1.7971   -3.2480 H         1 RES1    0.0000
     35 H15        9.6319    1.4396   -1.6841 H         1 RES1    0.0000
     36 C13        8.2966    1.7239    0.7621 C.ar      1 RES1    0.0000
     37 C14        8.8548    1.8845    2.0340 C.ar      1 RES1    0.0000
     38 C15        9.2745    0.7958    2.8075 C.ar      1 RES1    0.0000
     39 H16        9.6487    0.9373    3.6695 H         1 RES1    0.0000
     40 C16        9.1426   -0.4718    2.3158 C.ar      1 RES1    0.0000
     41 H17        9.4184   -1.2152    2.8391 H         1 RES1    0.0000
     42 C17        8.6069   -0.6743    1.0546 C.ar      1 RES1    0.0000
     43 H18        8.5311   -1.5538    0.7031 H         1 RES1    0.0000
     44 C18        8.1814    0.4116    0.3076 C.ar      1 RES1    0.0000
     45 H19        7.7963    0.2562   -0.5470 H         1 RES1    0.0000
@<TRIPOS>BOND
     1    1    2 2
     2    3    5 1
     3    4    1 2
     4    5    6 1
     5    7    5 1
     6    8    5 1
     7    9    8 1
     8   10    8 1
     9   11    3 1
    10   12   11 1
    11   13   11 1
    12   14    3 1
    13   15   14 2
    14   16   14 1
    15   17   16 1
    16   18   17 1
    17   19   17 1
    18   20   17 1
    19   21    3 1
    20   22   21 2
    21   23   21 1
    22   24   23 1
    23   25   24 1
    24   26   24 1
    25   27   24 1
    26   28   10 1
    27   29   28 1
    28   30   28 1
    29   31    8 1
    30   32   31 1
    31   33   10 1
    32   34   33 1
    33   35   33 1
    34   36   31 1
    35   37    1 1
    36   38   37 ar
    37   39   38 1
    38   40   38 ar
    39   41   40 1
    40   42   40 ar
    41   43   42 1
    42   44   36 ar
    43   45   44 1
    44   10   11 1
    45   28   33 1
    46   30   31 1
    47   36   37 ar
    48   42   44 ar
@<TRIPOS>SUBSTRUCTURE
     1 RES1 1

@<TRIPOS>CRYSIN
   9.3604    9.9285   17.9350  90.0000  90.0000  90.0000  19 1

