# MOL2 file generated by ConQuest
# Please check atom types

@<TRIPOS>MOLECULE
NIJHOD
    54    55     1
SMALL
NO_CHARGES
****
Generated from CSD

@<TRIPOS>ATOM
      1 O1         3.9489    4.4968    5.7209 O.2       1 RES1    0.0000
      2 O2         3.2968    6.0356    7.2277 O.3       1 RES1    0.0000
      3 O3         1.1945    8.7009    2.4131 O.3       1 RES1    0.0000
      4 O4         2.7739    7.9921    3.8311 O.2       1 RES1    0.0000
      5 O5         0.2383    5.3282    1.1376 O.2       1 RES1    0.0000
      6 O6         2.3071    6.1102    1.1960 O.3       1 RES1    0.0000
      7 O7         1.4691    2.6154    7.2861 O.3       1 RES1    0.0000
      8 O8         3.1380    1.1848    6.7768 O.2       1 RES1    0.0000
      9 O9         4.8439    4.8663   12.7711 O.2       1 RES1    0.0000
     10 O10        6.4902    3.5359   12.3646 O.2       1 RES1    0.0000
     11 N1         5.3681    3.9932   12.1146 N.pl3     1 RES1    0.0000
     12 C1         0.7753    2.2241    6.0340 C.3       1 RES1    0.0000
     13 C2         1.3794    2.9622    4.8659 C.3       1 RES1    0.0000
     14 C3         1.0172    4.4231    4.8379 C.3       1 RES1    0.0000
     15 C4         1.7506    5.4184    4.0226 C.3       1 RES1    0.0000
     16 C5         1.8151    5.5397    5.5107 C.3       1 RES1    0.0000
     17 C6         3.1226    5.2747    6.1391 C.2       1 RES1    0.0000
     18 C7         1.0203    6.4513    3.1396 C.3       1 RES1    0.0000
     19 C8         1.7775    7.7757    3.1957 C.2       1 RES1    0.0000
     20 C9         1.1027    5.9149    1.7123 C.2       1 RES1    0.0000
     21 C10        4.5991    5.9010    7.8934 C.3       1 RES1    0.0000
     22 C11        1.8079   10.0157    2.4038 C.3       1 RES1    0.0000
     23 C12        2.5809    5.5961   -0.1378 C.3       1 RES1    0.0000
     24 C13       -0.4360    6.6699    3.5157 C.3       1 RES1    0.0000
     25 C14        2.6545    2.0205    7.4893 C.2       1 RES1    0.0000
     26 C15        3.3135    2.5335    8.7321 C.ar      1 RES1    0.0000
     27 C16        4.5746    2.0263    9.0451 C.ar      1 RES1    0.0000
     28 C17        5.2631    2.4991   10.1524 C.ar      1 RES1    0.0000
     29 C18        4.6405    3.4602   10.9326 C.ar      1 RES1    0.0000
     30 C19        3.3814    3.9515   10.6663 C.ar      1 RES1    0.0000
     31 C20        2.7117    3.4867    9.5637 C.ar      1 RES1    0.0000
     32 H1        -0.1884    2.4407    6.1040 H         1 RES1    0.0000
     33 H2         0.8640    1.2480    5.8938 H         1 RES1    0.0000
     34 H3         2.3642    2.8756    4.9080 H         1 RES1    0.0000
     35 H4         1.0735    2.5388    4.0250 H         1 RES1    0.0000
     36 H5         0.0302    4.5812    4.8566 H         1 RES1    0.0000
     37 H6         2.5895    5.0609    3.6138 H         1 RES1    0.0000
     38 H7         1.2775    6.2810    5.9125 H         1 RES1    0.0000
     39 H8         4.6373    6.5083    8.6620 H         1 RES1    0.0000
     40 H9         5.3141    6.1281    7.2627 H         1 RES1    0.0000
     41 H10        4.7151    4.9778    8.2018 H         1 RES1    0.0000
     42 H11        1.3189   10.5998    1.7871 H         1 RES1    0.0000
     43 H12        2.7405    9.9392    2.1094 H         1 RES1    0.0000
     44 H13        1.7797   10.3967    3.3055 H         1 RES1    0.0000
     45 H14        3.4551    5.9204   -0.4415 H         1 RES1    0.0000
     46 H15        1.8861    5.9059   -0.7569 H         1 RES1    0.0000
     47 H16        2.5856    4.6164   -0.1168 H         1 RES1    0.0000
     48 H17       -0.4913    6.9653    4.4478 H         1 RES1    0.0000
     49 H18       -0.9304    5.8306    3.4083 H         1 RES1    0.0000
     50 H19       -0.8245    7.3547    2.9317 H         1 RES1    0.0000
     51 H20        4.9633    1.3535    8.4985 H         1 RES1    0.0000
     52 H21        6.1300    2.1772   10.3673 H         1 RES1    0.0000
     53 H22        2.9847    4.5994   11.2363 H         1 RES1    0.0000
     54 H23        1.8410    3.8110    9.3628 H         1 RES1    0.0000
@<TRIPOS>BOND
     1    1   17 2
     2    2   17 1
     3    3   19 1
     4    4   19 2
     5    5   20 2
     6    6   20 1
     7    7   12 1
     8    8   25 2
     9    9   11 2
    10   10   11 2
    11   11   29 1
    12   12   13 1
    13   13   14 1
    14   14   15 1
    15   15   16 1
    16   16   14 1
    17   17   16 1
    18   18   15 1
    19   19   18 1
    20   20   18 1
    21   21    2 1
    22   22    3 1
    23   23    6 1
    24   24   18 1
    25   25    7 1
    26   26   25 1
    27   27   26 ar
    28   28   27 ar
    29   29   28 ar
    30   30   29 ar
    31   31   26 ar
    32   32   12 1
    33   33   12 1
    34   34   13 1
    35   35   13 1
    36   36   14 1
    37   37   15 1
    38   38   16 1
    39   39   21 1
    40   40   21 1
    41   41   21 1
    42   42   22 1
    43   43   22 1
    44   44   22 1
    45   45   23 1
    46   46   23 1
    47   47   23 1
    48   48   24 1
    49   49   24 1
    50   50   24 1
    51   51   27 1
    52   52   28 1
    53   53   30 1
    54   54   31 1
    55   30   31 ar
@<TRIPOS>SUBSTRUCTURE
     1 RES1 1

@<TRIPOS>CRYSIN
   6.1764    7.6645   23.6420  96.0990  93.9380 109.8510   2 1

