# MOL2 file generated by ConQuest
# Please check atom types

@<TRIPOS>MOLECULE
NIJPAZ
    24    25     1
SMALL
NO_CHARGES
****
Generated from CSD

@<TRIPOS>ATOM
      1 O1         2.1234   11.0244    0.7916 O.3       1 RES1    0.0000
      2 O2         1.4816    7.0440   -2.0687 O.2       1 RES1    0.0000
      3 N1         1.7174    7.2979   -0.8909 N.pl3     1 RES1    0.0000
      4 O3         1.9094    6.4230   -0.0461 O.2       1 RES1    0.0000
      5 C1         1.6685   11.0264   -0.5197 C.2       1 RES1    0.0000
      6 C2         1.7729   13.1686    0.1136 C.ar      1 RES1    0.0000
      7 C3         1.8046    8.6578   -0.4320 C.2       1 RES1    0.0000
      8 H1         2.0838    8.7962    0.4443 H         1 RES1    0.0000
      9 C4         2.5357   14.1910    2.5772 C.ar      1 RES1    0.0000
     10 H2         2.7698   14.5570    3.3995 H         1 RES1    0.0000
     11 C5         2.5689   12.8117    2.4185 C.ar      1 RES1    0.0000
     12 H3         2.8381   12.2387    3.1002 H         1 RES1    0.0000
     13 C6         1.4403   12.2913   -0.9505 C.2       1 RES1    0.0000
     14 H4         1.1235   12.5384   -1.7897 H         1 RES1    0.0000
     15 C7         1.5155    9.7386   -1.1665 C.2       1 RES1    0.0000
     16 C8         2.1580   15.0488    1.5310 C.ar      1 RES1    0.0000
     17 H5         2.1773   15.9683    1.6694 H         1 RES1    0.0000
     18 C9         2.1699   12.3497    1.1710 C.ar      1 RES1    0.0000
     19 C10        1.7621   14.5662    0.3071 C.ar      1 RES1    0.0000
     20 H6         1.4955   15.1426   -0.3723 H         1 RES1    0.0000
     21 C11        1.0395    9.7569   -2.5929 C.3       1 RES1    0.0000
     22 H7         0.9770    8.8568   -2.9214 H         1 RES1    0.0000
     23 H8         1.6615   10.2521   -3.1317 H         1 RES1    0.0000
     24 H9         0.1761   10.1744   -2.6368 H         1 RES1    0.0000
@<TRIPOS>BOND
     1    1    5 1
     2    2    3 2
     3    3    4 2
     4    5   13 2
     5    6   13 1
     6    7    3 1
     7    8    7 1
     8    9   10 1
     9   11    9 ar
    10   12   11 1
    11   13   14 1
    12   15    5 1
    13   16    9 ar
    14   17   16 1
    15   18    1 1
    16   19    6 ar
    17   20   19 1
    18   21   15 1
    19   22   21 1
    20   23   21 1
    21   24   21 1
    22    6   18 ar
    23    7   15 2
    24   11   18 ar
    25   16   19 ar
@<TRIPOS>SUBSTRUCTURE
     1 RES1 1

@<TRIPOS>CRYSIN
   7.2107   11.4370   11.3610  90.0000  98.0500  90.0000  14 1

