# MOL2 file generated by ConQuest
# Please check atom types

@<TRIPOS>MOLECULE
NIJWEJ
    53    54     1
SMALL
NO_CHARGES
****
Generated from CSD

@<TRIPOS>ATOM
      1 O1         6.8298   12.3852    9.4410 O.3       1 RES1    0.0000
      2 O2         6.6057   12.0601    7.2452 O.2       1 RES1    0.0000
      3 O3         6.8303    7.0427   10.7872 O.3       1 RES1    0.0000
      4 O4         6.9533    6.2135    8.3538 O.3       1 RES1    0.0000
      5 O5         8.9491    5.2474    8.5563 O.2       1 RES1    0.0000
      6 O6         7.2500    9.3257    5.3545 O.3       1 RES1    0.0000
      7 O7         8.8200    9.8494    6.7448 O.2       1 RES1    0.0000
      8 O8         8.6634   10.9018    4.8866 O.2       1 RES1    0.0000
      9 N1         8.3418   10.1100    5.6692 N.pl3     1 RES1    0.0000
     10 C1         6.8453   10.9928    9.6863 C.ar      1 RES1    0.0000
     11 C2         5.6330   10.3504    9.9107 C.ar      1 RES1    0.0000
     12 C3         5.6566    9.0015   10.2639 C.ar      1 RES1    0.0000
     13 C4         6.8908    8.3656   10.3860 C.ar      1 RES1    0.0000
     14 C5         8.1010    9.0131   10.1500 C.ar      1 RES1    0.0000
     15 C6         8.0803   10.3667    9.8003 C.ar      1 RES1    0.0000
     16 C7         9.3548   11.1313    9.5662 C.3       1 RES1    0.0000
     17 H1         9.1489   11.9891    9.1869 H         1 RES1    0.0000
     18 H2         9.9155   10.6405    8.9608 H         1 RES1    0.0000
     19 H3         9.8129   11.2525   10.4002 H         1 RES1    0.0000
     20 C8         4.3282   11.0873    9.7768 C.3       1 RES1    0.0000
     21 H4         4.4969   11.9892    9.4957 H         1 RES1    0.0000
     22 H5         3.8774   11.0957   10.6252 H         1 RES1    0.0000
     23 H6         3.7769   10.6465    9.1259 H         1 RES1    0.0000
     24 C9         4.3880    8.2285   10.4924 C.3       1 RES1    0.0000
     25 H7         4.5932    7.2948   10.5833 H         1 RES1    0.0000
     26 H8         3.7975    8.3545    9.7457 H         1 RES1    0.0000
     27 H9         3.9616    8.5420   11.2928 H         1 RES1    0.0000
     28 C10        6.7036   12.8090    8.1627 C.2       1 RES1    0.0000
     29 C11        6.6869   14.2956    8.1029 C.3       1 RES1    0.0000
     30 H10        6.7458   14.5796    7.1887 H         1 RES1    0.0000
     31 H11        7.4338   14.6432    8.5959 H         1 RES1    0.0000
     32 H12        5.8701   14.6218    8.4882 H         1 RES1    0.0000
     33 C12        7.9618    6.2153   10.5137 C.3       1 RES1    0.0000
     34 C13        9.2410    6.9188   10.9375 C.3       1 RES1    0.0000
     35 H13        9.2312    7.0483   11.8983 H         1 RES1    0.0000
     36 H14       10.0011    6.3581   10.7185 H         1 RES1    0.0000
     37 C14        9.3987    8.2560   10.2578 C.3       1 RES1    0.0000
     38 H15       10.0363    8.7908   10.7556 H         1 RES1    0.0000
     39 H16        9.7582    8.1179    9.3676 H         1 RES1    0.0000
     40 C15        7.7306    4.9446   11.3228 C.3       1 RES1    0.0000
     41 H17        7.7350    5.1571   12.2596 H         1 RES1    0.0000
     42 H18        8.4296    4.3141   11.1349 H         1 RES1    0.0000
     43 H19        6.8823    4.5629   11.0846 H         1 RES1    0.0000
     44 C16        8.0256    5.8424    9.0364 C.2       1 RES1    0.0000
     45 C17        6.9595    5.9395    6.9243 C.3       1 RES1    0.0000
     46 H20        6.0475    5.8288    6.6144 H         1 RES1    0.0000
     47 H21        7.4355    5.1108    6.7580 H         1 RES1    0.0000
     48 C18        7.6143    7.0525    6.1609 C.3       1 RES1    0.0000
     49 H22        8.5299    7.1574    6.4636 H         1 RES1    0.0000
     50 H23        7.6331    6.8287    5.2169 H         1 RES1    0.0000
     51 C19        6.8764    8.3391    6.3524 C.3       1 RES1    0.0000
     52 H24        5.9221    8.1721    6.2961 H         1 RES1    0.0000
     53 H25        7.0674    8.6888    7.2366 H         1 RES1    0.0000
@<TRIPOS>BOND
     1    1   10 1
     2    2   28 2
     3    3   13 1
     4    4   44 1
     5    5   44 2
     6    6    9 1
     7    7    9 2
     8    8    9 2
     9   10   11 ar
    10   11   12 ar
    11   12   13 ar
    12   13   14 ar
    13   14   15 ar
    14   15   10 ar
    15   16   15 1
    16   17   16 1
    17   18   16 1
    18   19   16 1
    19   20   11 1
    20   21   20 1
    21   22   20 1
    22   23   20 1
    23   24   12 1
    24   25   24 1
    25   26   24 1
    26   27   24 1
    27   28    1 1
    28   29   28 1
    29   30   29 1
    30   31   29 1
    31   32   29 1
    32   33    3 1
    33   34   33 1
    34   35   34 1
    35   36   34 1
    36   37   14 1
    37   38   37 1
    38   39   37 1
    39   40   33 1
    40   41   40 1
    41   42   40 1
    42   43   40 1
    43   44   33 1
    44   45    4 1
    45   46   45 1
    46   47   45 1
    47   48   45 1
    48   49   48 1
    49   50   48 1
    50   51    6 1
    51   52   51 1
    52   53   51 1
    53   34   37 1
    54   48   51 1
@<TRIPOS>SUBSTRUCTURE
     1 RES1 1

@<TRIPOS>CRYSIN
   9.0130    9.8110   12.6860  81.6300  70.7000  69.8900   2 1

