# MOL2 file generated by ConQuest
# Please check atom types

@<TRIPOS>MOLECULE
NIJWEL
    48    50     1
SMALL
NO_CHARGES
****
Generated from CSD

@<TRIPOS>ATOM
      1 O1         2.8574    5.6315    5.9238 O.2       1 RES1    0.0000
      2 O2         3.9235    5.7636    7.7808 O.2       1 RES1    0.0000
      3 O3         6.2110    5.5047    2.7066 O.2       1 RES1    0.0000
      4 N1         3.7536    6.1001    6.6135 N.pl3     1 RES1    0.0000
      5 N2         4.3175    6.2078    3.7593 N.am      1 RES1    0.0000
      6 H1         3.4641    6.1134    3.8094 H         1 RES1    0.0000
      7 N3         4.1760    4.7551    2.0203 N.am      1 RES1    0.0000
      8 H2         3.3294    4.8422    2.1421 H         1 RES1    0.0000
      9 C1         5.2687    7.9695    6.9007 C.ar      1 RES1    0.0000
     10 H3         5.0534    7.9562    7.8062 H         1 RES1    0.0000
     11 C2         6.1745    8.8716    6.4332 C.ar      1 RES1    0.0000
     12 H4         6.5876    9.4676    7.0148 H         1 RES1    0.0000
     13 C3         6.4742    8.8932    5.0809 C.ar      1 RES1    0.0000
     14 H5         7.0896    9.5099    4.7539 H         1 RES1    0.0000
     15 C4         5.8693    8.0094    4.2163 C.ar      1 RES1    0.0000
     16 H6         6.0898    8.0329    3.3121 H         1 RES1    0.0000
     17 C5         4.9411    7.0869    4.6624 C.ar      1 RES1    0.0000
     18 C6         4.6669    7.0733    6.0365 C.ar      1 RES1    0.0000
     19 C7         4.9917    5.4937    2.8042 C.2       1 RES1    0.0000
     20 C8         4.5955    3.8443    1.0088 C.ar      1 RES1    0.0000
     21 C9         5.6156    4.1527    0.1227 C.ar      1 RES1    0.0000
     22 H7         6.0796    4.9545    0.2047 H         1 RES1    0.0000
     23 C10        3.9265    2.6499    0.8832 C.ar      1 RES1    0.0000
     24 H8         3.2475    2.4387    1.4831 H         1 RES1    0.0000
     25 O1A        7.0088    0.2810   -5.9238 O.2       1 RES1    0.0000
     26 O2A        5.9426    0.1489   -7.7808 O.2       1 RES1    0.0000
     27 O3A        3.6552    0.4078   -2.7066 O.2       1 RES1    0.0000
     28 N1A        6.1126   -0.1876   -6.6135 N.pl3     1 RES1    0.0000
     29 N2A        5.5487   -0.2952   -3.7593 N.am      1 RES1    0.0000
     30 H1A        6.4021   -0.2009   -3.8094 H         1 RES1    0.0000
     31 N3A        5.6902    1.1574   -2.0203 N.am      1 RES1    0.0000
     32 H2A        6.5368    1.0703   -2.1421 H         1 RES1    0.0000
     33 C1A        4.5975   -2.0570   -6.9007 C.ar      1 RES1    0.0000
     34 H3A        4.8128   -2.0437   -7.8062 H         1 RES1    0.0000
     35 C2A        3.6917   -2.9591   -6.4332 C.ar      1 RES1    0.0000
     36 H4A        3.2786   -3.5551   -7.0148 H         1 RES1    0.0000
     37 C3A        3.3919   -2.9807   -5.0809 C.ar      1 RES1    0.0000
     38 H5A        2.7766   -3.5974   -4.7539 H         1 RES1    0.0000
     39 C4A        3.9968   -2.0968   -4.2163 C.ar      1 RES1    0.0000
     40 H6A        3.7764   -2.1204   -3.3121 H         1 RES1    0.0000
     41 C5A        4.9251   -1.1744   -4.6624 C.ar      1 RES1    0.0000
     42 C6A        5.1992   -1.1607   -6.0365 C.ar      1 RES1    0.0000
     43 C7A        4.8745    0.4189   -2.8042 C.2       1 RES1    0.0000
     44 C8A        5.2707    2.0682   -1.0088 C.ar      1 RES1    0.0000
     45 C9A        4.2506    1.7598   -0.1227 C.ar      1 RES1    0.0000
     46 H7A        3.7866    0.9581   -0.2047 H         1 RES1    0.0000
     47 C10A       5.9396    3.2627   -0.8832 C.ar      1 RES1    0.0000
     48 H8A        6.6187    3.4738   -1.4831 H         1 RES1    0.0000
@<TRIPOS>BOND
     1    1    4 2
     2    2    4 2
     3    3   19 2
     4    4   18 1
     5    5    6 1
     6    7    8 1
     7    9   10 1
     8   11    9 ar
     9   12   11 1
    10   13   11 ar
    11   14   13 1
    12   15   13 ar
    13   16   15 1
    14   17    5 1
    15   18    9 ar
    16   19    5 1
    17   20    7 1
    18   21   20 ar
    19   22   21 1
    20   23   20 ar
    21   24   23 1
    22   25   28 2
    23   26   28 2
    24   27   43 2
    25   28   42 1
    26   29   30 1
    27   31   32 1
    28   33   34 1
    29   35   33 ar
    30   36   35 1
    31   37   35 ar
    32   38   37 1
    33   39   37 ar
    34   40   39 1
    35   41   29 1
    36   42   33 ar
    37   43   29 1
    38   44   31 1
    39   45   23 ar
    40   46   45 1
    41   47   21 ar
    42   48   47 1
    43    7   19 1
    44   15   17 ar
    45   17   18 ar
    46   31   43 1
    47   39   41 ar
    48   41   42 ar
    49   44   45 ar
    50   44   47 ar
@<TRIPOS>SUBSTRUCTURE
     1 RES1 1

@<TRIPOS>CRYSIN
   4.6717    5.9356   17.3649  82.7290  86.6650  84.9470   2 1

