# MOL2 file generated by ConQuest
# Please check atom types

@<TRIPOS>MOLECULE
NIJWAH
    48    50     1
SMALL
NO_CHARGES
****
Generated from CSD

@<TRIPOS>ATOM
      1 O1        -0.4156    1.7339    2.4620 O.2       1 RES1    0.0000
      2 C1         2.9313    2.2223    4.9937 C.ar      1 RES1    0.0000
      3 C2         1.0475    4.1122    5.5051 C.ar      1 RES1    0.0000
      4 H1         0.4002    4.7543    5.6878 H         1 RES1    0.0000
      5 C3        -2.0756    1.9090   -0.0003 C.ar      1 RES1    0.0000
      6 H2        -1.2027    1.5879   -0.0030 H         1 RES1    0.0000
      7 C4         1.9537    2.4379    4.0388 C.ar      1 RES1    0.0000
      8 H3         1.9324    1.9443    3.2519 H         1 RES1    0.0000
      9 N1         3.9583    1.2178    4.6966 N.pl3     1 RES1    0.0000
     10 C5         1.0032    3.4201    4.2999 C.ar      1 RES1    0.0000
     11 N2         0.0385    3.7864    3.3503 N.am      1 RES1    0.0000
     12 H4        -0.1632    4.6207    3.3021 H         1 RES1    0.0000
     13 C6         3.0129    2.9035    6.1904 C.ar      1 RES1    0.0000
     14 H5         3.6906    2.7284    6.8023 H         1 RES1    0.0000
     15 N3        -1.4771    3.5942    1.6750 N.am      1 RES1    0.0000
     16 H6        -1.4468    4.4533    1.6614 H         1 RES1    0.0000
     17 O2         3.8050    0.5004    3.7225 O.2       1 RES1    0.0000
     18 C7        -0.6098    2.9436    2.4948 C.2       1 RES1    0.0000
     19 C8        -3.7437    3.4253    0.8328 C.ar      1 RES1    0.0000
     20 H7        -3.9838    4.1261    1.3953 H         1 RES1    0.0000
     21 C9        -2.4289    2.9560    0.8396 C.ar      1 RES1    0.0000
     22 O3         4.9212    1.1310    5.4504 O.2       1 RES1    0.0000
     23 C10        2.0393    3.8627    6.4399 C.ar      1 RES1    0.0000
     24 H8         2.0532    4.3397    7.2369 H         1 RES1    0.0000
     25 O1B       -6.3544    3.0361   -2.4620 O.2       1 RES1    0.0000
     26 C1B       -9.7013    2.5477   -4.9937 C.ar      1 RES1    0.0000
     27 C2B       -7.8175    0.6578   -5.5051 C.ar      1 RES1    0.0000
     28 H1B       -7.1702    0.0157   -5.6878 H         1 RES1    0.0000
     29 C3B       -4.6944    2.8610    0.0003 C.ar      1 RES1    0.0000
     30 H2B       -5.5673    3.1821    0.0030 H         1 RES1    0.0000
     31 C4B       -8.7237    2.3321   -4.0388 C.ar      1 RES1    0.0000
     32 H3B       -8.7024    2.8257   -3.2519 H         1 RES1    0.0000
     33 N1B      -10.7283    3.5522   -4.6966 N.pl3     1 RES1    0.0000
     34 C5B       -7.7732    1.3499   -4.2999 C.ar      1 RES1    0.0000
     35 N2B       -6.8085    0.9836   -3.3503 N.am      1 RES1    0.0000
     36 H4B       -6.6068    0.1493   -3.3021 H         1 RES1    0.0000
     37 C6B       -9.7829    1.8665   -6.1904 C.ar      1 RES1    0.0000
     38 H5B      -10.4606    2.0416   -6.8023 H         1 RES1    0.0000
     39 N3B       -5.2929    1.1758   -1.6750 N.am      1 RES1    0.0000
     40 H6B       -5.3232    0.3167   -1.6614 H         1 RES1    0.0000
     41 O2B      -10.5750    4.2696   -3.7225 O.2       1 RES1    0.0000
     42 C7B       -6.1602    1.8264   -2.4948 C.2       1 RES1    0.0000
     43 C8B       -3.0263    1.3447   -0.8328 C.ar      1 RES1    0.0000
     44 H7B       -2.7862    0.6440   -1.3953 H         1 RES1    0.0000
     45 C9B       -4.3411    1.8140   -0.8396 C.ar      1 RES1    0.0000
     46 O3B      -11.6912    3.6390   -5.4504 O.2       1 RES1    0.0000
     47 C10B      -8.8093    0.9073   -6.4399 C.ar      1 RES1    0.0000
     48 H8B       -8.8232    0.4303   -7.2369 H         1 RES1    0.0000
@<TRIPOS>BOND
     1    1   18 2
     2    2    7 ar
     3    3    4 1
     4    5    6 1
     5    7    8 1
     6    9    2 1
     7   10    3 ar
     8   11   10 1
     9   12   11 1
    10   13    2 ar
    11   14   13 1
    12   15   16 1
    13   17    9 2
    14   18   11 1
    15   19   20 1
    16   21    5 ar
    17   22    9 2
    18   23    3 ar
    19   24   23 1
    20   25   42 2
    21   26   31 ar
    22   27   28 1
    23   29   19 ar
    24   30   29 1
    25   31   32 1
    26   33   26 1
    27   34   27 ar
    28   35   34 1
    29   36   35 1
    30   37   26 ar
    31   38   37 1
    32   39   40 1
    33   41   33 2
    34   42   35 1
    35   43    5 ar
    36   44   43 1
    37   45   29 ar
    38   46   33 2
    39   47   27 ar
    40   48   47 1
    41    7   10 ar
    42   13   23 ar
    43   15   18 1
    44   15   21 1
    45   19   21 ar
    46   31   34 ar
    47   37   47 ar
    48   39   42 1
    49   39   45 1
    50   43   45 ar
@<TRIPOS>SUBSTRUCTURE
     1 RES1 1

@<TRIPOS>CRYSIN
   6.7700    4.7700   29.7119  90.0000  95.7490  90.0000 231 1

