# MOL2 file generated by ConQuest
# Please check atom types

@<TRIPOS>MOLECULE
NIKJUP
    21    21     1
SMALL
NO_CHARGES
****
Generated from CSD

@<TRIPOS>ATOM
      1 O1         4.0495    1.1568    5.5290 O.3       1 RES1    0.0000
      2 H1         4.8125    1.6598    5.4616 H         1 RES1    0.0000
      3 O2         6.8657    3.9416    4.9934 O.3       1 RES1    0.0000
      4 H2         7.4918    3.2820    5.0097 H         1 RES1    0.0000
      5 O3        -0.6070    1.9186    4.6857 O.3       1 RES1    0.0000
      6 N1         5.6831    3.1793    5.0074 N.2       1 RES1    0.0000
      7 C1         3.3274    3.2945    4.6488 C.ar      1 RES1    0.0000
      8 C2         3.0554    1.9874    5.0975 C.ar      1 RES1    0.0000
      9 C3         1.7555    1.4869    5.1216 C.ar      1 RES1    0.0000
     10 H3         1.5827    0.6083    5.4383 H         1 RES1    0.0000
     11 C4         0.7113    2.2968    4.6736 C.ar      1 RES1    0.0000
     12 C5         0.9571    3.5839    4.1935 C.ar      1 RES1    0.0000
     13 H4         0.2440    4.1193    3.8653 H         1 RES1    0.0000
     14 C6         2.2428    4.0681    4.2018 C.ar      1 RES1    0.0000
     15 H5         2.4035    4.9529    3.8959 H         1 RES1    0.0000
     16 C7         4.6621    3.8802    4.6715 C.2       1 RES1    0.0000
     17 H6         4.7774    4.7930    4.4346 H         1 RES1    0.0000
     18 C8        -0.9221    0.5963    5.1378 C.3       1 RES1    0.0000
     19 H7        -1.8929    0.4639    5.1083 H         1 RES1    0.0000
     20 H8        -0.6047    0.4812    6.0576 H         1 RES1    0.0000
     21 H9        -0.4852   -0.0605    4.5565 H         1 RES1    0.0000
@<TRIPOS>BOND
     1    1    2 1
     2    3    4 1
     3    5   11 1
     4    6    3 1
     5    7    8 ar
     6    8    1 1
     7    9    8 ar
     8   10    9 1
     9   11    9 ar
    10   12   11 ar
    11   13   12 1
    12   14    7 ar
    13   15   14 1
    14   16    6 2
    15   17   16 1
    16   18    5 1
    17   19   18 1
    18   20   18 1
    19   21   18 1
    20    7   16 1
    21   12   14 ar
@<TRIPOS>SUBSTRUCTURE
     1 RES1 1

@<TRIPOS>CRYSIN
   9.3591    6.2634   13.6260  90.0000 108.6360  90.0000  14 1

