# MOL2 file generated by ConQuest
# Please check atom types

@<TRIPOS>MOLECULE
NIKJID
    20    20     1
SMALL
NO_CHARGES
****
Generated from CSD

@<TRIPOS>ATOM
      1 O1         3.3609    4.0042    6.0119 O.3       1 RES1    0.0000
      2 H1         2.6447    3.7422    6.4479 H         1 RES1    0.0000
      3 O2        -0.1213    2.5597    7.1420 O.3       1 RES1    0.0000
      4 H2         0.0780    2.8211    7.9348 H         1 RES1    0.0000
      5 N1         1.0117    2.9531    6.4251 N.2       1 RES1    0.0000
      6 C1         2.0169    2.9990    4.2735 C.ar      1 RES1    0.0000
      7 C2         3.1938    3.6413    4.7072 C.ar      1 RES1    0.0000
      8 C3         4.2117    3.9419    3.8093 C.ar      1 RES1    0.0000
      9 H3         4.9985    4.3746    4.1195 H         1 RES1    0.0000
     10 C4         4.0921    3.6163    2.4603 C.ar      1 RES1    0.0000
     11 C5         2.9251    2.9764    2.0198 C.ar      1 RES1    0.0000
     12 H4         2.8291    2.7490    1.1024 H         1 RES1    0.0000
     13 C6         1.9134    2.6743    2.9122 C.ar      1 RES1    0.0000
     14 H5         1.1309    2.2374    2.5970 H         1 RES1    0.0000
     15 C7         0.9255    2.6621    5.1803 C.2       1 RES1    0.0000
     16 H6         0.1497    2.2264    4.8476 H         1 RES1    0.0000
     17 C8         5.1764    3.9869    1.4861 C.3       1 RES1    0.0000
     18 H7         5.2425    3.2973    0.7930 H         1 RES1    0.0000
     19 H8         6.0314    4.0567    1.9601 H         1 RES1    0.0000
     20 H9         4.9620    4.8481    1.0707 H         1 RES1    0.0000
@<TRIPOS>BOND
     1    1    2 1
     2    3    4 1
     3    5    3 1
     4    6    7 ar
     5    7    1 1
     6    8    7 ar
     7    9    8 1
     8   10    8 ar
     9   11   10 ar
    10   12   11 1
    11   13    6 ar
    12   14   13 1
    13   15    5 2
    14   16   15 1
    15   17   10 1
    16   18   17 1
    17   19   17 1
    18   20   17 1
    19    6   15 1
    20   11   13 ar
@<TRIPOS>SUBSTRUCTURE
     1 RES1 1

@<TRIPOS>CRYSIN
   6.5507    7.2523   15.5478  90.0000  96.7370  90.0000 231 1

