# MOL2 file generated by ConQuest
# Please check atom types

@<TRIPOS>MOLECULE
NIKJOJ
    18    18     1
SMALL
NO_CHARGES
****
Generated from CSD

@<TRIPOS>ATOM
      1 O1         2.1969    1.1570    6.0103 O.3       1 RES1    0.0000
      2 H1         1.8318    0.4867    6.4908 H         1 RES1    0.0000
      3 O2         3.6025    5.6408    6.7819 O.3       1 RES1    0.0000
      4 H2         3.9536    5.5530    5.9993 H         1 RES1    0.0000
      5 O3         0.5644   -1.1893    8.6997 O.3       1 RES1    0.0000
      6 H3         0.4232   -1.7380    8.0460 H         1 RES1    0.0000
      7 N1         1.1343   -0.1170    7.9990 N.2       1 RES1    0.0000
      8 C1         1.8958    2.1220    8.1962 C.ar      1 RES1    0.0000
      9 C2         2.3298    2.2147    6.8636 C.ar      1 RES1    0.0000
     10 C3         2.8984    3.3795    6.3705 C.ar      1 RES1    0.0000
     11 H4         3.1848    3.4292    5.4663 H         1 RES1    0.0000
     12 C4         3.0441    4.4715    7.2137 C.ar      1 RES1    0.0000
     13 C5         2.6237    4.4123    8.5419 C.ar      1 RES1    0.0000
     14 H5         2.7223    5.1646    9.1140 H         1 RES1    0.0000
     15 C6         2.0628    3.2442    9.0124 C.ar      1 RES1    0.0000
     16 H6         1.7815    3.2006    9.9186 H         1 RES1    0.0000
     17 C7         1.2845    0.9171    8.7374 C.2       1 RES1    0.0000
     18 H7         0.9958    0.8986    9.6428 H         1 RES1    0.0000
@<TRIPOS>BOND
     1    1    2 1
     2    3    4 1
     3    5    6 1
     4    7    5 1
     5    8    9 ar
     6    9    1 1
     7   10    9 ar
     8   11   10 1
     9   12    3 1
    10   13   12 ar
    11   14   13 1
    12   15    8 ar
    13   16   15 1
    14   17    7 2
    15   18   17 1
    16    8   17 1
    17   10   12 ar
    18   13   15 ar
@<TRIPOS>SUBSTRUCTURE
     1 RES1 1

@<TRIPOS>CRYSIN
   3.7241    8.6902   20.7570  90.0000  92.5010  90.0000  14 1

