# MOL2 file generated by ConQuest
# Please check atom types

@<TRIPOS>MOLECULE
NIKTUW
    39    41     1
SMALL
NO_CHARGES
****
Generated from CSD

@<TRIPOS>ATOM
      1 O1         4.6365    6.5763    8.9248 O.2       1 RES1    0.0000
      2 O2         2.3615   10.5014    8.6184 O.2       1 RES1    0.0000
      3 O3         3.9340    8.6879    7.2027 O.3       1 RES1    0.0000
      4 O4         1.3688    8.7573    1.3696 O.2       1 RES1    0.0000
      5 O5        -0.4596    8.7984    2.6786 O.3       1 RES1    0.0000
      6 O6         4.6855    9.2100    2.1029 O.2       1 RES1    0.0000
      7 O7         3.1987   10.8866    2.1540 O.3       1 RES1    0.0000
      8 N1         3.2997    8.4044    8.4050 N.am      1 RES1    0.0000
      9 C1         3.8507    7.4171    9.2534 C.2       1 RES1    0.0000
     10 C2         3.2210    7.7240   10.5704 C.ar      1 RES1    0.0000
     11 C3         3.2860    7.0172   11.7613 C.ar      1 RES1    0.0000
     12 H1         3.7790    6.2078   11.8292 H         1 RES1    0.0000
     13 C4         2.6005    7.5402   12.8525 C.ar      1 RES1    0.0000
     14 H2         2.6321    7.0837   13.6853 H         1 RES1    0.0000
     15 C5         1.8710    8.7163   12.7470 C.ar      1 RES1    0.0000
     16 H3         1.4106    9.0487   13.5085 H         1 RES1    0.0000
     17 C6         1.8007    9.4182   11.5445 C.ar      1 RES1    0.0000
     18 H4         1.2966   10.2198   11.4677 H         1 RES1    0.0000
     19 C7         2.4941    8.9010   10.4733 C.ar      1 RES1    0.0000
     20 C8         2.6606    9.4378    9.0998 C.2       1 RES1    0.0000
     21 C9         3.0874    8.6860    6.1025 C.ar      1 RES1    0.0000
     22 C10        1.7638    8.2773    6.1175 C.ar      1 RES1    0.0000
     23 H5         1.3552    7.9694    6.9177 H         1 RES1    0.0000
     24 C11        1.0557    8.3321    4.9294 C.ar      1 RES1    0.0000
     25 H6         0.1495    8.0486    4.9226 H         1 RES1    0.0000
     26 C12        1.6250    8.7886    3.7449 C.ar      1 RES1    0.0000
     27 C13        0.8640    8.7788    2.4665 C.2       1 RES1    0.0000
     28 C14       -1.2865    8.6830    1.5006 C.3       1 RES1    0.0000
     29 H7        -2.2310    8.7085    1.7612 H         1 RES1    0.0000
     30 H8        -1.0951    7.8345    1.0487 H         1 RES1    0.0000
     31 H9        -1.0956    9.4270    0.8926 H         1 RES1    0.0000
     32 C15        2.9769    9.1943    3.7619 C.ar      1 RES1    0.0000
     33 C16        3.7123    9.7301    2.5673 C.2       1 RES1    0.0000
     34 C17        3.8694   11.4966    1.0253 C.3       1 RES1    0.0000
     35 H10        3.4234   12.3383    0.7968 H         1 RES1    0.0000
     36 H11        3.8337   10.8895    0.2569 H         1 RES1    0.0000
     37 H12        4.8049   11.6745    1.2582 H         1 RES1    0.0000
     38 C18        3.6977    9.1464    4.9393 C.ar      1 RES1    0.0000
     39 H13        4.6055    9.4250    4.9549 H         1 RES1    0.0000
@<TRIPOS>BOND
     1    1    9 2
     2    2   20 2
     3    3    8 1
     4    4   27 2
     5    5   27 1
     6    6   33 2
     7    7   33 1
     8    8    9 1
     9    9   10 1
    10   10   11 ar
    11   11   12 1
    12   13   11 ar
    13   14   13 1
    14   15   13 ar
    15   16   15 1
    16   17   15 ar
    17   18   17 1
    18   19   10 ar
    19   20    8 1
    20   21    3 1
    21   22   21 ar
    22   23   22 1
    23   24   22 ar
    24   25   24 1
    25   26   24 ar
    26   27   26 1
    27   28    5 1
    28   29   28 1
    29   30   28 1
    30   31   28 1
    31   32   26 ar
    32   33   32 1
    33   34    7 1
    34   35   34 1
    35   36   34 1
    36   37   34 1
    37   38   21 ar
    38   39   38 1
    39   17   19 ar
    40   19   20 1
    41   32   38 ar
@<TRIPOS>SUBSTRUCTURE
     1 RES1 1

@<TRIPOS>CRYSIN
   9.4710    9.7760   17.4770  90.0000  91.9300  90.0000  14 2

