# MOL2 file generated by ConQuest
# Please check atom types

@<TRIPOS>MOLECULE
NIKTEH
    40    43     1
SMALL
NO_CHARGES
****
Generated from CSD

@<TRIPOS>ATOM
      1 O1         9.6898    9.1118   -0.8935 O.2       1 RES1    0.0000
      2 O2        11.1293    8.2451    0.3822 O.2       1 RES1    0.0000
      3 O3         2.9264    6.5741    6.5204 O.2       1 RES1    0.0000
      4 O4         1.7994    5.3906    5.1380 O.2       1 RES1    0.0000
      5 N1         9.9946    8.5581    0.1298 N.pl3     1 RES1    0.0000
      6 N2         9.9702    6.6853    4.7878 N.ar      1 RES1    0.0000
      7 N3         8.0825    5.4112    6.4005 N.ar      1 RES1    0.0000
      8 N4         2.8521    5.8415    5.5453 N.pl3     1 RES1    0.0000
      9 C1         9.2671    7.5947    2.2380 C.ar      1 RES1    0.0000
     10 H1        10.1201    7.2360    2.3309 H         1 RES1    0.0000
     11 C2         8.9483    8.3037    1.1183 C.ar      1 RES1    0.0000
     12 C3         7.6970    8.8277    0.9179 C.ar      1 RES1    0.0000
     13 H2         7.4831    9.2633    0.1239 H         1 RES1    0.0000
     14 C4         6.7685    8.6921    1.9212 C.ar      1 RES1    0.0000
     15 H3         5.9232    9.0691    1.8282 H         1 RES1    0.0000
     16 C5         7.0900    8.0014    3.0622 C.ar      1 RES1    0.0000
     17 H4         6.4547    7.9305    3.7391 H         1 RES1    0.0000
     18 C6         8.3246    7.4058    3.2409 C.ar      1 RES1    0.0000
     19 C7         8.7100    6.6465    4.4539 C.ar      1 RES1    0.0000
     20 C8        10.3365    6.0616    5.9306 C.ar      1 RES1    0.0000
     21 C9        11.6800    6.0303    6.3010 C.ar      1 RES1    0.0000
     22 H5        12.3216    6.4233    5.7533 H         1 RES1    0.0000
     23 C10       12.0552    5.4272    7.4589 C.ar      1 RES1    0.0000
     24 H6        12.9543    5.4020    7.6951 H         1 RES1    0.0000
     25 C11       11.1088    4.8476    8.2914 C.ar      1 RES1    0.0000
     26 H7        11.3777    4.4363    9.0792 H         1 RES1    0.0000
     27 C12        9.7922    4.8765    7.9626 C.ar      1 RES1    0.0000
     28 H8         9.1647    4.4927    8.5318 H         1 RES1    0.0000
     29 C13        9.3747    5.4805    6.7707 C.ar      1 RES1    0.0000
     30 C14        7.7687    5.9230    5.2413 C.ar      1 RES1    0.0000
     31 C15        6.4227    5.5833    4.7131 C.ar      1 RES1    0.0000
     32 C16        6.3241    4.9024    3.5084 C.ar      1 RES1    0.0000
     33 H9         7.1002    4.6930    3.0402 H         1 RES1    0.0000
     34 C17        5.1010    4.5292    2.9844 C.ar      1 RES1    0.0000
     35 H10        5.0536    4.0685    2.1794 H         1 RES1    0.0000
     36 C18        3.9766    4.8423    3.6606 C.ar      1 RES1    0.0000
     37 H11        3.1454    4.6054    3.3191 H         1 RES1    0.0000
     38 C19        4.0598    5.5064    4.8453 C.ar      1 RES1    0.0000
     39 C20        5.2854    5.8727    5.4059 C.ar      1 RES1    0.0000
     40 H12        5.3252    6.3015    6.2284 H         1 RES1    0.0000
@<TRIPOS>BOND
     1    1    5 2
     2    2    5 2
     3    3    8 2
     4    4    8 2
     5    5   11 1
     6    6   19 ar
     7    7   29 ar
     8    8   38 1
     9    9   10 1
    10   11    9 ar
    11   12   11 ar
    12   13   12 1
    13   14   12 ar
    14   15   14 1
    15   16   14 ar
    16   17   16 1
    17   18    9 ar
    18   19   18 1
    19   20    6 ar
    20   21   20 ar
    21   22   21 1
    22   23   21 ar
    23   24   23 1
    24   25   23 ar
    25   26   25 1
    26   27   25 ar
    27   28   27 1
    28   29   20 ar
    29   30    7 ar
    30   31   30 1
    31   32   31 ar
    32   33   32 1
    33   34   32 ar
    34   35   34 1
    35   36   34 ar
    36   37   36 1
    37   38   36 ar
    38   39   31 ar
    39   40   39 1
    40   16   18 ar
    41   19   30 ar
    42   27   29 ar
    43   38   39 ar
@<TRIPOS>SUBSTRUCTURE
     1 RES1 1

@<TRIPOS>CRYSIN
  12.8070    7.6160   34.4300  90.0000  90.0000  90.0000  61 1

