# MOL2 file generated by ConQuest
# Please check atom types

@<TRIPOS>MOLECULE
NIKVAF
    32    33     1
SMALL
NO_CHARGES
****
Generated from CSD

@<TRIPOS>ATOM
      1 C1         3.8540    5.1330    0.1776 C.ar      1 RES1    0.0000
      2 C2         3.6135    4.0110    0.9269 C.ar      1 RES1    0.0000
      3 C3         2.3122    3.7562    1.3236 C.ar      1 RES1    0.0000
      4 C4         1.2862    4.6210    0.9946 C.ar      1 RES1    0.0000
      5 C5         1.5703    5.7388    0.2427 C.ar      1 RES1    0.0000
      6 C6         2.8626    5.9996   -0.1810 C.ar      1 RES1    0.0000
      7 C7        -0.1486    4.2912    1.4005 C.3       1 RES1    0.0000
      8 C8        -0.6277    6.1735    2.7588 C.3       1 RES1    0.0000
      9 H1        -0.7973    5.6145    3.5208 H         1 RES1    0.0000
     10 H2        -1.1724    6.9619    2.8121 H         1 RES1    0.0000
     11 H3         0.2989    6.4255    2.7469 H         1 RES1    0.0000
     12 C9        -1.8673    2.7257    0.5827 C.ar      1 RES1    0.0000
     13 C10       -2.4469    2.0874   -0.5159 C.ar      1 RES1    0.0000
     14 C11       -3.5793    1.3559   -0.3290 C.ar      1 RES1    0.0000
     15 C12       -4.1137    1.2398    0.9413 C.ar      1 RES1    0.0000
     16 C13       -3.4683    1.8640    1.9672 C.ar      1 RES1    0.0000
     17 N1         5.2292    5.3922   -0.2935 N.pl3     1 RES1    0.0000
     18 N2        -0.7178    3.4662    0.3958 N.pl3     1 RES1    0.0000
     19 N3        -2.3512    2.6080    1.8226 N.ar      1 RES1    0.0000
     20 O1         6.1460    4.8354    0.2791 O.2       1 RES1    0.0000
     21 O2         5.3745    6.1408   -1.2398 O.2       1 RES1    0.0000
     22 O3        -0.9413    5.4585    1.5663 O.3       1 RES1    0.0000
     23 H4        -0.1251    3.7803    2.2497 H         1 RES1    0.0000
     24 H5        -2.0697    2.2135   -1.3785 H         1 RES1    0.0000
     25 H6        -0.5865    3.7208   -0.4229 H         1 RES1    0.0000
     26 H7         2.1274    2.9183    1.8183 H         1 RES1    0.0000
     27 H8         3.0574    6.7849   -0.6428 H         1 RES1    0.0000
     28 H9        -3.7731    1.7790    2.8755 H         1 RES1    0.0000
     29 H10        0.8785    6.3972    0.0169 H         1 RES1    0.0000
     30 H11        4.3159    3.4109    1.1333 H         1 RES1    0.0000
     31 H12       -4.8483    0.6864    1.1502 H         1 RES1    0.0000
     32 H13       -4.0259    0.9624   -1.0825 H         1 RES1    0.0000
@<TRIPOS>BOND
     1    1    2 ar
     2    2    3 ar
     3    3    4 ar
     4    4    5 ar
     5    5    6 ar
     6    6    1 ar
     7    7    4 1
     8    8    9 1
     9   10    8 1
    10   11    8 1
    11   12   13 ar
    12   13   14 ar
    13   14   15 ar
    14   15   16 ar
    15   16   19 ar
    16   17    1 1
    17   18    7 1
    18   19   12 ar
    19   20   17 2
    20   21   17 2
    21   22    7 1
    22   23    7 1
    23   24   13 1
    24   25   18 1
    25   26    3 1
    26   27    6 1
    27   28   16 1
    28   29    5 1
    29   30    2 1
    30   31   15 1
    31   32   14 1
    32    8   22 1
    33   12   18 1
@<TRIPOS>SUBSTRUCTURE
     1 RES1 1

@<TRIPOS>CRYSIN
  10.6610   14.1530    9.0410  90.0000 110.7000  90.0000  14 1

