# MOL2 file generated by ConQuest
# Please check atom types

@<TRIPOS>MOLECULE
NILNOL
    46    48     1
SMALL
NO_CHARGES
****
Generated from CSD

@<TRIPOS>ATOM
      1 O1         3.0172   18.1091    5.3781 O.3       1 RES1    0.0000
      2 O2         1.9161   16.8529    3.8749 O.3       1 RES1    0.0000
      3 O3         1.9432   13.9844    6.0655 O.3       1 RES1    0.0000
      4 O4        -0.0234   14.5962    7.0522 O.3       1 RES1    0.0000
      5 O5         1.9901   16.8918    7.0582 O.3       1 RES1    0.0000
      6 O6        -2.2502   19.3101    9.6102 O.2       1 RES1    0.0000
      7 O7        -1.5351   17.3603   10.2105 O.2       1 RES1    0.0000
      8 N1        -1.6756   18.2585    9.3711 N.pl3     1 RES1    0.0000
      9 C1         2.8877   16.8263    5.9771 C.3       1 RES1    0.0000
     10 C2         2.4376   15.9424    4.8514 C.3       1 RES1    0.0000
     11 C3         1.3440   14.9747    5.2005 C.3       1 RES1    0.0000
     12 C4         0.2232   15.5619    6.0446 C.3       1 RES1    0.0000
     13 C5         0.6091   16.9020    6.6632 C.3       1 RES1    0.0000
     14 C6        -0.1492   17.1639    7.9240 C.2       1 RES1    0.0000
     15 C7        -1.0986   18.0866    8.0192 C.2       1 RES1    0.0000
     16 C8        -1.5906   19.0401    6.9846 C.3       1 RES1    0.0000
     17 C9        -0.7447   20.2697    6.8894 C.3       1 RES1    0.0000
     18 C10        2.7003   18.0314    3.9809 C.3       1 RES1    0.0000
     19 C11        3.9875   17.8759    3.1719 C.3       1 RES1    0.0000
     20 C12        1.8865   19.2181    3.5825 C.3       1 RES1    0.0000
     21 C13        0.9741   13.5691    7.0062 C.3       1 RES1    0.0000
     22 C14        0.3156   12.2862    6.5632 C.3       1 RES1    0.0000
     23 C15        1.6251   13.4688    8.3514 C.3       1 RES1    0.0000
     24 H1         3.7976   16.4580    6.4154 H         1 RES1    0.0000
     25 H2         3.2601   15.3164    4.5346 H         1 RES1    0.0000
     26 H3         0.9235   14.5962    4.2733 H         1 RES1    0.0000
     27 H4        -0.6362   15.8013    5.4341 H         1 RES1    0.0000
     28 H5         0.3798   17.6447    5.9197 H         1 RES1    0.0000
     29 H6         0.0764   16.5767    8.7897 H         1 RES1    0.0000
     30 H7        -1.6781   18.5265    6.0244 H         1 RES1    0.0000
     31 H8        -2.6288   19.2692    7.1562 H         1 RES1    0.0000
     32 H9        -0.7238   20.7649    7.8558 H         1 RES1    0.0000
     33 H10        0.2898   19.9731    6.6497 H         1 RES1    0.0000
     34 H11       -1.0789   20.9531    6.1452 H         1 RES1    0.0000
     35 H12        4.6336   18.7373    3.3630 H         1 RES1    0.0000
     36 H13        4.5263   16.9818    3.4987 H         1 RES1    0.0000
     37 H14        3.7680   17.8104    2.1360 H         1 RES1    0.0000
     38 H15        0.9605   19.2324    4.1470 H         1 RES1    0.0000
     39 H16        2.4327   20.1224    3.7574 H         1 RES1    0.0000
     40 H17        1.6362   19.1506    2.5202 H         1 RES1    0.0000
     41 H18       -0.2096   12.4622    5.6273 H         1 RES1    0.0000
     42 H19        1.0222   11.5088    6.4538 H         1 RES1    0.0000
     43 H20       -0.4562   11.9548    7.2905 H         1 RES1    0.0000
     44 H21        2.4253   12.7527    8.3190 H         1 RES1    0.0000
     45 H22        1.9925   14.4325    8.6452 H         1 RES1    0.0000
     46 H23        0.8754   13.1333    9.0733 H         1 RES1    0.0000
@<TRIPOS>BOND
     1    1    9 1
     2    2   10 1
     3    3   11 1
     4    4   12 1
     5    5    9 1
     6    6    8 2
     7    7    8 2
     8    8   15 1
     9    9   10 1
    10   10   11 1
    11   11   12 1
    12   12   13 1
    13   13    5 1
    14   14   13 1
    15   15   14 2
    16   16   15 1
    17   17   16 1
    18   18    1 1
    19   19   18 1
    20   20   18 1
    21   21    3 1
    22   22   21 1
    23   23   21 1
    24   24    9 1
    25   25   10 1
    26   26   11 1
    27   27   12 1
    28   28   13 1
    29   29   14 1
    30   30   16 1
    31   31   16 1
    32   32   17 1
    33   33   17 1
    34   34   17 1
    35   35   19 1
    36   36   19 1
    37   37   19 1
    38   38   20 1
    39   39   20 1
    40   40   20 1
    41   41   22 1
    42   42   22 1
    43   43   22 1
    44   44   23 1
    45   45   23 1
    46   46   23 1
    47    2   18 1
    48    4   21 1
@<TRIPOS>SUBSTRUCTURE
     1 RES1 1

@<TRIPOS>CRYSIN
  12.3300   20.4600    6.7530  90.0000  90.0000  90.0000  19 1

