# MOL2 file generated by ConQuest
# Please check atom types

@<TRIPOS>MOLECULE
NILYEO
    60    63     1
SMALL
NO_CHARGES
****
Generated from CSD

@<TRIPOS>ATOM
      1 C1         3.2457    2.5862    8.4116 C.ar      1 RES1    0.0000
      2 C2         4.5993    2.3644    8.1725 C.ar      1 RES1    0.0000
      3 H1         4.8865    1.6266    7.6471 H         1 RES1    0.0000
      4 C3         5.5200    3.2490    8.7205 C.ar      1 RES1    0.0000
      5 H2         6.4494    3.1215    8.5693 H         1 RES1    0.0000
      6 C4         5.0775    4.3302    9.4964 C.ar      1 RES1    0.0000
      7 C5         3.7059    4.5283    9.7141 C.ar      1 RES1    0.0000
      8 H3         3.4124    5.2656   10.2372 H         1 RES1    0.0000
      9 C6         2.7713    3.6515    9.1693 C.ar      1 RES1    0.0000
     10 H4         1.8406    3.7767    9.3104 H         1 RES1    0.0000
     11 C7         6.1072    5.2107   10.1308 C.2       1 RES1    0.0000
     12 C8         6.3081    7.0757   11.6867 C.3       1 RES1    0.0000
     13 C9         5.4171    7.4713   12.9200 C.3       1 RES1    0.0000
     14 C10        4.9720    8.9581   12.9391 C.3       1 RES1    0.0000
     15 H5         5.6897    9.4817   13.3980 H         1 RES1    0.0000
     16 C11        3.6365    9.3059   13.6197 C.3       1 RES1    0.0000
     17 H6         3.7652    9.4678   14.5880 H         1 RES1    0.0000
     18 H7         2.9786    8.5759   13.4999 H         1 RES1    0.0000
     19 C12        3.1678   10.5937   12.9025 C.3       1 RES1    0.0000
     20 C13        3.6025   10.3865   11.4338 C.3       1 RES1    0.0000
     21 H8         2.8892    9.9384   10.9144 H         1 RES1    0.0000
     22 H9         3.8175   11.2515   11.0042 H         1 RES1    0.0000
     23 C14        4.8254    9.5158   11.5272 C.2       1 RES1    0.0000
     24 C15        5.7376    9.2227   10.5948 C.2       1 RES1    0.0000
     25 H10        5.6676    9.5727    9.7152 H         1 RES1    0.0000
     26 C16        6.8855    8.3153   10.9845 C.3       1 RES1    0.0000
     27 H11        7.4258    8.8086   11.6661 H         1 RES1    0.0000
     28 C17        7.8188    8.0095    9.8179 C.3       1 RES1    0.0000
     29 H12        8.1416    8.8490    9.4291 H         1 RES1    0.0000
     30 H13        7.3335    7.4988    9.1369 H         1 RES1    0.0000
     31 H14        8.5815    7.4834   10.1383 H         1 RES1    0.0000
     32 C18        7.2598    6.3264   12.6337 C.3       1 RES1    0.0000
     33 H15        8.2170    6.5285   12.4803 H         1 RES1    0.0000
     34 H16        7.1031    5.3493   12.6675 H         1 RES1    0.0000
     35 C19        6.6386    7.1017   13.8271 C.3       1 RES1    0.0000
     36 H17        7.1723    7.8834   14.1162 H         1 RES1    0.0000
     37 H18        6.4041    6.5271   14.5987 H         1 RES1    0.0000
     38 C20        4.2608    6.4814   13.1173 C.3       1 RES1    0.0000
     39 H19        3.7274    6.7521   13.8941 H         1 RES1    0.0000
     40 H20        4.6221    5.5830   13.2671 H         1 RES1    0.0000
     41 H21        3.6942    6.4767   12.3175 H         1 RES1    0.0000
     42 C21        1.6689   10.7953   13.0020 C.2       1 RES1    0.0000
     43 C22       -0.1225   12.1045   12.2038 C.3       1 RES1    0.0000
     44 H22       -0.2899   12.9018   11.6601 H         1 RES1    0.0000
     45 H23       -0.4815   12.2426   13.1058 H         1 RES1    0.0000
     46 H24       -0.5611   11.3311   11.7925 H         1 RES1    0.0000
     47 C23        3.8238   11.8307   13.5264 C.2       1 RES1    0.0000
     48 C24        3.9155   13.0966   15.5262 C.3       1 RES1    0.0000
     49 H25        3.5279   13.1107   16.4263 H         1 RES1    0.0000
     50 H26        3.6941   13.9307   15.0613 H         1 RES1    0.0000
     51 H27        4.8895   13.0076   15.5924 H         1 RES1    0.0000
     52 N1         2.2702    1.6408    7.8371 N.pl3     1 RES1    0.0000
     53 O1         2.6908    0.7152    7.1580 O.2       1 RES1    0.0000
     54 O2         1.0738    1.8256    8.0759 O.2       1 RES1    0.0000
     55 O3         7.3010    4.9768   10.0984 O.2       1 RES1    0.0000
     56 O4         5.5419    6.2648   10.7410 O.3       1 RES1    0.0000
     57 O5         0.8986   10.0974   13.6189 O.2       1 RES1    0.0000
     58 O6         1.3062   11.8643   12.2838 O.3       1 RES1    0.0000
     59 O7         4.6048   12.5669   12.9903 O.2       1 RES1    0.0000
     60 O8         3.3826   11.9857   14.7936 O.3       1 RES1    0.0000
@<TRIPOS>BOND
     1    1    2 ar
     2    2    3 1
     3    4    2 ar
     4    5    4 1
     5    6    4 ar
     6    7    6 ar
     7    8    7 1
     8    9    1 ar
     9   10    9 1
    10   11    6 1
    11   12   13 1
    12   13   14 1
    13   14   15 1
    14   16   14 1
    15   17   16 1
    16   18   16 1
    17   19   16 1
    18   20   19 1
    19   21   20 1
    20   22   20 1
    21   23   14 1
    22   24   23 2
    23   25   24 1
    24   26   12 1
    25   27   26 1
    26   28   26 1
    27   29   28 1
    28   30   28 1
    29   31   28 1
    30   32   12 1
    31   33   32 1
    32   34   32 1
    33   35   13 1
    34   36   35 1
    35   37   35 1
    36   38   13 1
    37   39   38 1
    38   40   38 1
    39   41   38 1
    40   42   19 1
    41   43   44 1
    42   45   43 1
    43   46   43 1
    44   47   19 1
    45   48   49 1
    46   50   48 1
    47   51   48 1
    48   52    1 1
    49   53   52 2
    50   54   52 2
    51   55   11 2
    52   56   11 1
    53   57   42 2
    54   58   42 1
    55   59   47 2
    56   60   47 1
    57    7    9 ar
    58   12   56 1
    59   20   23 1
    60   24   26 1
    61   32   35 1
    62   43   58 1
    63   48   60 1
@<TRIPOS>SUBSTRUCTURE
     1 RES1 1

@<TRIPOS>CRYSIN
   7.5760    9.6524   15.2400  93.0340  90.1880  96.0490   2 1

