# MOL2 file generated by ConQuest
# Please check atom types

@<TRIPOS>MOLECULE
NIMDOC
    36    38     1
SMALL
NO_CHARGES
****
Generated from CSD

@<TRIPOS>ATOM
      1 C1         5.4999    2.2588    8.0115 C.ar      1 RES1    0.0000
      2 C2         4.5224    1.4015    8.4446 C.ar      1 RES1    0.0000
      3 C3         4.3485    0.1507    7.7862 C.ar      1 RES1    0.0000
      4 C4         5.1147   -0.1542    6.6760 C.ar      1 RES1    0.0000
      5 C5         6.1221    0.7277    6.2068 C.ar      1 RES1    0.0000
      6 C6         6.9250    0.4439    5.0698 C.ar      1 RES1    0.0000
      7 C7         7.8832    1.3106    4.6563 C.ar      1 RES1    0.0000
      8 C8         8.0953    2.5063    5.3389 C.ar      1 RES1    0.0000
      9 C9         7.3321    2.8382    6.4324 C.ar      1 RES1    0.0000
     10 C10        6.3183    1.9492    6.9059 C.ar      1 RES1    0.0000
     11 C11        3.6692    1.8102    9.5949 C.2       1 RES1    0.0000
     12 C12        2.5916    0.8937   10.0334 C.2       1 RES1    0.0000
     13 C13        1.9604    1.0186   11.1917 C.2       1 RES1    0.0000
     14 C14        0.9337    0.0903   11.6943 C.ar      1 RES1    0.0000
     15 C15        0.1527    0.4627   12.7975 C.ar      1 RES1    0.0000
     16 C16       -0.8053   -0.4204   13.2509 C.ar      1 RES1    0.0000
     17 C17       -1.0258   -1.6460   12.6741 C.ar      1 RES1    0.0000
     18 C18       -0.2394   -2.0119   11.5890 C.ar      1 RES1    0.0000
     19 C19        0.7160   -1.1576   11.1049 C.ar      1 RES1    0.0000
     20 O1         3.8471    2.8910   10.1624 O.2       1 RES1    0.0000
     21 N1        -1.6783   -0.0111   14.3761 N.pl3     1 RES1    0.0000
     22 O2        -2.5259   -0.7963   14.7545 O.2       1 RES1    0.0000
     23 O3        -1.5159    1.0960   14.8581 O.2       1 RES1    0.0000
     24 H1         5.7082    3.2404    8.4666 H         1 RES1    0.0000
     25 H2         3.5395   -0.3882    8.2537 H         1 RES1    0.0000
     26 H3         5.1157   -1.0192    6.0421 H         1 RES1    0.0000
     27 H4         6.6992   -0.4709    4.5273 H         1 RES1    0.0000
     28 H5         8.5678    1.3429    3.9272 H         1 RES1    0.0000
     29 H6         8.9443    2.9414    4.9822 H         1 RES1    0.0000
     30 H7         7.4979    3.7571    7.0680 H         1 RES1    0.0000
     31 H8         2.3485    0.3524    9.3571 H         1 RES1    0.0000
     32 H9         2.4987    1.6308   12.0043 H         1 RES1    0.0000
     33 H10        0.0737    1.2467   13.4247 H         1 RES1    0.0000
     34 H11       -1.6692   -2.2359   13.1561 H         1 RES1    0.0000
     35 H12       -0.3277   -2.8622   11.1429 H         1 RES1    0.0000
     36 H13        1.2660   -1.1681   10.3032 H         1 RES1    0.0000
@<TRIPOS>BOND
     1    1    2 ar
     2    2    3 ar
     3    3    4 ar
     4    4    5 ar
     5    5    6 ar
     6    6    7 ar
     7    7    8 ar
     8    8    9 ar
     9    9   10 ar
    10   10    1 ar
    11   11    2 1
    12   12   11 1
    13   13   12 2
    14   14   13 1
    15   15   14 ar
    16   16   15 ar
    17   17   16 ar
    18   18   17 ar
    19   19   14 ar
    20   20   11 2
    21   21   16 1
    22   22   21 2
    23   23   21 2
    24   24    1 1
    25   25    3 1
    26   26    4 1
    27   27    6 1
    28   28    7 1
    29   29    8 1
    30   30    9 1
    31   31   12 1
    32   32   13 1
    33   33   15 1
    34   34   17 1
    35   35   18 1
    36   36   19 1
    37    5   10 ar
    38   18   19 ar
@<TRIPOS>SUBSTRUCTURE
     1 RES1 1

@<TRIPOS>CRYSIN
  10.3170    5.8640   24.5820  90.0000 100.1500  90.0000  14 1

