# MOL2 file generated by ConQuest
# Please check atom types

@<TRIPOS>MOLECULE
NIMDES
    42    45     1
SMALL
NO_CHARGES
****
Generated from CSD

@<TRIPOS>ATOM
      1 O1         3.6245    1.0047    5.9407 O.3       1 RES1    0.0000
      2 O2         3.0994    0.7594    3.7810 O.2       1 RES1    0.0000
      3 O3         5.8349    1.1420   11.4594 O.2       1 RES1    0.0000
      4 O4         7.8735    1.6772   11.2863 O.2       1 RES1    0.0000
      5 O5         1.7299   -2.1117    8.9204 O.2       1 RES1    0.0000
      6 O6         0.1139   -1.5984   10.2332 O.2       1 RES1    0.0000
      7 O7         8.8899    2.4894    9.0589 O.3       1 RES1    0.0000
      8 O8        -0.6906    0.8349   10.4504 O.3       1 RES1    0.0000
      9 N1         6.7521    1.5570   10.8078 N.pl3     1 RES1    0.0000
     10 N2         1.0200   -1.2890    9.4477 N.pl3     1 RES1    0.0000
     11 C1         3.6300    2.0800    6.9607 C.3       1 RES1    0.0000
     12 C2         5.0147    2.1174    7.5919 C.ar      1 RES1    0.0000
     13 C3         2.4942    1.7511    7.9287 C.ar      1 RES1    0.0000
     14 C4         3.3807    3.3186    6.1185 C.ar      1 RES1    0.0000
     15 C5         5.2554    1.8266    8.9110 C.ar      1 RES1    0.0000
     16 C6         2.2726    0.4451    8.2939 C.ar      1 RES1    0.0000
     17 C7         3.1265    2.9467    4.8230 C.ar      1 RES1    0.0000
     18 C8         6.5506    1.9290    9.4226 C.ar      1 RES1    0.0000
     19 C9         1.2167    0.1226    9.1329 C.ar      1 RES1    0.0000
     20 C10        3.2475    1.4977    4.7129 C.2       1 RES1    0.0000
     21 C11        7.6217    2.3408    8.6371 C.ar      1 RES1    0.0000
     22 C12        0.3650    1.0883    9.6540 C.ar      1 RES1    0.0000
     23 C13        3.4634    4.6572    6.4680 C.ar      1 RES1    0.0000
     24 C14        7.3617    2.6218    7.3054 C.ar      1 RES1    0.0000
     25 C15        0.5997    2.4139    9.2966 C.ar      1 RES1    0.0000
     26 C16        3.2553    5.5839    5.4731 C.ar      1 RES1    0.0000
     27 C17        6.0961    2.5073    6.7985 C.ar      1 RES1    0.0000
     28 C18        1.6415    2.7274    8.4435 C.ar      1 RES1    0.0000
     29 C19        2.9541    5.2046    4.1777 C.ar      1 RES1    0.0000
     30 C20        2.8878    3.8750    3.8298 C.ar      1 RES1    0.0000
     31 H1         4.6149    1.5188    9.4918 H         1 RES1    0.0000
     32 H2         2.8325   -0.2437    7.9807 H         1 RES1    0.0000
     33 H3         8.8705    2.1686    9.9641 H         1 RES1    0.0000
     34 H4        -0.6908   -0.2030   10.6567 H         1 RES1    0.0000
     35 H5         3.6781    4.8813    7.3983 H         1 RES1    0.0000
     36 H6         8.1520    2.8833    6.7844 H         1 RES1    0.0000
     37 H7        -0.0276    3.2001    9.7909 H         1 RES1    0.0000
     38 H8         3.2608    6.4976    5.7140 H         1 RES1    0.0000
     39 H9         5.9772    2.7452    5.9029 H         1 RES1    0.0000
     40 H10        1.7548    3.6224    8.1853 H         1 RES1    0.0000
     41 H11        2.8187    5.8235    3.5102 H         1 RES1    0.0000
     42 H12        2.7081    3.5980    2.9278 H         1 RES1    0.0000
@<TRIPOS>BOND
     1    1   11 1
     2    2   20 2
     3    3    9 2
     4    4    9 2
     5    5   10 2
     6    6   10 2
     7    7   21 1
     8    8   22 1
     9    9   18 1
    10   10   19 1
    11   11   12 1
    12   12   15 ar
    13   13   11 1
    14   14   11 1
    15   15   18 ar
    16   16   13 ar
    17   17   14 ar
    18   18   21 ar
    19   19   16 ar
    20   20    1 1
    21   21   24 ar
    22   22   19 ar
    23   23   14 ar
    24   24   27 ar
    25   25   22 ar
    26   26   23 ar
    27   27   12 ar
    28   28   13 ar
    29   29   26 ar
    30   30   17 ar
    31   31   15 1
    32   32   16 1
    33   33    7 1
    34   34    8 1
    35   35   23 1
    36   36   24 1
    37   37   25 1
    38   38   26 1
    39   39   27 1
    40   40   28 1
    41   41   29 1
    42   42   30 1
    43   17   20 1
    44   25   28 ar
    45   29   30 ar
@<TRIPOS>SUBSTRUCTURE
     1 RES1 1

@<TRIPOS>CRYSIN
  27.6340    8.1220   15.7410  90.0000  90.0000  90.0000  60 1

