# MOL2 file generated by ConQuest
# Please check atom types

@<TRIPOS>MOLECULE
NIMFOE02
    14    14     1
SMALL
NO_CHARGES
****
Generated from CSD

@<TRIPOS>ATOM
      1 O1         1.7031    3.0291    3.7631 O.2       1 RES1    0.0000
      2 O2         3.5502    1.5395   -0.0935 O.2       1 RES1    0.0000
      3 O3         5.9195    0.1496    0.2132 O.2       1 RES1    0.0000
      4 O4         6.5955   -0.2316    2.2415 O.2       1 RES1    0.0000
      5 N1         2.7372    2.3450    1.8507 N.am      1 RES1    0.0000
      6 H1         2.0443    2.8440    1.3113 H         1 RES1    0.0000
      7 N2         3.6686    1.8640    3.9128 N.am      1 RES1    0.0000
      8 H2         3.6795    1.9548    4.9187 H         1 RES1    0.0000
      9 N3         5.8054    0.2665    1.4330 N.pl3     1 RES1    0.0000
     10 C1         2.6421    2.4569    3.2091 C.2       1 RES1    0.0000
     11 C2         3.6790    1.6235    1.1258 C.2       1 RES1    0.0000
     12 C3         4.7093    1.0351    1.9666 C.2       1 RES1    0.0000
     13 C4         4.6533    1.1720    3.3207 C.2       1 RES1    0.0000
     14 H3         5.4152    0.7154    3.9283 H         1 RES1    0.0000
@<TRIPOS>BOND
     1    1   10 2
     2    2   11 2
     3    3    9 2
     4    4    9 2
     5    5    6 1
     6    7    8 1
     7    9   12 1
     8   10    5 1
     9   11    5 1
    10   12   11 1
    11   13    7 1
    12   14   13 1
    13    7   10 1
    14   12   13 2
@<TRIPOS>SUBSTRUCTURE
     1 RES1 1

@<TRIPOS>CRYSIN
   5.4342    9.8406   10.3659  90.0000  90.0000  90.0000  19 1

