# MOL2 file generated by ConQuest
# Please check atom types

@<TRIPOS>MOLECULE
NIMURC10
    17    17     1
SMALL
NO_CHARGES
****
Generated from CSD

@<TRIPOS>ATOM
      1 O1         1.0118    0.5836    4.8645 O.2       1 RES1    0.0000
      2 O2        -1.2198    1.6766    8.6350 O.2       1 RES1    0.0000
      3 O3        -4.1605    3.3409    6.6774 O.2       1 RES1    0.0000
      4 O4        -2.8070    3.9207    8.2468 O.2       1 RES1    0.0000
      5 N1        -0.7590    1.9775    4.6864 N.am      1 RES1    0.0000
      6 N2        -0.2004    1.0587    6.7324 N.am      1 RES1    0.0000
      7 N3        -3.0278    3.3638    7.2116 N.pl3     1 RES1    0.0000
      8 C1         0.0893    1.1692    5.3936 C.2       1 RES1    0.0000
      9 C2        -1.1305    1.7976    7.4243 C.2       1 RES1    0.0000
     10 C3        -1.9765    2.6107    6.5736 C.2       1 RES1    0.0000
     11 C4        -1.7845    2.6840    5.2245 C.2       1 RES1    0.0000
     12 C5        -2.5786    3.4942    4.2598 C.3       1 RES1    0.0000
     13 H1        -0.5006    2.1517    3.8435 H         1 RES1    0.0000
     14 H2         0.3627    0.6093    7.2513 H         1 RES1    0.0000
     15 H3        -3.3712    3.0562    4.0100 H         1 RES1    0.0000
     16 H4        -3.1217    4.2559    4.7146 H         1 RES1    0.0000
     17 H5        -1.9905    3.7798    3.6000 H         1 RES1    0.0000
@<TRIPOS>BOND
     1    1    8 2
     2    2    9 2
     3    3    7 2
     4    4    7 2
     5    5    8 1
     6    6    8 1
     7    7   10 1
     8    9    6 1
     9   10    9 1
    10   11    5 1
    11   12   11 1
    12   13    5 1
    13   14    6 1
    14   15   12 1
    15   16   12 1
    16   17   12 1
    17   10   11 2
@<TRIPOS>SUBSTRUCTURE
     1 RES1 1

@<TRIPOS>CRYSIN
   5.6120    9.5210   13.1160  90.0000 102.3700  90.0000  14 1

