# MOL2 file generated by ConQuest
# Please check atom types

@<TRIPOS>MOLECULE
NIPFAV
    50    52     1
SMALL
NO_CHARGES
****
Generated from CSD

@<TRIPOS>ATOM
      1 N1         9.1157    3.1145    2.8470 N.pl3     1 RES1    0.0000
      2 O1         6.8802    3.4672   -2.2639 O.3       1 RES1    0.0000
      3 C1         8.5663    3.1689    1.5191 C.ar      1 RES1    0.0000
      4 C2         8.0294    2.1172   -0.5746 C.ar      1 RES1    0.0000
      5 H1         8.0288    1.3620   -1.1177 H         1 RES1    0.0000
      6 C3         7.5072    0.7534    5.8620 C.ar      1 RES1    0.0000
      7 C4        10.1393    4.0728    3.1681 C.ar      1 RES1    0.0000
      8 C5         8.5814    2.0626    0.7025 C.ar      1 RES1    0.0000
      9 H2         8.9648    1.2719    1.0055 H         1 RES1    0.0000
     10 C6         7.4817    3.2981   -1.0311 C.ar      1 RES1    0.0000
     11 C7         9.2523    2.1488    5.0542 C.ar      1 RES1    0.0000
     12 H3        10.0636    2.5806    5.1968 H         1 RES1    0.0000
     13 N2         6.9204   -0.0182    6.9383 N.pl3     1 RES1    0.0000
     14 C8         8.5979    2.3032    3.8332 C.ar      1 RES1    0.0000
     15 C9         9.8439    5.1767    3.9395 C.ar      1 RES1    0.0000
     16 H4         8.9852    5.2898    4.2789 H         1 RES1    0.0000
     17 C10        8.0474    4.3454    1.0311 C.ar      1 RES1    0.0000
     18 H5         8.0599    5.1078    1.5644 H         1 RES1    0.0000
     19 C11        6.8480    0.8716    4.6626 C.ar      1 RES1    0.0000
     20 H6         6.0342    0.4393    4.5377 H         1 RES1    0.0000
     21 C12        7.3854    1.6242    3.6472 C.ar      1 RES1    0.0000
     22 H7         6.9424    1.6836    2.8316 H         1 RES1    0.0000
     23 C13       10.8216    6.1152    4.2090 C.ar      1 RES1    0.0000
     24 H8        10.6253    6.8576    4.7325 H         1 RES1    0.0000
     25 C14       12.0892    5.9459    3.6974 C.ar      1 RES1    0.0000
     26 O2         5.8007   -0.4948    6.7730 O.2       1 RES1    0.0000
     27 C15        8.7144    1.3675    6.0509 C.ar      1 RES1    0.0000
     28 H9         9.1728    1.2572    6.8527 H         1 RES1    0.0000
     29 O3        13.1079    6.8609    3.8509 O.3       1 RES1    0.0000
     30 C16        7.5106    4.4108   -0.2322 C.ar      1 RES1    0.0000
     31 H10        7.1646    5.2144   -0.5461 H         1 RES1    0.0000
     32 O4         7.5465   -0.1481    7.9911 O.2       1 RES1    0.0000
     33 C17       12.3708    4.8472    2.9280 C.ar      1 RES1    0.0000
     34 H11       13.2271    4.7329    2.5827 H         1 RES1    0.0000
     35 C18       11.4088    3.9243    2.6673 C.ar      1 RES1    0.0000
     36 H12       11.6116    3.1834    2.1439 H         1 RES1    0.0000
     37 C19        6.7382    2.3559   -3.1012 C.3       1 RES1    0.0000
     38 H13        6.2669    1.6468   -2.6358 H         1 RES1    0.0000
     39 H14        7.6110    2.0236   -3.3629 H         1 RES1    0.0000
     40 C20        5.9659    2.7741   -4.3123 C.3       1 RES1    0.0000
     41 H15        5.0537    2.9463   -4.0674 H         1 RES1    0.0000
     42 H16        5.9941    2.0733   -4.9676 H         1 RES1    0.0000
     43 H17        6.3542    3.5712   -4.6803 H         1 RES1    0.0000
     44 C21       13.1371    7.6957    4.9784 C.3       1 RES1    0.0000
     45 H18       12.2374    8.0082    5.1614 H         1 RES1    0.0000
     46 H19       13.6858    8.4713    4.7826 H         1 RES1    0.0000
     47 C22       13.6479    7.0469    6.1404 C.3       1 RES1    0.0000
     48 H20       12.9933    6.4312    6.4769 H         1 RES1    0.0000
     49 H21       13.8433    7.7031    6.8134 H         1 RES1    0.0000
     50 H22       14.4498    6.5709    5.9151 H         1 RES1    0.0000
@<TRIPOS>BOND
     1    1    3 1
     2    2   10 1
     3    3    8 ar
     4    4    5 1
     5    6   13 1
     6    7    1 1
     7    8    4 ar
     8    9    8 1
     9   10    4 ar
    10   11   12 1
    11   13   26 2
    12   14    1 1
    13   15    7 ar
    14   16   15 1
    15   17    3 ar
    16   18   17 1
    17   19    6 ar
    18   20   19 1
    19   21   14 ar
    20   22   21 1
    21   23   15 ar
    22   24   23 1
    23   25   23 ar
    24   27    6 ar
    25   28   27 1
    26   29   25 1
    27   30   10 ar
    28   31   30 1
    29   32   13 2
    30   33   25 ar
    31   34   33 1
    32   35    7 ar
    33   36   35 1
    34   37    2 1
    35   38   37 1
    36   39   37 1
    37   40   37 1
    38   41   40 1
    39   42   40 1
    40   43   40 1
    41   44   29 1
    42   45   44 1
    43   46   44 1
    44   47   44 1
    45   48   47 1
    46   49   47 1
    47   50   47 1
    48   11   14 ar
    49   11   27 ar
    50   17   30 ar
    51   19   21 ar
    52   33   35 ar
@<TRIPOS>SUBSTRUCTURE
     1 RES1 1

@<TRIPOS>CRYSIN
  10.9260   18.3800   10.3450  90.0000 107.9980  90.0000  14 1

