# MOL2 file generated by ConQuest
# Please check atom types

@<TRIPOS>MOLECULE
NIPFUP
    29    30     1
SMALL
NO_CHARGES
****
Generated from CSD

@<TRIPOS>ATOM
      1 C1         1.5839    4.4834    0.2506 C.ar      1 RES1    0.0000
      2 C2         2.5897    5.4307    0.2506 C.ar      1 RES1    0.0000
      3 C3         2.7031    6.3562   -0.7842 C.ar      1 RES1    0.0000
      4 C4         1.7970    6.3417   -1.8191 C.ar      1 RES1    0.0000
      5 C5         0.7870    5.4077   -1.8514 C.ar      1 RES1    0.0000
      6 C6         0.6872    4.4882   -0.8210 C.ar      1 RES1    0.0000
      7 C7         1.5495    3.5421    1.4359 C.2       1 RES1    0.0000
      8 O1         1.2243    3.9916    2.5208 O.2       1 RES1    0.0000
      9 C8         2.0489    2.1757    1.3089 C.2       1 RES1    0.0000
     10 C9         2.4022    1.6269    0.1415 C.2       1 RES1    0.0000
     11 C10        2.9065    0.2835    0.0000 C.2       1 RES1    0.0000
     12 C11        3.2713   -0.4397   -1.0950 C.2       1 RES1    0.0000
     13 C12        3.7442   -1.6996   -0.6238 C.2       1 RES1    0.0000
     14 C13        3.6133   -1.6209    0.7196 C.2       1 RES1    0.0000
     15 O2         3.1149   -0.4482    1.1440 O.3       1 RES1    0.0000
     16 N1         3.9890   -2.5367    1.7422 N.pl3     1 RES1    0.0000
     17 O3         3.8937   -2.1805    2.9085 O.2       1 RES1    0.0000
     18 O4         4.4006   -3.6318    1.3846 O.2       1 RES1    0.0000
     19 N2        -0.4121    3.5276   -0.8555 N.pl3     1 RES1    0.0000
     20 O5        -1.0981    3.4682   -1.8614 O.2       1 RES1    0.0000
     21 O6        -0.6081    2.8371    0.1248 O.2       1 RES1    0.0000
     22 H1         3.4439    7.0261   -0.7575 H         1 RES1    0.0000
     23 H2         1.8543    7.0019   -2.5509 H         1 RES1    0.0000
     24 H3         0.1205    5.3786   -2.6178 H         1 RES1    0.0000
     25 H4         2.1165    1.6354    2.1499 H         1 RES1    0.0000
     26 H5         2.3107    2.1805   -0.6906 H         1 RES1    0.0000
     27 H6         3.1963   -0.1211   -2.0719 H         1 RES1    0.0000
     28 H7         4.1036   -2.4713   -1.1585 H         1 RES1    0.0000
     29 H8         3.2402    5.4513    1.0248 H         1 RES1    0.0000
@<TRIPOS>BOND
     1    1    2 ar
     2    2    3 ar
     3    3    4 ar
     4    4    5 ar
     5    5    6 ar
     6    6    1 ar
     7    7    1 1
     8    8    7 2
     9    9    7 1
    10   10    9 2
    11   11   10 1
    12   12   11 2
    13   13   12 1
    14   14   13 2
    15   15   11 1
    16   16   14 1
    17   17   16 2
    18   18   16 2
    19   19    6 1
    20   20   19 2
    21   21   19 2
    22   22    3 1
    23   23    4 1
    24   24    5 1
    25   25    9 1
    26   26   10 1
    27   27   12 1
    28   28   13 1
    29   29    2 1
    30   14   15 1
@<TRIPOS>SUBSTRUCTURE
     1 RES1 1

@<TRIPOS>CRYSIN
   9.6530   12.1140   11.3620  90.0000 101.3600  90.0000  14 1

