# MOL2 file generated by ConQuest
# Please check atom types

@<TRIPOS>MOLECULE
NIPHAZ01
    16    16     1
SMALL
USER_CHARGES
****
Generated from CSD

@<TRIPOS>ATOM
      1 O1         3.6128   -2.0094    3.4392 O.2       1 RES1    0.0000
      2 O2         3.1926    0.0939    3.0975 O.2       1 RES1    0.0000
      3 N1         1.2147   -0.5477    9.0742 N.2       1 RES1    0.0000
      4 N2         0.6830    0.5261    9.4372 N.1       1 RES1    1.0000
      5 N3         0.1744    1.4332    9.8758 N.2       1 RES1   -1.0000
      6 N4         3.1797   -0.9121    3.8082 N.pl3     1 RES1    0.0000
      7 C1         1.6817   -0.5726    7.7304 C.ar      1 RES1    0.0000
      8 C2         2.1928   -1.7986    7.2912 C.ar      1 RES1    0.0000
      9 H1         2.2057   -2.5461    7.8778 H         1 RES1    0.0000
     10 C3         2.6793   -1.9201    6.0014 C.ar      1 RES1    0.0000
     11 H2         3.0325   -2.7464    5.6911 H         1 RES1    0.0000
     12 C4         2.6403   -0.8062    5.1675 C.ar      1 RES1    0.0000
     13 C5         2.1350    0.4186    5.5886 C.ar      1 RES1    0.0000
     14 H3         2.1188    1.1620    4.9968 H         1 RES1    0.0000
     15 C6         1.6548    0.5406    6.8842 C.ar      1 RES1    0.0000
     16 H4         1.3118    1.3706    7.1925 H         1 RES1    0.0000
@<TRIPOS>BOND
     1    1    6 2
     2    2    6 2
     3    3    4 2
     4    4    5 2
     5    6   12 1
     6    7    3 1
     7    8    7 ar
     8    9    8 1
     9   10    8 ar
    10   11   10 1
    11   12   10 ar
    12   13   12 ar
    13   14   13 1
    14   15    7 ar
    15   16   15 1
    16   13   15 ar
@<TRIPOS>SUBSTRUCTURE
     1 RES1 1

@<TRIPOS>CRYSIN
   3.6798   10.3754   18.1767  90.0000  90.0000  90.0000  19 1

