# MOL2 file generated by ConQuest
# Please check atom types

@<TRIPOS>MOLECULE
NIPYAZ
    11    11     1
SMALL
NO_CHARGES
****
Generated from CSD

@<TRIPOS>ATOM
      1 C1         1.1430   -3.0979    0.9540 C.2       1 RES1    0.0000
      2 C2         1.1605   -4.3418    1.6093 C.2       1 RES1    0.0000
      3 C3        -0.1244   -4.7090    1.7238 C.2       1 RES1    0.0000
      4 N1        -0.8384   -3.7018    1.1439 N.pl3     1 RES1    0.0000
      5 N2        -0.0722   -2.6926    0.6585 N.2       1 RES1    0.0000
      6 N3        -2.2316   -3.6416    1.0280 N.pl3     1 RES1    0.0000
      7 O1        -2.8223   -4.6027    1.4631 O.2       1 RES1    0.0000
      8 O2        -2.6853   -2.6515    0.5156 O.2       1 RES1    0.0000
      9 H1         1.8571   -2.5381    0.7016 H         1 RES1    0.0000
     10 H2         1.9252   -4.7752    1.8989 H         1 RES1    0.0000
     11 H3        -0.5551   -5.4373    2.1049 H         1 RES1    0.0000
@<TRIPOS>BOND
     1    1    2 1
     2    2    3 2
     3    3    4 1
     4    4    5 1
     5    5    1 2
     6    6    4 1
     7    7    6 2
     8    8    6 2
     9    9    1 1
    10   10    2 1
    11   11    3 1
@<TRIPOS>SUBSTRUCTURE
     1 RES1 1

@<TRIPOS>CRYSIN
   7.3370   10.0320    7.1990  90.0000 116.6000  90.0000  14 1

