# MOL2 file generated by ConQuest
# Please check atom types

@<TRIPOS>MOLECULE
NIQTUD
    38    39     1
SMALL
NO_CHARGES
****
Generated from CSD

@<TRIPOS>ATOM
      1 O1        -3.1581   -1.1112    4.2421 O.2       1 RES1    0.0000
      2 O2        -3.9610   -0.0480    2.5746 O.2       1 RES1    0.0000
      3 O3        -1.9499    4.7571    5.9030 O.3       1 RES1    0.0000
      4 O4         0.2328    4.5127    5.5189 O.2       1 RES1    0.0000
      5 N1        -3.4053   -0.0823    3.6653 N.pl3     1 RES1    0.0000
      6 C1        -1.8974    2.3672    5.9686 C.ar      1 RES1    0.0000
      7 H1        -1.3825    2.3862    6.7433 H         1 RES1    0.0000
      8 C2        -2.2937    1.1746    5.4245 C.ar      1 RES1    0.0000
      9 H2        -2.0587    0.3692    5.8257 H         1 RES1    0.0000
     10 C3        -3.0425    1.1918    4.2762 C.ar      1 RES1    0.0000
     11 C4        -3.4235    2.3518    3.6745 C.ar      1 RES1    0.0000
     12 H3        -3.9431    2.3365    2.9037 H         1 RES1    0.0000
     13 C5        -3.0305    3.5373    4.2198 C.ar      1 RES1    0.0000
     14 H4        -3.2749    4.3435    3.8265 H         1 RES1    0.0000
     15 C6        -2.2710    3.5201    5.3577 C.ar      1 RES1    0.0000
     16 C7        -0.6634    5.1742    5.9214 C.2       1 RES1    0.0000
     17 C8        -0.5941    6.5388    6.4641 C.3       1 RES1    0.0000
     18 H5        -1.0493    6.5596    7.3214 H         1 RES1    0.0000
     19 H6        -1.0657    7.1388    5.8650 H         1 RES1    0.0000
     20 O1E        3.3605   14.6847    8.8670 O.2       1 RES1    0.0000
     21 O2E        4.1634   13.6215   10.5344 O.2       1 RES1    0.0000
     22 O3E        2.1523    8.8164    7.2060 O.3       1 RES1    0.0000
     23 O4E       -0.0304    9.0608    7.5901 O.2       1 RES1    0.0000
     24 N1E        3.6077   13.6558    9.4438 N.pl3     1 RES1    0.0000
     25 C1E        2.0998   11.2063    7.1405 C.ar      1 RES1    0.0000
     26 H1E        1.5849   11.1873    6.3658 H         1 RES1    0.0000
     27 C2E        2.4961   12.3989    7.6845 C.ar      1 RES1    0.0000
     28 H2E        2.2611   13.2043    7.2834 H         1 RES1    0.0000
     29 C3E        3.2449   12.3817    8.8329 C.ar      1 RES1    0.0000
     30 C4E        3.6259   11.2217    9.4346 C.ar      1 RES1    0.0000
     31 H3E        4.1455   11.2370   10.2054 H         1 RES1    0.0000
     32 C5E        3.2329   10.0362    8.8893 C.ar      1 RES1    0.0000
     33 H4E        3.4773    9.2300    9.2825 H         1 RES1    0.0000
     34 C6E        2.4734   10.0534    7.7514 C.ar      1 RES1    0.0000
     35 C7E        0.8658    8.3993    7.1877 C.2       1 RES1    0.0000
     36 C8E        0.7965    7.0347    6.6450 C.3       1 RES1    0.0000
     37 H5E        1.2517    7.0139    5.7876 H         1 RES1    0.0000
     38 H6E        1.2681    6.4347    7.2441 H         1 RES1    0.0000
@<TRIPOS>BOND
     1    1    5 2
     2    2    5 2
     3    3   15 1
     4    4   16 2
     5    5   10 1
     6    6    7 1
     7    8    6 ar
     8    9    8 1
     9   10    8 ar
    10   11   10 ar
    11   12   11 1
    12   13   11 ar
    13   14   13 1
    14   15    6 ar
    15   16    3 1
    16   17   16 1
    17   18   17 1
    18   19   17 1
    19   20   24 2
    20   21   24 2
    21   22   34 1
    22   23   35 2
    23   24   29 1
    24   25   26 1
    25   27   25 ar
    26   28   27 1
    27   29   27 ar
    28   30   29 ar
    29   31   30 1
    30   32   30 ar
    31   33   32 1
    32   34   25 ar
    33   35   22 1
    34   36   17 1
    35   37   36 1
    36   38   36 1
    37   13   15 ar
    38   32   34 ar
    39   35   36 1
@<TRIPOS>SUBSTRUCTURE
     1 RES1 1

@<TRIPOS>CRYSIN
  13.5390    9.0490   14.6620  90.0000 116.6090  90.0000  15 1

