# MOL2 file generated by ConQuest
# Please check atom types

@<TRIPOS>MOLECULE
NIRJEE03
    20    20     1
SMALL
NO_CHARGES
****
Generated from CSD

@<TRIPOS>ATOM
      1 O1         7.1396    0.1594    8.7228 O.3       1 RES1    0.0000
      2 N1         5.9106    0.7399    8.3528 N.2       1 RES1    0.0000
      3 C1         4.9901    0.5838    9.2283 C.2       1 RES1    0.0000
      4 C2         3.7038    1.1194    9.0237 C.ar      1 RES1    0.0000
      5 C3         3.2836    1.7187    7.7981 C.ar      1 RES1    0.0000
      6 O2         4.1758    1.8153    6.7668 O.3       1 RES1    0.0000
      7 C4         2.0180    2.2056    7.5961 C.ar      1 RES1    0.0000
      8 C5         1.6574    2.8060    6.2669 C.3       1 RES1    0.0000
      9 C6         1.0983    2.1084    8.6400 C.ar      1 RES1    0.0000
     10 C7         1.4718    1.5467    9.8674 C.ar      1 RES1    0.0000
     11 C8         2.7187    1.0573   10.0446 C.ar      1 RES1    0.0000
     12 H1         7.6793    0.7048    8.3657 H         1 RES1    0.0000
     13 H2         5.1795    0.0951   10.0142 H         1 RES1    0.0000
     14 H3         4.9857    1.4964    6.9257 H         1 RES1    0.0000
     15 H4         0.8052    3.2419    6.2935 H         1 RES1    0.0000
     16 H5         2.3211    3.4541    6.0192 H         1 RES1    0.0000
     17 H6         1.6300    2.1023    5.6187 H         1 RES1    0.0000
     18 H7         0.2332    2.4236    8.5111 H         1 RES1    0.0000
     19 H8         0.8521    1.4936   10.5669 H         1 RES1    0.0000
     20 H9         2.9382    0.6640   10.8686 H         1 RES1    0.0000
@<TRIPOS>BOND
     1    1    2 1
     2    2    3 2
     3    3    4 1
     4    4    5 ar
     5    5    6 1
     6    6   14 1
     7    7    5 ar
     8    8    7 1
     9    9    7 ar
    10   10    9 ar
    11   11    4 ar
    12   12    1 1
    13   13    3 1
    14   15    8 1
    15   16    8 1
    16   17    8 1
    17   18    9 1
    18   19   10 1
    19   20   11 1
    20   10   11 ar
@<TRIPOS>SUBSTRUCTURE
     1 RES1 1

@<TRIPOS>CRYSIN
  12.9410    3.6146   13.7188  90.0000  91.4700  90.0000  14 1

