# MOL2 file generated by ConQuest
# Please check atom types

@<TRIPOS>MOLECULE
NIRJEE05
    20    20     1
SMALL
NO_CHARGES
****
Generated from CSD

@<TRIPOS>ATOM
      1 O1         7.0141    0.1049    8.5550 O.3       1 RES1    0.0000
      2 N1         5.8021    0.6840    8.1904 N.2       1 RES1    0.0000
      3 C1         4.8736    0.5033    9.0526 C.2       1 RES1    0.0000
      4 C2         3.5532    1.0490    8.8450 C.ar      1 RES1    0.0000
      5 C3         3.1780    1.6621    7.6338 C.ar      1 RES1    0.0000
      6 O2         4.0816    1.7716    6.6114 O.3       1 RES1    0.0000
      7 C4         1.8923    2.1359    7.4261 C.ar      1 RES1    0.0000
      8 C5         1.5432    2.7484    6.0983 C.3       1 RES1    0.0000
      9 C6         0.9515    2.0177    8.4494 C.ar      1 RES1    0.0000
     10 C7         1.3209    1.4368    9.6773 C.ar      1 RES1    0.0000
     11 C8         2.5908    0.9679    9.8618 C.ar      1 RES1    0.0000
     12 H1         7.6216    0.4773    8.0489 H         1 RES1    0.0000
     13 H2         5.0586    0.0011    9.8145 H         1 RES1    0.0000
     14 H3         4.8466    1.3652    6.7455 H         1 RES1    0.0000
     15 H4         0.6600    3.1221    6.1099 H         1 RES1    0.0000
     16 H5         2.1722    3.4506    5.8814 H         1 RES1    0.0000
     17 H6         1.5823    2.0703    5.4165 H         1 RES1    0.0000
     18 H7         0.0857    2.3391    8.3351 H         1 RES1    0.0000
     19 H8         0.6952    1.3512   10.3654 H         1 RES1    0.0000
     20 H9         2.8202    0.5784   10.7081 H         1 RES1    0.0000
@<TRIPOS>BOND
     1    1    2 1
     2    2    3 2
     3    3    4 1
     4    4    5 ar
     5    5    6 1
     6    6   14 1
     7    7    5 ar
     8    8    7 1
     9    9    7 ar
    10   10    9 ar
    11   11    4 ar
    12   12    1 1
    13   13    3 1
    14   15    8 1
    15   16    8 1
    16   17    8 1
    17   18    9 1
    18   19   10 1
    19   20   11 1
    20   10   11 ar
@<TRIPOS>SUBSTRUCTURE
     1 RES1 1

@<TRIPOS>CRYSIN
  12.8310    3.5096   13.4462  90.0000  92.1000  90.0000  14 1

