# MOL2 file generated by ConQuest
# Please check atom types

@<TRIPOS>MOLECULE
NIRJII04
    29    29     1
SMALL
NO_CHARGES
****
Generated from CSD

@<TRIPOS>ATOM
      1 O1         0.7600    2.1793    5.5547 O.3       1 RES1    0.0000
      2 N1         1.7536    2.7189    4.7234 N.2       1 RES1    0.0000
      3 C1         1.3853    3.8892    4.3087 C.2       1 RES1    0.0000
      4 C2         2.2578    4.6393    3.3937 C.ar      1 RES1    0.0000
      5 C3         3.4593    4.1533    2.9086 C.ar      1 RES1    0.0000
      6 O2         3.8822    2.9064    3.2815 O.3       1 RES1    0.0000
      7 C4         4.2702    4.9091    2.0488 C.ar      1 RES1    0.0000
      8 C5         5.5737    4.3676    1.4629 C.3       1 RES1    0.0000
      9 C6         6.5643    3.9454    2.5605 C.3       1 RES1    0.0000
     10 C7         5.3006    3.1921    0.5479 C.3       1 RES1    0.0000
     11 C8         6.3222    5.4448    0.6848 C.3       1 RES1    0.0000
     12 C9         3.7818    6.1770    1.7102 C.ar      1 RES1    0.0000
     13 C10        2.6037    6.6789    2.1762 C.ar      1 RES1    0.0000
     14 C11        1.7984    5.9123    3.0380 C.ar      1 RES1    0.0000
     15 H1         1.1367    1.5626    5.9732 H         1 RES1    0.0000
     16 H2         0.5713    4.2585    4.5731 H         1 RES1    0.0000
     17 H3         3.2685    2.5065    3.7095 H         1 RES1    0.0000
     18 H4         7.2863    3.4466    2.1610 H         1 RES1    0.0000
     19 H5         6.9348    4.7241    3.0170 H         1 RES1    0.0000
     20 H6         6.1234    3.3879    3.2168 H         1 RES1    0.0000
     21 H7         6.1306    2.7540    0.3348 H         1 RES1    0.0000
     22 H8         4.8762    3.4983   -0.2682 H         1 RES1    0.0000
     23 H9         4.7324    2.5518    1.0063 H         1 RES1    0.0000
     24 H10        7.1822    5.0985    0.4109 H         1 RES1    0.0000
     25 H11        6.4642    6.2325    1.2403 H         1 RES1    0.0000
     26 H12        5.8119    5.6897   -0.0970 H         1 RES1    0.0000
     27 H13        4.2967    6.7019    1.1414 H         1 RES1    0.0000
     28 H14        2.3194    7.5355    1.9213 H         1 RES1    0.0000
     29 H15        0.9916    6.2408    3.3728 H         1 RES1    0.0000
@<TRIPOS>BOND
     1    1    2 1
     2    2    3 2
     3    3    4 1
     4    4    5 ar
     5    5    6 1
     6    6   17 1
     7    7    5 ar
     8    8    7 1
     9    9    8 1
    10   10    8 1
    11   11    8 1
    12   12    7 ar
    13   13   12 ar
    14   14    4 ar
    15   15    1 1
    16   16    3 1
    17   18    9 1
    18   19    9 1
    19   20    9 1
    20   21   10 1
    21   22   10 1
    22   23   10 1
    23   24   11 1
    24   25   11 1
    25   26   11 1
    26   27   12 1
    27   28   13 1
    28   29   14 1
    29   13   14 ar
@<TRIPOS>SUBSTRUCTURE
     1 RES1 1

