# MOL2 file generated by ConQuest
# Please check atom types

@<TRIPOS>MOLECULE
NIRJEE06
    20    20     1
SMALL
NO_CHARGES
****
Generated from CSD

@<TRIPOS>ATOM
      1 O1         6.9532    0.0875    8.5136 O.3       1 RES1    0.0000
      2 N1         5.7563    0.6744    8.1456 N.2       1 RES1    0.0000
      3 C1         4.8243    0.4913    9.0161 C.2       1 RES1    0.0000
      4 C2         3.5469    1.0340    8.8109 C.ar      1 RES1    0.0000
      5 C3         3.1151    1.6453    7.5959 C.ar      1 RES1    0.0000
      6 O2         4.0391    1.7649    6.5713 O.3       1 RES1    0.0000
      7 C4         1.8763    2.1202    7.3835 C.ar      1 RES1    0.0000
      8 C5         1.5279    2.7385    6.0593 C.3       1 RES1    0.0000
      9 C6         0.9167    1.9968    8.4040 C.ar      1 RES1    0.0000
     10 C7         1.2842    1.4151    9.6315 C.ar      1 RES1    0.0000
     11 C8         2.5431    0.9412    9.8203 C.ar      1 RES1    0.0000
     12 H1         5.0146   -0.0073    9.8187 H         1 RES1    0.0000
     13 H2         0.6331    3.1029    6.0894 H         1 RES1    0.0000
     14 H3         2.1380    3.4467    5.8701 H         1 RES1    0.0000
     15 H4         1.5845    2.0522    5.3727 H         1 RES1    0.0000
     16 H5         0.0387    2.3103    8.2676 H         1 RES1    0.0000
     17 H6         0.6658    1.3509   10.3215 H         1 RES1    0.0000
     18 H7         2.7754    0.5485   10.6571 H         1 RES1    0.0000
     19 H8         4.7978    1.4298    6.8195 H         1 RES1    0.0000
     20 H9         7.5857    0.4010    7.9828 H         1 RES1    0.0000
@<TRIPOS>BOND
     1    1    2 1
     2    2    3 2
     3    3    4 1
     4    4    5 ar
     5    5    6 1
     6    6   19 1
     7    7    5 ar
     8    8    7 1
     9    9    7 ar
    10   10    9 ar
    11   11    4 ar
    12   12    3 1
    13   13    8 1
    14   14    8 1
    15   15    8 1
    16   16    9 1
    17   17   10 1
    18   18   11 1
    19   20    1 1
    20   10   11 ar
@<TRIPOS>SUBSTRUCTURE
     1 RES1 1

@<TRIPOS>CRYSIN
  12.7660    3.4872   13.3820  90.0000  92.2700  90.0000  14 1

