# MOL2 file generated by ConQuest
# Please check atom types

@<TRIPOS>MOLECULE
NIRJII03
    29    29     1
SMALL
NO_CHARGES
****
Generated from CSD

@<TRIPOS>ATOM
      1 O1         0.8715    2.1887    5.6881 O.3       1 RES1    0.0000
      2 N1         1.8683    2.7511    4.8525 N.2       1 RES1    0.0000
      3 C1         1.5008    3.9074    4.4169 C.2       1 RES1    0.0000
      4 C2         2.3499    4.6641    3.5142 C.ar      1 RES1    0.0000
      5 C3         3.5520    4.2051    3.0215 C.ar      1 RES1    0.0000
      6 O2         3.9903    2.9557    3.4196 O.3       1 RES1    0.0000
      7 C4         4.3548    4.9411    2.1444 C.ar      1 RES1    0.0000
      8 C5         5.6593    4.4252    1.5649 C.3       1 RES1    0.0000
      9 C6         6.6572    4.0578    2.6549 C.3       1 RES1    0.0000
     10 C7         5.3789    3.2069    0.6741 C.3       1 RES1    0.0000
     11 C8         6.3675    5.4970    0.7470 C.3       1 RES1    0.0000
     12 C9         3.8554    6.2123    1.7936 C.ar      1 RES1    0.0000
     13 C10        2.6601    6.6985    2.2942 C.ar      1 RES1    0.0000
     14 C11        1.8814    5.9347    3.1456 C.ar      1 RES1    0.0000
     15 H1         1.2724    1.5108    6.0705 H         1 RES1    0.0000
     16 H2         0.6786    4.2625    4.6711 H         1 RES1    0.0000
     17 H3         3.3947    2.5826    3.9222 H         1 RES1    0.0000
     18 H4         7.3819    3.5885    2.2311 H         1 RES1    0.0000
     19 H5         7.0021    4.8623    3.0747 H         1 RES1    0.0000
     20 H6         6.2380    3.4865    3.3230 H         1 RES1    0.0000
     21 H7         6.2077    2.8453    0.3489 H         1 RES1    0.0000
     22 H8         4.8322    3.4613   -0.0749 H         1 RES1    0.0000
     23 H9         4.9282    2.5335    1.2023 H         1 RES1    0.0000
     24 H10        7.2202    5.1600    0.4612 H         1 RES1    0.0000
     25 H11        6.4957    6.2950    1.2791 H         1 RES1    0.0000
     26 H12        5.8258    5.6816   -0.0296 H         1 RES1    0.0000
     27 H13        4.3598    6.7534    1.2180 H         1 RES1    0.0000
     28 H14        2.3712    7.5495    2.0458 H         1 RES1    0.0000
     29 H15        1.0776    6.2575    3.4728 H         1 RES1    0.0000
@<TRIPOS>BOND
     1    1    2 1
     2    2    3 2
     3    3    4 1
     4    4    5 ar
     5    5    6 1
     6    6   17 1
     7    7    5 ar
     8    8    7 1
     9    9    8 1
    10   10    8 1
    11   11    8 1
    12   12    7 ar
    13   13   12 ar
    14   14    4 ar
    15   15    1 1
    16   16    3 1
    17   18    9 1
    18   19    9 1
    19   20    9 1
    20   21   10 1
    21   22   10 1
    22   23   10 1
    23   24   11 1
    24   25   11 1
    25   26   11 1
    26   27   12 1
    27   28   13 1
    28   29   14 1
    29   13   14 ar
@<TRIPOS>SUBSTRUCTURE
     1 RES1 1

