# MOL2 file generated by ConQuest
# Please check atom types

@<TRIPOS>MOLECULE
NIRRUC
    41    44     1
SMALL
NO_CHARGES
****
Generated from CSD

@<TRIPOS>ATOM
      1 O1         0.8785    2.4359   11.1969 O.3       1 RES1    0.0000
      2 O2         3.6769    3.9810   11.2421 O.3       1 RES1    0.0000
      3 C1         3.2338    3.8214   16.3124 C.ar      1 RES1    0.0000
      4 C2         2.6026    4.3138   13.9238 C.2       1 RES1    0.0000
      5 O3         2.7711    2.2634    9.9800 O.3       1 RES1    0.0000
      6 C3         4.4832    4.1437   18.7584 C.ar      1 RES1    0.0000
      7 O4         3.4019    5.4127   13.7805 O.3       1 RES1    0.0000
      8 O5         0.4989    4.4992   12.8588 O.3       1 RES1    0.0000
      9 N1         5.1355    4.3284   20.0567 N.pl3     1 RES1    0.0000
     10 C4         5.0561    4.6887   17.6242 C.ar      1 RES1    0.0000
     11 C5         2.7018    3.2578   17.4764 C.ar      1 RES1    0.0000
     12 C6         1.9323    2.6391   12.1243 C.3       1 RES1    0.0000
     13 C7         2.6303    4.8693   11.6406 C.3       1 RES1    0.0000
     14 C8         4.4283    4.5300   16.4095 C.ar      1 RES1    0.0000
     15 C9         3.3175    3.4246   18.6965 C.ar      1 RES1    0.0000
     16 C10        1.8205    4.0514   12.6571 C.3       1 RES1    0.0000
     17 C11        2.5232    3.6198   15.0546 C.2       1 RES1    0.0000
     18 C12        1.4119    1.8382   10.0228 C.3       1 RES1    0.0000
     19 C13        3.2182    5.9731   12.4643 C.3       1 RES1    0.0000
     20 O6         6.2711    4.7754   20.0708 O.2       1 RES1    0.0000
     21 C14        3.1958    2.6521   11.2612 C.3       1 RES1    0.0000
     22 O7         4.5354    3.9931   21.0664 O.2       1 RES1    0.0000
     23 C15        0.6823    2.3557    8.8337 C.3       1 RES1    0.0000
     24 H1         0.7675    3.3113    8.7976 H         1 RES1    0.0000
     25 H2        -0.2457    2.1192    8.9007 H         1 RES1    0.0000
     26 H3         1.0545    1.9702    8.0382 H         1 RES1    0.0000
     27 C16        1.3347    0.3369   10.1293 C.3       1 RES1    0.0000
     28 H4         0.4239    0.0729   10.2805 H         1 RES1    0.0000
     29 H5         1.8803    0.0389   10.8596 H         1 RES1    0.0000
     30 H6         1.6500   -0.0583    9.3131 H         1 RES1    0.0000
     31 H7         2.1121    5.1908   10.8287 H         1 RES1    0.0000
     32 H8         1.9453    2.0083   12.7686 H         1 RES1    0.0000
     33 H9         1.9390    2.9234   14.9938 H         1 RES1    0.0000
     34 H10        3.9260    2.0812   11.5143 H         1 RES1    0.0000
     35 H11        2.5968    6.6889   12.5126 H         1 RES1    0.0000
     36 H12        2.9417    3.0610   19.4803 H         1 RES1    0.0000
     37 H13        4.1050    6.2598   12.1208 H         1 RES1    0.0000
     38 H14        5.8535    5.1422   17.6915 H         1 RES1    0.0000
     39 H15        0.0552    4.2434   12.1758 H         1 RES1    0.0000
     40 H16        4.8821    4.8831   15.6777 H         1 RES1    0.0000
     41 H17        1.8668    2.6804   17.3461 H         1 RES1    0.0000
@<TRIPOS>BOND
     1    1   12 1
     2    2   13 1
     3    3   11 ar
     4    4    7 1
     5    5   18 1
     6    6    9 1
     7    7   19 1
     8    8   16 1
     9    9   20 2
    10   10    6 ar
    11   11   15 ar
    12   12   16 1
    13   13   16 1
    14   14    3 ar
    15   15    6 ar
    16   16    4 1
    17   17    3 1
    18   18    1 1
    19   19   13 1
    20   21    2 1
    21   22    9 2
    22   23   18 1
    23   24   23 1
    24   25   23 1
    25   26   23 1
    26   27   18 1
    27   28   27 1
    28   29   27 1
    29   30   27 1
    30   31   13 1
    31   32   12 1
    32   33   17 1
    33   34   21 1
    34   35   19 1
    35   36   15 1
    36   37   19 1
    37   38   10 1
    38   39    8 1
    39   40   14 1
    40   41   11 1
    41    4   17 2
    42    5   21 1
    43   10   14 ar
    44   12   21 1
@<TRIPOS>SUBSTRUCTURE
     1 RES1 1

@<TRIPOS>CRYSIN
   5.6459    8.0980   17.1910  90.0000  91.7590  90.0000   4 1

