# MOL2 file generated by ConQuest
# Please check atom types

@<TRIPOS>MOLECULE
NIRSAJ
    46    44     2
SMALL
NO_CHARGES
****
Generated from CSD

@<TRIPOS>ATOM
      1 O1         0.4212    5.2615    7.5563 O.3       1 RES1    0.0000
      2 O2         3.2307    6.2981    8.8558 O.3       1 RES1    0.0000
      3 O3         0.0413    5.3248   10.1959 O.3       1 RES1    0.0000
      4 H1        -0.4352    5.5751    9.5770 H         1 RES1    0.0000
      5 O4         2.9091    5.1860   11.5488 O.3       1 RES1    0.0000
      6 C1         1.3681    5.2173    9.7501 C.3       1 RES1    0.0000
      7 O5         2.2242    6.3649    6.7734 O.3       1 RES1    0.0000
      8 N1         1.0188    0.3361   11.6271 N.pl3     1 RES1    0.0000
      9 C2         2.1306    4.3787   10.7721 C.2       1 RES1    0.0000
     10 C3         0.9471    5.8678    6.3675 C.3       1 RES1    0.0000
     11 C4         2.1630    6.5241    9.7918 C.3       1 RES1    0.0000
     12 H2         1.6218    7.3116    9.5756 H         1 RES1    0.0000
     13 C5         1.9955    3.0758   10.9241 C.2       1 RES1    0.0000
     14 H3         1.4683    2.6412   10.2931 H         1 RES1    0.0000
     15 C6         1.5183    4.7463    8.2964 C.3       1 RES1    0.0000
     16 H4         1.6210    3.7755    8.2118 H         1 RES1    0.0000
     17 C7         2.5819    2.2292   11.9752 C.ar      1 RES1    0.0000
     18 C8         2.1088    0.9806   12.3362 C.ar      1 RES1    0.0000
     19 C9         2.7328    5.5288    7.7924 C.3       1 RES1    0.0000
     20 H5         3.4202    4.9246    7.4427 H         1 RES1    0.0000
     21 C10        2.7300    6.5596   11.1801 C.3       1 RES1    0.0000
     22 H6         3.5772    7.0317   11.1920 H         1 RES1    0.0000
     23 H7         2.1175    7.0011   11.7894 H         1 RES1    0.0000
     24 C11        0.0679    7.0218    5.9909 C.3       1 RES1    0.0000
     25 H8         0.0035    7.6299    6.7308 H         1 RES1    0.0000
     26 H9        -0.8073    6.6966    5.7663 H         1 RES1    0.0000
     27 H10        0.4440    7.4771    5.2345 H         1 RES1    0.0000
     28 C12        2.6450    0.2533   13.4114 C.ar      1 RES1    0.0000
     29 H11        2.2900   -0.5755   13.6389 H         1 RES1    0.0000
     30 C13        1.0862    4.8340    5.2833 C.3       1 RES1    0.0000
     31 H12        1.4965    5.2331    4.5128 H         1 RES1    0.0000
     32 H13        0.2179    4.4999    5.0474 H         1 RES1    0.0000
     33 H14        1.6325    4.1106    5.5988 H         1 RES1    0.0000
     34 C14        3.6829    2.6717   12.7065 C.ar      1 RES1    0.0000
     35 H15        4.0727    3.4838   12.4748 H         1 RES1    0.0000
     36 C15        4.2145    1.9651   13.7478 C.ar      1 RES1    0.0000
     37 H16        4.9459    2.3081   14.2071 H         1 RES1    0.0000
     38 O6         0.2826   -0.6780   11.9053 O.2       1 RES1    0.0000
     39 C16        3.6921    0.7717   14.1191 C.ar      1 RES1    0.0000
     40 H17        4.0416    0.3114   14.8478 H         1 RES1    0.0000
     41 O7         1.0435    0.3686   10.3336 O.2       1 RES1    0.0000
     42 O8         0.3065   -0.2828   12.4916 Du        2 SUP2    0.0000
     43 O9         0.9831   -0.7904   11.4921 Du        2 SUP2    0.0000
     44 O10        0.7418   -0.7037   12.2291 Du        2 SUP2    0.0000
     45 O11        0.0451    1.1609   11.2395 Du        2 SUP2    0.0000
     46 O12        0.5304    0.7638   10.6560 Du        2 SUP2    0.0000
@<TRIPOS>BOND
     1    1   10 1
     2    2   11 1
     3    3    4 1
     4    5    9 1
     5    6    3 1
     6    7   10 1
     7    8   18 1
     8    9    6 1
     9   10   24 1
    10   11    6 1
    11   12   11 1
    12   13    9 2
    13   14   13 1
    14   15    1 1
    15   16   15 1
    16   17   13 1
    17   18   17 ar
    18   19    2 1
    19   20   19 1
    20   21    5 1
    21   22   21 1
    22   23   21 1
    23   24   25 1
    24   26   24 1
    25   27   24 1
    26   28   18 ar
    27   29   28 1
    28   30   10 1
    29   31   30 1
    30   32   30 1
    31   33   30 1
    32   34   17 ar
    33   35   34 1
    34   36   34 ar
    35   37   36 1
    36   38    8 2
    37   39   28 ar
    38   40   39 1
    39   41    8 2
    40    6   15 1
    41    7   19 1
    42   11   21 1
    43   15   19 1
    44   36   39 ar
@<TRIPOS>SUBSTRUCTURE
     1 RES1 1
     2 SUP2 42

@<TRIPOS>CRYSIN
   5.6601    9.8552   13.9858  90.0000  93.5740  90.0000   4 1

