# MOL2 file generated by ConQuest
# Please check atom types

@<TRIPOS>MOLECULE
NIRSOW
    35    36     1
SMALL
NO_CHARGES
****
Generated from CSD

@<TRIPOS>ATOM
      1 N1         3.2230    2.7321    5.5058 N.2       1 RES1    0.0000
      2 O1         3.6911    1.5492    4.8947 O.3       1 RES1    0.0000
      3 C1         2.9100    1.3098    3.6952 C.3       1 RES1    0.0000
      4 H1         2.7136    0.3650    3.5948 H         1 RES1    0.0000
      5 H2         3.3853    1.6170    2.9079 H         1 RES1    0.0000
      6 C2         1.6369    2.1061    3.9013 C.3       1 RES1    0.0000
      7 H3         0.8988    1.5319    4.1937 H         1 RES1    0.0000
      8 C3         1.1632    3.1591    2.9114 C.3       1 RES1    0.0000
      9 H4         1.9253    3.5442    2.4324 H         1 RES1    0.0000
     10 C4         0.5049    4.2107    3.7956 C.3       1 RES1    0.0000
     11 H5        -0.4101    3.9294    4.0070 H         1 RES1    0.0000
     12 C5         1.3272    4.2698    5.0884 C.3       1 RES1    0.0000
     13 H6         1.9186    5.0502    5.1042 H         1 RES1    0.0000
     14 C6         2.0938    3.0076    4.9986 C.2       1 RES1    0.0000
     15 O2         0.5016    4.2063    6.2720 O.3       1 RES1    0.0000
     16 C7        -0.0720    5.3430    6.6683 C.2       1 RES1    0.0000
     17 O3         0.0608    6.3759    6.0747 O.2       1 RES1    0.0000
     18 C8        -0.9233    5.1137    7.8607 C.3       1 RES1    0.0000
     19 H7        -0.8463    4.1977    8.1372 H         1 RES1    0.0000
     20 H8        -1.8377    5.3070    7.6423 H         1 RES1    0.0000
     21 H9        -0.6366    5.6878    8.5740 H         1 RES1    0.0000
     22 O4         0.4664    5.4555    3.0946 O.3       1 RES1    0.0000
     23 C9        -0.7286    6.0441    2.8973 C.2       1 RES1    0.0000
     24 O5        -1.7429    5.5580    3.2778 O.2       1 RES1    0.0000
     25 C10       -0.5819    7.2716    2.1012 C.3       1 RES1    0.0000
     26 H10        0.3492    7.4361    1.9357 H         1 RES1    0.0000
     27 H11       -0.9551    8.0131    2.5856 H         1 RES1    0.0000
     28 H12       -1.0433    7.1692    1.2664 H         1 RES1    0.0000
     29 O6         0.1601    2.7047    1.9795 O.3       1 RES1    0.0000
     30 C11        0.5746    1.9993    0.9282 C.2       1 RES1    0.0000
     31 O7         1.7133    1.7180    0.7591 O.2       1 RES1    0.0000
     32 C12       -0.5601    1.5839    0.0652 C.3       1 RES1    0.0000
     33 H13       -1.3780    1.9430    0.4174 H         1 RES1    0.0000
     34 H14       -0.6137    0.6260    0.0476 H         1 RES1    0.0000
     35 H15       -0.4234    1.9142   -0.8243 H         1 RES1    0.0000
@<TRIPOS>BOND
     1    1    2 1
     2    2    3 1
     3    3    4 1
     4    5    3 1
     5    6    3 1
     6    7    6 1
     7    8    6 1
     8    9    8 1
     9   10    8 1
    10   11   10 1
    11   12   10 1
    12   13   12 1
    13   14    1 2
    14   15   12 1
    15   16   15 1
    16   17   16 2
    17   18   16 1
    18   19   18 1
    19   20   18 1
    20   21   18 1
    21   22   10 1
    22   23   22 1
    23   24   23 2
    24   25   23 1
    25   26   25 1
    26   27   25 1
    27   28   25 1
    28   29    8 1
    29   30   29 1
    30   31   30 2
    31   32   30 1
    32   33   32 1
    33   34   32 1
    34   35   32 1
    35    6   14 1
    36   12   14 1
@<TRIPOS>SUBSTRUCTURE
     1 RES1 1

@<TRIPOS>CRYSIN
   5.5790   14.4250   17.6130  90.0000  90.0000  90.0000  19 1

