# MOL2 file generated by ConQuest
# Please check atom types

@<TRIPOS>MOLECULE
NIRSUC
    61    65     1
SMALL
NO_CHARGES
****
Generated from CSD

@<TRIPOS>ATOM
      1 N1         4.9932   20.9417   17.6635 N.3       1 RES1    0.0000
      2 O1         5.3216   20.2297   16.4830 O.3       1 RES1    0.0000
      3 C1         4.1011   19.6463   16.0362 C.3       1 RES1    0.0000
      4 H1         4.2811   18.8896   15.4553 H         1 RES1    0.0000
      5 H2         3.5765   20.2949   15.5409 H         1 RES1    0.0000
      6 C2         3.3645   19.2027   17.2584 C.3       1 RES1    0.0000
      7 H3         2.4084   19.4096   17.1959 H         1 RES1    0.0000
      8 C3         3.5974   17.7471   17.6866 C.3       1 RES1    0.0000
      9 H4         2.8579   17.4358   18.2491 H         1 RES1    0.0000
     10 C4         4.8709   17.7732   18.4713 C.3       1 RES1    0.0000
     11 H5         5.6291   17.8142   17.8510 H         1 RES1    0.0000
     12 C5         4.8063   19.0853   19.2768 C.3       1 RES1    0.0000
     13 H6         5.7013   19.4152   19.5013 H         1 RES1    0.0000
     14 C6         4.0621   20.0564   18.3556 C.3       1 RES1    0.0000
     15 H7         3.4024   20.5764   18.8602 H         1 RES1    0.0000
     16 O2         4.0254   18.8151   20.4619 O.3       1 RES1    0.0000
     17 C7         4.3673   19.5326   21.5452 C.2       1 RES1    0.0000
     18 O3         5.2657   20.3024   21.5799 O.2       1 RES1    0.0000
     19 C8         3.4478   19.2754   22.6956 C.ar      1 RES1    0.0000
     20 C9         3.7465   19.8215   23.9340 C.ar      1 RES1    0.0000
     21 H8         4.5175   20.3303   24.0451 H         1 RES1    0.0000
     22 C10        2.9057   19.6109   24.9964 C.ar      1 RES1    0.0000
     23 H9         3.1066   19.9762   25.8274 H         1 RES1    0.0000
     24 C11        1.7743   18.8672   24.8321 C.ar      1 RES1    0.0000
     25 H10        1.2042   18.7237   25.5543 H         1 RES1    0.0000
     26 C12        1.4785   18.3379   23.6169 C.ar      1 RES1    0.0000
     27 H11        0.7005   17.8384   23.5150 H         1 RES1    0.0000
     28 C13        2.2995   18.5206   22.5382 C.ar      1 RES1    0.0000
     29 H12        2.0899   18.1441   21.7119 H         1 RES1    0.0000
     30 O4         4.9571   16.5636   19.2375 O.3       1 RES1    0.0000
     31 C14        6.1328   16.3511   19.8416 C.2       1 RES1    0.0000
     32 O5         7.0359   17.1209   19.8092 O.2       1 RES1    0.0000
     33 C15        6.1520   15.0297   20.5013 C.ar      1 RES1    0.0000
     34 C16        7.2776   14.7166   21.2420 C.ar      1 RES1    0.0000
     35 H13        7.9577   15.3447   21.3300 H         1 RES1    0.0000
     36 C17        7.4080   13.4809   21.8508 C.ar      1 RES1    0.0000
     37 H14        8.1673   13.2926   22.3554 H         1 RES1    0.0000
     38 C18        6.4280   12.5341   21.7211 C.ar      1 RES1    0.0000
     39 H15        6.5241   11.6953   22.1146 H         1 RES1    0.0000
     40 C19        5.3018   12.8416   20.9990 C.ar      1 RES1    0.0000
     41 H16        4.6246   12.2116   20.9087 H         1 RES1    0.0000
     42 C20        5.1673   14.0903   20.4041 C.ar      1 RES1    0.0000
     43 H17        4.3911   14.2898   19.9319 H         1 RES1    0.0000
     44 O6         3.8211   16.8171   16.5895 O.3       1 RES1    0.0000
     45 C21        2.7549   16.2784   15.9969 C.2       1 RES1    0.0000
     46 O7         1.6246   16.6102   16.2538 O.2       1 RES1    0.0000
     47 C22        3.1223   15.1881   15.0409 C.ar      1 RES1    0.0000
     48 C23        4.3381   14.5656   15.1636 C.ar      1 RES1    0.0000
     49 H18        4.9507   14.8452   15.8048 H         1 RES1    0.0000
     50 C24        4.6398   13.5107   14.3095 C.ar      1 RES1    0.0000
     51 H19        5.4393   13.0466   14.4113 H         1 RES1    0.0000
     52 C25        3.7855   13.1547   13.3373 C.ar      1 RES1    0.0000
     53 H20        4.0307   12.4893   12.7378 H         1 RES1    0.0000
     54 C26        2.5668   13.7493   13.2123 C.ar      1 RES1    0.0000
     55 H21        1.9589   13.4678   12.5665 H         1 RES1    0.0000
     56 C27        2.2599   14.7948   14.0873 C.ar      1 RES1    0.0000
     57 H22        1.4412   15.2291   14.0062 H         1 RES1    0.0000
     58 C28        4.3771   22.1997   17.2769 C.3       1 RES1    0.0000
     59 H23        5.0235   22.7458   16.8256 H         1 RES1    0.0000
     60 H24        4.0627   22.6545   18.0616 H         1 RES1    0.0000
     61 H25        3.6376   22.0264   16.6890 H         1 RES1    0.0000
@<TRIPOS>BOND
     1    1    2 1
     2    2    3 1
     3    3    4 1
     4    5    3 1
     5    6    3 1
     6    7    6 1
     7    8    6 1
     8    9    8 1
     9   10    8 1
    10   11   10 1
    11   12   10 1
    12   13   12 1
    13   14    1 1
    14   15   14 1
    15   16   12 1
    16   17   16 1
    17   18   17 2
    18   19   17 1
    19   20   19 ar
    20   21   20 1
    21   22   20 ar
    22   23   22 1
    23   24   22 ar
    24   25   24 1
    25   26   24 ar
    26   27   26 1
    27   28   19 ar
    28   29   28 1
    29   30   10 1
    30   31   30 1
    31   32   31 2
    32   33   31 1
    33   34   33 ar
    34   35   34 1
    35   36   34 ar
    36   37   36 1
    37   38   36 ar
    38   39   38 1
    39   40   38 ar
    40   41   40 1
    41   42   33 ar
    42   43   42 1
    43   44    8 1
    44   45   44 1
    45   46   45 2
    46   47   45 1
    47   48   47 ar
    48   49   48 1
    49   50   48 ar
    50   51   50 1
    51   52   50 ar
    52   53   52 1
    53   54   52 ar
    54   55   54 1
    55   56   47 ar
    56   57   56 1
    57   58    1 1
    58   59   58 1
    59   60   58 1
    60   61   58 1
    61    6   14 1
    62   12   14 1
    63   26   28 ar
    64   40   42 ar
    65   54   56 ar
@<TRIPOS>SUBSTRUCTURE
     1 RES1 1

@<TRIPOS>CRYSIN
   5.8230   18.6380   23.1470  90.0000  90.0000  90.0000  19 1

