# MOL2 file generated by ConQuest
# Please check atom types

@<TRIPOS>MOLECULE
NISCAU
    52    53     1
SMALL
NO_CHARGES
****
Generated from CSD

@<TRIPOS>ATOM
      1 O1         2.9536    3.1697   12.2971 O.3       1 RES1    0.0000
      2 O2         2.0111    6.8641   10.9455 O.3       1 RES1    0.0000
      3 O3         1.1854    8.3124    9.4329 O.2       1 RES1    0.0000
      4 O4         5.2940    4.4651   12.3426 O.2       1 RES1    0.0000
      5 N1         3.2405    4.2154   11.4088 N.am      1 RES1    0.0000
      6 C1         2.1004    4.5242   10.5321 C.3       1 RES1    0.0000
      7 H1         1.2950    4.5641   11.0898 H         1 RES1    0.0000
      8 C2         2.2938    5.8891    9.8936 C.3       1 RES1    0.0000
      9 H2         1.6639    6.0045    9.1523 H         1 RES1    0.0000
     10 C3         3.7126    6.0899    9.4048 C.3       1 RES1    0.0000
     11 H3         3.7961    6.9649    8.9949 H         1 RES1    0.0000
     12 H4         3.9253    5.4205    8.7352 H         1 RES1    0.0000
     13 C4         4.6890    5.9755   10.5745 C.3       1 RES1    0.0000
     14 H5         5.5874    5.8989   10.2163 H         1 RES1    0.0000
     15 H6         4.6500    6.7982   11.0866 H         1 RES1    0.0000
     16 C5         4.4512    4.8140   11.5196 C.2       1 RES1    0.0000
     17 C6         1.9016    3.4034    9.4946 C.3       1 RES1    0.0000
     18 H7         2.5522    3.5073    8.7824 H         1 RES1    0.0000
     19 H8         2.0560    2.5445    9.9172 H         1 RES1    0.0000
     20 C7         0.5184    3.4255    8.9090 C.2       1 RES1    0.0000
     21 H9        -0.1971    3.3632    9.5001 H         1 RES1    0.0000
     22 C8         0.2373    3.5266    7.6188 C.2       1 RES1    0.0000
     23 H10        0.9254    3.5905    6.9960 H         1 RES1    0.0000
     24 H11       -0.6483    3.5330    7.3344 H         1 RES1    0.0000
     25 C9         1.5022    8.0583   10.5688 C.2       1 RES1    0.0000
     26 C10        1.4319    9.0264   11.7500 C.3       1 RES1    0.0000
     27 C11        0.7505   10.3177   11.3004 C.3       1 RES1    0.0000
     28 H12        1.2444   10.7040   10.5735 H         1 RES1    0.0000
     29 H13        0.7222   10.9372   12.0341 H         1 RES1    0.0000
     30 H14       -0.1438   10.1238   11.0111 H         1 RES1    0.0000
     31 C12        2.8760    9.3149   12.1915 C.3       1 RES1    0.0000
     32 H15        3.3595    9.7128   11.4644 H         1 RES1    0.0000
     33 H16        3.3026    8.4939   12.4481 H         1 RES1    0.0000
     34 H17        2.8681    9.9181   12.9376 H         1 RES1    0.0000
     35 C13        0.6623    8.3881   12.9144 C.3       1 RES1    0.0000
     36 H18       -0.2405    8.2082   12.6401 H         1 RES1    0.0000
     37 H19        0.6556    8.9903   13.6616 H         1 RES1    0.0000
     38 H20        1.0891    7.5664   13.1689 H         1 RES1    0.0000
     39 C14        2.4479    3.7491   13.5353 C.3       1 RES1    0.0000
     40 H21        1.6568    4.2826   13.3594 H         1 RES1    0.0000
     41 H22        3.1203    4.3179   13.9417 H         1 RES1    0.0000
     42 C15        2.1145    2.6041   14.4458 C.ar      1 RES1    0.0000
     43 C16        3.1042    1.6896   14.8146 C.ar      1 RES1    0.0000
     44 H23        3.9663    1.7794   14.4768 H         1 RES1    0.0000
     45 C17        2.8080    0.6470   15.6826 C.ar      1 RES1    0.0000
     46 H24        3.4664    0.0314   15.9107 H         1 RES1    0.0000
     47 C18        1.5256    0.5230   16.2118 C.ar      1 RES1    0.0000
     48 H25        1.3314   -0.1664   16.8047 H         1 RES1    0.0000
     49 C19        0.5356    1.4315   15.8524 C.ar      1 RES1    0.0000
     50 H26       -0.3188    1.3546   16.2129 H         1 RES1    0.0000
     51 C20        0.8218    2.4583   14.9534 C.ar      1 RES1    0.0000
     52 H27        0.1509    3.0468   14.6909 H         1 RES1    0.0000
@<TRIPOS>BOND
     1    1    5 1
     2    2    8 1
     3    3   25 2
     4    4   16 2
     5    5    6 1
     6    6    7 1
     7    8    6 1
     8    9    8 1
     9   10    8 1
    10   11   10 1
    11   12   10 1
    12   13   10 1
    13   14   13 1
    14   15   13 1
    15   16    5 1
    16   17    6 1
    17   18   17 1
    18   19   17 1
    19   20   17 1
    20   21   20 1
    21   22   20 2
    22   23   22 1
    23   24   22 1
    24   25    2 1
    25   26   25 1
    26   27   26 1
    27   28   27 1
    28   29   27 1
    29   30   27 1
    30   31   26 1
    31   32   31 1
    32   33   31 1
    33   34   31 1
    34   35   26 1
    35   36   35 1
    36   37   35 1
    37   38   35 1
    38   39    1 1
    39   40   39 1
    40   41   39 1
    41   42   39 1
    42   43   42 ar
    43   44   43 1
    44   45   43 ar
    45   46   45 1
    46   47   45 ar
    47   48   47 1
    48   49   47 ar
    49   50   49 1
    50   51   42 ar
    51   52   51 1
    52   13   16 1
    53   49   51 ar
@<TRIPOS>SUBSTRUCTURE
     1 RES1 1

@<TRIPOS>CRYSIN
   6.1617    9.7621   16.3900  75.6900  80.2400  80.2260   2 1

