# MOL2 file generated by ConQuest
# Please check atom types

@<TRIPOS>MOLECULE
NISDEY
    15    16     1
SMALL
USER_CHARGES
****
Generated from CSD

@<TRIPOS>ATOM
      1 N1        -1.2613   13.4847    7.4813 N.am      1 RES1    0.0000
      2 N2        -0.3413   12.6075    7.9953 N.2       1 RES1    0.0000
      3 N3         0.4380   13.3416    8.7430 N.pl3     1 RES1    1.0000
      4 O1        -2.2263   11.7426    6.4737 O.3       1 RES1    0.0000
      5 O2        -3.1463   13.7910    6.2628 O.2       1 RES1    0.0000
      6 O3         1.4342   12.8568    9.3624 O.2       1 RES1   -1.0000
      7 C1         0.0555   14.6867    8.7478 C.ar      1 RES1    0.0000
      8 C2        -1.0465   14.7775    7.9306 C.ar      1 RES1    0.0000
      9 C3        -1.6754   15.9994    7.7365 C.ar      1 RES1    0.0000
     10 C4        -1.1425   17.0629    8.3979 C.ar      1 RES1    0.0000
     11 C5        -0.0265   16.9567    9.2258 C.ar      1 RES1    0.0000
     12 C6         0.5941   15.7624    9.4223 C.ar      1 RES1    0.0000
     13 C7        -2.3214   13.0415    6.6738 C.2       1 RES1    0.0000
     14 C8        -3.2647   11.1639    5.6122 C.3       1 RES1    0.0000
     15 C9        -3.1386    9.6988    5.7488 C.3       1 RES1    0.0000
@<TRIPOS>BOND
     1    1    2 1
     2    2    3 2
     3    3    6 1
     4    4   13 1
     5    5   13 2
     6    7    3 1
     7    8    1 1
     8    9    8 ar
     9   10    9 ar
    10   11   10 ar
    11   12    7 ar
    12   13    1 1
    13   14    4 1
    14   15   14 1
    15    7    8 ar
    16   11   12 ar
@<TRIPOS>SUBSTRUCTURE
     1 RES1 1

@<TRIPOS>CRYSIN
   5.2500   15.3900   12.1500  90.0000  99.5500  90.0000 231 1

