# MOL2 file generated by ConQuest
# Please check atom types

@<TRIPOS>MOLECULE
NITBAL01
    18    18     1
SMALL
NO_CHARGES
****
Generated from CSD

@<TRIPOS>ATOM
      1 C1        -0.0898    2.2779    2.7631 C.ar      1 RES1    0.0000
      2 C2        -0.5908    1.6749    3.9197 C.ar      1 RES1    0.0000
      3 C3         0.1464    0.7320    4.6043 C.ar      1 RES1    0.0000
      4 C4         1.3955    0.4033    4.1224 C.ar      1 RES1    0.0000
      5 C5         1.9300    0.9722    2.9855 C.ar      1 RES1    0.0000
      6 C6         1.1817    1.9234    2.3059 C.ar      1 RES1    0.0000
      7 C7        -0.9334    3.2560    2.0760 C.2       1 RES1    0.0000
      8 H1        -1.4851    1.9762    4.2732 H         1 RES1    0.0000
      9 H2        -0.2096    0.3071    5.3309 H         1 RES1    0.0000
     10 H3         2.8337    0.7202    2.6321 H         1 RES1    0.0000
     11 H4         1.5262    2.3199    1.5348 H         1 RES1    0.0000
     12 H5        -1.8477    3.3253    2.3800 H         1 RES1    0.0000
     13 H6        -1.0751    5.2331    0.0420 H         1 RES1    0.0000
     14 N1        -0.5105    3.9543    1.1171 N.2       1 RES1    0.0000
     15 N2         2.1678   -0.6250    4.8391 N.pl3     1 RES1    0.0000
     16 O1        -1.5121    4.8171    0.6327 O.3       1 RES1    0.0000
     17 O2         3.3078   -0.8628    4.4462 O.2       1 RES1    0.0000
     18 O3         1.6502   -1.1797    5.7980 O.2       1 RES1    0.0000
@<TRIPOS>BOND
     1    1    2 ar
     2    2    3 ar
     3    3    4 ar
     4    4    5 ar
     5    5    6 ar
     6    6    1 ar
     7    7    1 1
     8    8    2 1
     9    9    3 1
    10   10    5 1
    11   11    6 1
    12   12    7 1
    13   13   16 1
    14   14    7 2
    15   15    4 1
    16   16   14 1
    17   17   15 2
    18   18   15 2
@<TRIPOS>SUBSTRUCTURE
     1 RES1 1

@<TRIPOS>CRYSIN
   6.2680    4.8830   24.7890  90.0000  94.4400  90.0000  14 1

