# MOL2 file generated by ConQuest
# Please check atom types

@<TRIPOS>MOLECULE
NITPOL01
    15    15     1
SMALL
NO_CHARGES
****
Generated from CSD

@<TRIPOS>ATOM
      1 C1         1.3019    2.7604   -2.0752 C.ar      1 RES1    0.0000
      2 C2         1.7658    3.8746   -1.3885 C.ar      1 RES1    0.0000
      3 C3         2.9242    4.4813   -1.8257 C.ar      1 RES1    0.0000
      4 C4         3.6037    3.9738   -2.9241 C.ar      1 RES1    0.0000
      5 C5         3.1130    2.8684   -3.6184 C.ar      1 RES1    0.0000
      6 C6         1.9430    2.2652   -3.1962 C.ar      1 RES1    0.0000
      7 H1         5.0844    4.2943   -3.7131 H         1 RES1    0.0000
      8 H2         1.3066    4.2592   -0.6884 H         1 RES1    0.0000
      9 H3         3.2237    5.3514   -1.2978 H         1 RES1    0.0000
     10 H4         3.5588    2.5673   -4.3684 H         1 RES1    0.0000
     11 H5         1.6686    1.4022   -3.6782 H         1 RES1    0.0000
     12 N1         0.0991    2.1151   -1.6048 N.pl3     1 RES1    0.0000
     13 O1        -0.4866    2.5734   -0.6221 O.2       1 RES1    0.0000
     14 O2        -0.3118    1.1124   -2.2008 O.2       1 RES1    0.0000
     15 O3         4.7519    4.5990   -3.2736 O.3       1 RES1    0.0000
@<TRIPOS>BOND
     1    1    2 ar
     2    2    3 ar
     3    3    4 ar
     4    4    5 ar
     5    5    6 ar
     6    6    1 ar
     7    7   15 1
     8    8    2 1
     9    9    3 1
    10   10    5 1
    11   11    6 1
    12   12    1 1
    13   13   12 2
    14   14   12 2
    15   15    4 1
@<TRIPOS>SUBSTRUCTURE
     1 RES1 1

@<TRIPOS>CRYSIN
  11.6600    8.7800    6.0980  90.0000 107.5400  90.0000 231 1

