# MOL2 file generated by ConQuest
# Please check atom types

@<TRIPOS>MOLECULE
NITPOL05
    15    15     1
SMALL
NO_CHARGES
****
Generated from CSD

@<TRIPOS>ATOM
      1 O1         3.2320    0.1991    9.1403 O.3       1 RES1    0.0000
      2 O2        -0.8754   -1.8189    4.9344 O.2       1 RES1    0.0000
      3 C1         1.0497   -1.6308    6.1952 C.ar      1 RES1    0.0000
      4 O3         0.6829   -3.2824    4.6217 O.2       1 RES1    0.0000
      5 C2         0.5335   -0.5182    6.8552 C.ar      1 RES1    0.0000
      6 C3         1.2937    0.0825    7.8290 C.ar      1 RES1    0.0000
      7 N1         0.2356   -2.2753    5.1930 N.pl3     1 RES1    0.0000
      8 C4         2.5507   -0.4261    8.1573 C.ar      1 RES1    0.0000
      9 C5         3.0634   -1.5296    7.4653 C.ar      1 RES1    0.0000
     10 C6         2.3162   -2.1299    6.4809 C.ar      1 RES1    0.0000
     11 H1         2.6530   -2.8758    6.0176 H         1 RES1    0.0000
     12 H2         3.9258   -1.8726    7.7062 H         1 RES1    0.0000
     13 H3        -0.3597   -0.1742    6.6095 H         1 RES1    0.0000
     14 H4         0.9561    0.8096    8.2982 H         1 RES1    0.0000
     15 H5         3.9186   -0.2640    9.3592 H         1 RES1    0.0000
@<TRIPOS>BOND
     1    1    8 1
     2    2    7 2
     3    3    5 ar
     4    4    7 2
     5    5    6 ar
     6    6    8 ar
     7    7    3 1
     8    8    9 ar
     9    9   10 ar
    10   10    3 ar
    11   11   10 1
    12   12    9 1
    13   13    5 1
    14   14    6 1
    15   15    1 1
@<TRIPOS>SUBSTRUCTURE
     1 RES1 1

@<TRIPOS>CRYSIN
   6.1360    8.8000   11.4810  90.0000 103.4000  90.0000  14 1

