# MOL2 file generated by ConQuest
# Please check atom types

@<TRIPOS>MOLECULE
NITPOL07
    15    15     1
SMALL
NO_CHARGES
****
Generated from CSD

@<TRIPOS>ATOM
      1 N1        -1.0859    8.2443    7.2504 N.pl3     1 RES1    0.0000
      2 O1         0.1997    6.0127    2.3754 O.3       1 RES1    0.0000
      3 O2        -1.7271    7.5521    8.0387 O.2       1 RES1    0.0000
      4 O3        -0.7639    9.3980    7.5058 O.2       1 RES1    0.0000
      5 C1        -0.0968    6.6202    3.5452 C.ar      1 RES1    0.0000
      6 C2         0.1693    7.9567    3.8006 C.ar      1 RES1    0.0000
      7 C3        -0.1478    8.4907    5.0249 C.ar      1 RES1    0.0000
      8 C4        -0.7184    7.6825    5.9718 C.ar      1 RES1    0.0000
      9 C5        -0.9799    6.3516    5.7296 C.ar      1 RES1    0.0000
     10 C6        -0.6603    5.8165    4.5185 C.ar      1 RES1    0.0000
     11 H1         0.4337    6.6548    1.8350 H         1 RES1    0.0000
     12 H2         0.5455    8.4829    3.1121 H         1 RES1    0.0000
     13 H3        -0.0462    9.3746    5.2554 H         1 RES1    0.0000
     14 H4        -1.3789    5.8299    6.4298 H         1 RES1    0.0000
     15 H5        -0.8413    4.9047    4.3159 H         1 RES1    0.0000
@<TRIPOS>BOND
     1    1    3 2
     2    2    5 1
     3    4    1 2
     4    5    6 ar
     5    6    7 ar
     6    7    8 ar
     7    8    1 1
     8    9    8 ar
     9   10    5 ar
    10   11    2 1
    11   12    6 1
    12   13    7 1
    13   14    9 1
    14   15   10 1
    15    9   10 ar
@<TRIPOS>SUBSTRUCTURE
     1 RES1 1

@<TRIPOS>CRYSIN
   3.7740   11.1470   14.6950  90.0000  92.6000  90.0000 231 1

