# MOL2 file generated by ConQuest
# Please check atom types

@<TRIPOS>MOLECULE
NIVCEA
    24    25     1
SMALL
NO_CHARGES
****
Generated from CSD

@<TRIPOS>ATOM
      1 O1         1.6077    3.4092    3.1532 O.3       1 RES1    0.0000
      2 O2        -3.2416   -0.9545    3.5925 O.2       1 RES1    0.0000
      3 O3        -4.4497    0.5575    2.5973 O.2       1 RES1    0.0000
      4 O4        -0.2572   -0.5253    1.3632 O.2       1 RES1    0.0000
      5 O5        -2.1712   -1.5127    1.1561 O.2       1 RES1    0.0000
      6 O6        -2.4991    1.1267   -0.0029 O.2       1 RES1    0.0000
      7 O7        -2.9002    2.6455    1.5010 O.2       1 RES1    0.0000
      8 N1        -3.4057    0.0095    2.8661 N.pl3     1 RES1    0.0000
      9 N2        -1.4524   -0.6091    1.5202 N.pl3     1 RES1    0.0000
     10 N3        -2.5534    1.5423    1.1416 N.pl3     1 RES1    0.0000
     11 C1         1.3592    3.2983    1.8112 C.2       1 RES1    0.0000
     12 C2         0.3239    2.5095    1.5414 C.2       1 RES1    0.0000
     13 C3        -0.1761    2.0557    2.8054 C.ar      1 RES1    0.0000
     14 C4        -1.2360    1.2480    3.2592 C.ar      1 RES1    0.0000
     15 C5        -1.4193    1.1144    4.6291 C.ar      1 RES1    0.0000
     16 C6        -0.5729    1.7438    5.5376 C.ar      1 RES1    0.0000
     17 C7         0.4848    2.5091    5.1156 C.ar      1 RES1    0.0000
     18 C8         0.6468    2.6432    3.7640 C.ar      1 RES1    0.0000
     19 C9        -2.1157    0.5784    2.2669 C.3       1 RES1    0.0000
     20 H1         1.8721    3.7384    1.1435 H         1 RES1    0.0000
     21 H2        -0.0163    2.2905    0.6821 H         1 RES1    0.0000
     22 H3        -2.1373    0.5822    4.9538 H         1 RES1    0.0000
     23 H4        -0.7316    1.6426    6.4682 H         1 RES1    0.0000
     24 H5         1.0762    2.9254    5.7322 H         1 RES1    0.0000
@<TRIPOS>BOND
     1    1   11 1
     2    2    8 2
     3    3    8 2
     4    4    9 2
     5    5    9 2
     6    6   10 2
     7    7   10 2
     8    8   19 1
     9    9   19 1
    10   10   19 1
    11   11   12 2
    12   12   13 1
    13   13   14 ar
    14   14   15 ar
    15   15   16 ar
    16   16   17 ar
    17   17   18 ar
    18   18    1 1
    19   19   14 1
    20   20   11 1
    21   21   12 1
    22   22   15 1
    23   23   16 1
    24   24   17 1
    25   13   18 ar
@<TRIPOS>SUBSTRUCTURE
     1 RES1 1

@<TRIPOS>CRYSIN
   7.4740    7.6120    9.6580  92.7100  92.2500 104.1100   2 1

