# MOL2 file generated by ConQuest
# Please check atom types

@<TRIPOS>MOLECULE
NIVPAJ01
    20    20     1
SMALL
NO_CHARGES
****
Generated from CSD

@<TRIPOS>ATOM
      1 C1         2.6987   -0.2593    7.7442 C.ar      1 RES1    0.0000
      2 C2         1.4719   -0.8323    7.9118 C.ar      1 RES1    0.0000
      3 C3         1.2130   -1.8059    8.9003 C.ar      1 RES1    0.0000
      4 C4         2.2998   -2.1572    9.7319 C.ar      1 RES1    0.0000
      5 C5         3.5562   -1.5566    9.5697 C.ar      1 RES1    0.0000
      6 C6         3.7597   -0.6314    8.5993 C.ar      1 RES1    0.0000
      7 C7         2.9572    0.7565    6.6581 C.3       1 RES1    0.0000
      8 O1         1.0970   -3.7380   10.9146 O.2       1 RES1    0.0000
      9 O2         3.1271   -3.3559   11.5051 O.2       1 RES1    0.0000
     10 O3         1.8526    0.9769    5.8072 O.3       1 RES1    0.0000
     11 N1        -0.0215   -2.3439    8.9702 N.3       1 RES1    0.0000
     12 N2         2.1716   -3.1284   10.7695 N.pl3     1 RES1    0.0000
     13 H1         0.7523   -0.6115    7.3233 H         1 RES1    0.0000
     14 H2         4.2537   -1.7965   10.1682 H         1 RES1    0.0000
     15 H3         4.6378   -0.1943    8.5146 H         1 RES1    0.0000
     16 H4        -0.2168   -2.9483    9.6468 H         1 RES1    0.0000
     17 H5        -0.7033   -1.9197    8.5376 H         1 RES1    0.0000
     18 H6         1.8397    0.3602    5.2044 H         1 RES1    0.0000
     19 H7         3.7491    0.4503    6.1378 H         1 RES1    0.0000
     20 H8         3.1593    1.6258    7.0741 H         1 RES1    0.0000
@<TRIPOS>BOND
     1    1    2 ar
     2    2    3 ar
     3    3    4 ar
     4    4    5 ar
     5    5    6 ar
     6    6    1 ar
     7    7    1 1
     8    8   12 2
     9    9   12 2
    10   10    7 1
    11   11    3 1
    12   12    4 1
    13   13    2 1
    14   14    5 1
    15   15    6 1
    16   16   11 1
    17   17   11 1
    18   18   10 1
    19   19    7 1
    20   20    7 1
@<TRIPOS>SUBSTRUCTURE
     1 RES1 1

@<TRIPOS>CRYSIN
  21.7870    4.7400   14.4230  90.0000  92.8900  90.0000  15 1

