# MOL2 file generated by ConQuest
# Please check atom types

@<TRIPOS>MOLECULE
NIWBEC
    65    69     1
SMALL
NO_CHARGES
****
Generated from CSD

@<TRIPOS>ATOM
      1 O1         3.8376    7.4645    3.4449 O.3       1 RES1    0.0000
      2 C1         5.1812    6.8631    3.6051 C.3       1 RES1    0.0000
      3 N1         2.8275    6.8213    4.1601 N.2       1 RES1    0.0000
      4 C2         5.5188    6.7959    5.1018 C.ar      1 RES1    0.0000
      5 C3         6.0253    7.8838    2.8688 C.ar      1 RES1    0.0000
      6 C4         5.2634    5.4917    2.9044 C.ar      1 RES1    0.0000
      7 C5         1.4019    8.7523    1.9287 C.2       1 RES1    0.0000
      8 C6         1.7264    7.5063    4.0953 C.2       1 RES1    0.0000
      9 O2         0.7345    5.6439    5.1746 O.3       1 RES1    0.0000
     10 C7         0.5486    6.8676    4.7393 C.2       1 RES1    0.0000
     11 N2         1.4541    8.0883   -0.2087 N.pl3     1 RES1    0.0000
     12 H1         1.6162    7.5973   -0.8964 H         1 RES1    0.0000
     13 C8         7.2432    8.3405    3.3640 C.ar      1 RES1    0.0000
     14 H2         7.5329    8.0539    4.2005 H         1 RES1    0.0000
     15 C9         5.6455    8.3121    1.6051 C.ar      1 RES1    0.0000
     16 H3         4.8443    8.0077    1.2411 H         1 RES1    0.0000
     17 C10        6.2373    5.7468    5.6471 C.ar      1 RES1    0.0000
     18 H4         6.4486    5.0082    5.1228 H         1 RES1    0.0000
     19 C11        5.2111    7.8749    5.9238 C.ar      1 RES1    0.0000
     20 H5         4.7314    8.5942    5.5807 H         1 RES1    0.0000
     21 C12        1.7321    7.7585    1.0971 C.2       1 RES1    0.0000
     22 H6         2.1010    6.9481    1.3673 H         1 RES1    0.0000
     23 C13        0.8542    9.8059    1.1116 C.ar      1 RES1    0.0000
     24 C14        0.8732    9.3373   -0.2298 C.ar      1 RES1    0.0000
     25 C15        5.5358    2.9667    1.7055 C.ar      1 RES1    0.0000
     26 H7         5.6320    2.1280    1.3171 H         1 RES1    0.0000
     27 C16        6.4380    9.1821    0.8754 C.ar      1 RES1    0.0000
     28 H8         6.1672    9.4612    0.0307 H         1 RES1    0.0000
     29 C17        1.5662    8.8165    3.4206 C.3       1 RES1    0.0000
     30 H9         2.3414    9.3627    3.6213 H         1 RES1    0.0000
     31 H10        0.7903    9.2627    3.7960 H         1 RES1    0.0000
     32 C18        6.3539    6.8616    7.7635 C.ar      1 RES1    0.0000
     33 H11        6.6553    6.8944    8.6438 H         1 RES1    0.0000
     34 C19        4.3308    3.3696    2.2087 C.ar      1 RES1    0.0000
     35 H12        3.5958    2.8040    2.1391 H         1 RES1    0.0000
     36 O3        -0.4753    7.4660    4.9028 O.2       1 RES1    0.0000
     37 C20        6.6404    5.7901    6.9674 C.ar      1 RES1    0.0000
     38 H13        7.1178    5.0738    7.3202 H         1 RES1    0.0000
     39 C21        8.0266    9.2075    2.6407 C.ar      1 RES1    0.0000
     40 H14        8.8334    9.5060    2.9951 H         1 RES1    0.0000
     41 C22        7.6310    9.6388    1.4029 C.ar      1 RES1    0.0000
     42 H15        8.1597   10.2327    0.9207 H         1 RES1    0.0000
     43 C23        6.4543    5.0738    2.3592 C.ar      1 RES1    0.0000
     44 H16        7.1832    5.6513    2.3753 H         1 RES1    0.0000
     45 C24        4.1838    4.6052    2.8219 C.ar      1 RES1    0.0000
     46 H17        3.3601    4.8470    3.1795 H         1 RES1    0.0000
     47 C25        0.3611   11.0997    1.3705 C.ar      1 RES1    0.0000
     48 H18        0.3430   11.4444    2.2346 H         1 RES1    0.0000
     49 C26        5.6116    7.8868    7.2377 C.ar      1 RES1    0.0000
     50 H19        5.3746    8.6031    7.7797 H         1 RES1    0.0000
     51 C27       -0.1153   11.3370   -1.0145 C.ar      1 RES1    0.0000
     52 H20       -0.4617   11.8593   -1.7022 H         1 RES1    0.0000
     53 C28        6.6048    3.8307    1.7880 C.ar      1 RES1    0.0000
     54 H21        7.4343    3.5726    1.4547 H         1 RES1    0.0000
     55 C29        0.3690   10.0924   -1.2896 C.ar      1 RES1    0.0000
     56 H22        0.3645    9.7567   -2.1569 H         1 RES1    0.0000
     57 C30       -0.0977   11.8369    0.2945 C.ar      1 RES1    0.0000
     58 H23       -0.4058   12.7010    0.4450 H         1 RES1    0.0000
     59 C31       -0.3564    4.9828    5.8849 C.3       1 RES1    0.0000
     60 H24        0.0066    4.4262    6.5920 H         1 RES1    0.0000
     61 H25       -0.9296    5.6513    6.2927 H         1 RES1    0.0000
     62 C32       -1.1257    4.1740    4.9869 C.3       1 RES1    0.0000
     63 H26       -1.5665    4.7381    4.3462 H         1 RES1    0.0000
     64 H27       -1.7824    3.6815    5.4837 H         1 RES1    0.0000
     65 H28       -0.5444    3.5636    4.5290 H         1 RES1    0.0000
@<TRIPOS>BOND
     1    1    2 1
     2    2    4 1
     3    3    1 1
     4    4   17 ar
     5    5    2 1
     6    6    2 1
     7    7   21 2
     8    8    3 2
     9    9   10 1
    10   10    8 1
    11   11   12 1
    12   13    5 ar
    13   14   13 1
    14   15    5 ar
    15   16   15 1
    16   17   18 1
    17   19    4 ar
    18   20   19 1
    19   21   11 1
    20   22   21 1
    21   23    7 1
    22   24   11 1
    23   25   26 1
    24   27   15 ar
    25   28   27 1
    26   29    7 1
    27   30   29 1
    28   31   29 1
    29   32   33 1
    30   34   25 ar
    31   35   34 1
    32   36   10 2
    33   37   17 ar
    34   38   37 1
    35   39   13 ar
    36   40   39 1
    37   41   27 ar
    38   42   41 1
    39   43    6 ar
    40   44   43 1
    41   45    6 ar
    42   46   45 1
    43   47   23 ar
    44   48   47 1
    45   49   19 ar
    46   50   49 1
    47   51   52 1
    48   53   25 ar
    49   54   53 1
    50   55   24 ar
    51   56   55 1
    52   57   47 ar
    53   58   57 1
    54   59    9 1
    55   60   59 1
    56   61   59 1
    57   62   59 1
    58   63   62 1
    59   64   62 1
    60   65   62 1
    61    8   29 1
    62   23   24 ar
    63   32   37 ar
    64   32   49 ar
    65   34   45 ar
    66   39   41 ar
    67   43   53 ar
    68   51   55 ar
    69   51   57 ar
@<TRIPOS>SUBSTRUCTURE
     1 RES1 1

@<TRIPOS>CRYSIN
  10.6370   14.9230   16.6590  90.0000 103.7620  90.0000 231 1

