# MOL2 file generated by ConQuest
# Please check atom types

@<TRIPOS>MOLECULE
NIYVUO
    42    43     1
SMALL
NO_CHARGES
****
Generated from CSD

@<TRIPOS>ATOM
      1 C1         1.6261    4.6371   -1.8755 C.ar      1 RES1    0.0000
      2 C2         2.5092    5.5782   -1.3376 C.ar      1 RES1    0.0000
      3 C3         3.4715    6.1347   -2.1867 C.ar      1 RES1    0.0000
      4 H1         4.0863    6.7430   -1.8473 H         1 RES1    0.0000
      5 C4         3.5204    5.7918   -3.5203 C.ar      1 RES1    0.0000
      6 H2         4.1725    6.1622   -4.0692 H         1 RES1    0.0000
      7 C5         2.6109    4.9036   -4.0430 C.ar      1 RES1    0.0000
      8 H3         2.6367    4.6900   -4.9475 H         1 RES1    0.0000
      9 C6         1.6536    4.3260   -3.2211 C.ar      1 RES1    0.0000
     10 H4         1.0331    3.7307   -3.5757 H         1 RES1    0.0000
     11 O1         0.7524    4.0724   -0.9821 O.3       1 RES1    0.0000
     12 C7        -0.0204    2.9703   -1.4424 C.3       1 RES1    0.0000
     13 H5        -0.4802    2.5707   -0.7010 H         1 RES1    0.0000
     14 H6         0.5590    2.3216   -1.8483 H         1 RES1    0.0000
     15 H7        -0.6601    3.2761   -2.0890 H         1 RES1    0.0000
     16 C8         2.4183    5.9317    0.1360 C.3       1 RES1    0.0000
     17 H8         1.4777    6.0587    0.3807 H         1 RES1    0.0000
     18 C9         3.0077    4.8033    0.9740 C.3       1 RES1    0.0000
     19 H9         2.8074    3.9588    0.5409 H         1 RES1    0.0000
     20 H10        3.9730    4.9020    0.9901 H         1 RES1    0.0000
     21 N1         2.5073    4.7470    2.3892 N.pl3     1 RES1    0.0000
     22 O2         3.2230    4.2338    3.2141 O.2       1 RES1    0.0000
     23 O3         1.3871    5.1527    2.6339 O.2       1 RES1    0.0000
     24 N2         3.1541    7.1829    0.3686 N.3       1 RES1    0.0000
     25 H11        3.4667    7.6652   -0.2720 H         1 RES1    0.0000
     26 N3         3.3052    7.5269    1.7254 N.am      1 RES1    0.0000
     27 H12        4.0652    7.3999    2.1071 H         1 RES1    0.0000
     28 C10        2.2899    8.0499    2.4446 C.2       1 RES1    0.0000
     29 O4         1.1694    8.1931    1.9752 O.2       1 RES1    0.0000
     30 C11        2.6042    8.4490    3.8506 C.ar      1 RES1    0.0000
     31 C12        3.6528    7.8981    4.5930 C.ar      1 RES1    0.0000
     32 H13        4.2201    7.2737    4.2032 H         1 RES1    0.0000
     33 C13        3.8462    8.2800    5.9014 C.ar      1 RES1    0.0000
     34 H14        4.5353    7.9079    6.4020 H         1 RES1    0.0000
     35 C14        3.0132    9.2167    6.4584 C.ar      1 RES1    0.0000
     36 C15        1.9795    9.7861    5.7533 C.ar      1 RES1    0.0000
     37 H15        1.4278   10.4235    6.1451 H         1 RES1    0.0000
     38 C16        1.7837    9.3833    4.4510 C.ar      1 RES1    0.0000
     39 H16        1.0812    9.7489    3.9635 H         1 RES1    0.0000
     40 N4         3.2066    9.6049    7.8534 N.pl3     1 RES1    0.0000
     41 O5         4.2151    9.2620    8.4275 O.2       1 RES1    0.0000
     42 O6         2.3347   10.2877    8.3822 O.2       1 RES1    0.0000
@<TRIPOS>BOND
     1    1    2 ar
     2    2    3 ar
     3    3    4 1
     4    5    3 ar
     5    6    5 1
     6    7    5 ar
     7    8    7 1
     8    9    1 ar
     9   10    9 1
    10   11    1 1
    11   12   11 1
    12   13   12 1
    13   14   12 1
    14   15   12 1
    15   16    2 1
    16   17   16 1
    17   18   16 1
    18   19   18 1
    19   20   18 1
    20   21   18 1
    21   22   21 2
    22   23   21 2
    23   24   16 1
    24   25   24 1
    25   26   24 1
    26   27   26 1
    27   28   26 1
    28   29   28 2
    29   30   28 1
    30   31   30 ar
    31   32   31 1
    32   33   31 ar
    33   34   33 1
    34   35   33 ar
    35   36   35 ar
    36   37   36 1
    37   38   30 ar
    38   39   38 1
    39   40   35 1
    40   41   40 2
    41   42   40 2
    42    7    9 ar
    43   36   38 ar
@<TRIPOS>SUBSTRUCTURE
     1 RES1 1

@<TRIPOS>CRYSIN
   5.0171   16.1781   10.3154  90.0000 102.4630  90.0000   4 1

