# MOL2 file generated by ConQuest
# Please check atom types

@<TRIPOS>MOLECULE
NIZCEE
    39    42     1
SMALL
NO_CHARGES
****
Generated from CSD

@<TRIPOS>ATOM
      1 O1        14.0011    5.8061    5.7650 O.2       1 RES1    0.0000
      2 O2        15.3637    7.1548    5.4830 O.2       1 RES1    0.0000
      3 O3        19.2850    6.5511    2.8534 O.2       1 RES1    0.0000
      4 O4        19.3742    4.8421    1.5571 O.2       1 RES1    0.0000
      5 N1        12.2239    2.8117    5.3678 N.ar      1 RES1    0.0000
      6 N2         9.8341    2.4938    6.6985 N.ar      1 RES1    0.0000
      7 N3        14.9773    6.1362    5.2195 N.pl3     1 RES1    0.0000
      8 N4        18.7915    5.5705    2.3105 N.pl3     1 RES1    0.0000
      9 C1         8.7050    2.3431    7.3619 C.ar      1 RES1    0.0000
     10 C2         8.4976    1.3729    8.3390 C.ar      1 RES1    0.0000
     11 C3         9.5251    0.5509    8.6727 C.ar      1 RES1    0.0000
     12 C4        10.7664    0.6964    8.0279 C.ar      1 RES1    0.0000
     13 C5        11.8838   -0.1195    8.3496 C.ar      1 RES1    0.0000
     14 C6        13.0621    0.0450    7.7088 C.ar      1 RES1    0.0000
     15 C7        13.2194    1.0481    6.6972 C.ar      1 RES1    0.0000
     16 C8        14.4456    1.2742    6.0457 C.ar      1 RES1    0.0000
     17 C9        14.5301    2.2365    5.0805 C.ar      1 RES1    0.0000
     18 C10       13.3930    2.9962    4.7640 C.ar      1 RES1    0.0000
     19 C11       12.1242    1.8649    6.3397 C.ar      1 RES1    0.0000
     20 C12       10.8640    1.6830    7.0149 C.ar      1 RES1    0.0000
     21 C13       13.4152    4.0633    3.7087 C.3       1 RES1    0.0000
     22 C14       14.8101    4.5398    3.3526 C.ar      1 RES1    0.0000
     23 C15       15.4400    4.0261    2.2483 C.ar      1 RES1    0.0000
     24 C16       16.7316    4.3119    1.9080 C.ar      1 RES1    0.0000
     25 C17       17.3935    5.2492    2.6627 C.ar      1 RES1    0.0000
     26 C18       16.8157    5.8780    3.7273 C.ar      1 RES1    0.0000
     27 C19       15.5246    5.4709    4.0623 C.ar      1 RES1    0.0000
     28 H1         7.9866    2.9321    7.1593 H         1 RES1    0.0000
     29 H2         7.6511    1.2880    8.7640 H         1 RES1    0.0000
     30 H3         9.4051   -0.1169    9.3360 H         1 RES1    0.0000
     31 H4        11.8001   -0.7856    9.0209 H         1 RES1    0.0000
     32 H5        13.7984   -0.5119    7.9312 H         1 RES1    0.0000
     33 H6        15.2108    0.7597    6.2748 H         1 RES1    0.0000
     34 H7        15.3480    2.3898    4.6263 H         1 RES1    0.0000
     35 H8        14.9478    3.4371    1.6855 H         1 RES1    0.0000
     36 H9        17.1575    3.8788    1.1771 H         1 RES1    0.0000
     37 H10       17.2703    6.5554    4.2132 H         1 RES1    0.0000
     38 H11       12.7903    4.8187    4.1311 H         1 RES1    0.0000
     39 H12       13.1181    3.6259    2.7514 H         1 RES1    0.0000
@<TRIPOS>BOND
     1    1    7 2
     2    2    7 2
     3    3    8 2
     4    4    8 2
     5    5   18 ar
     6    6    9 ar
     7    7   27 1
     8    8   25 1
     9    9   10 ar
    10   10   11 ar
    11   11   12 ar
    12   12   13 ar
    13   13   14 ar
    14   14   15 ar
    15   15   16 ar
    16   16   17 ar
    17   17   18 ar
    18   18   21 1
    19   19    5 ar
    20   20    6 ar
    21   21   22 1
    22   22   23 ar
    23   23   24 ar
    24   24   25 ar
    25   25   26 ar
    26   26   27 ar
    27   27   22 ar
    28   28    9 1
    29   29   10 1
    30   30   11 1
    31   31   13 1
    32   32   14 1
    33   33   16 1
    34   34   17 1
    35   35   23 1
    36   36   24 1
    37   37   26 1
    38   38   21 1
    39   39   21 1
    40   12   20 ar
    41   15   19 ar
    42   19   20 ar
@<TRIPOS>SUBSTRUCTURE
     1 RES1 1

@<TRIPOS>CRYSIN
  27.4940    8.6620   15.5810  90.0000 121.8100  90.0000  15 1

