# MOL2 file generated by ConQuest
# Please check atom types

@<TRIPOS>MOLECULE
NIZCAA
    31    32     1
SMALL
NO_CHARGES
****
Generated from CSD

@<TRIPOS>ATOM
      1 C1         0.8674    2.8947    3.8265 C.ar      1 RES1    0.0000
      2 C2         2.0825    2.2129    3.8856 C.ar      1 RES1    0.0000
      3 C3         3.2077    2.7252    4.4814 C.ar      1 RES1    0.0000
      4 C4         3.1059    3.9489    5.0933 C.ar      1 RES1    0.0000
      5 C5         1.9408    4.6721    5.0832 C.ar      1 RES1    0.0000
      6 C6         0.8378    4.1479    4.4308 C.ar      1 RES1    0.0000
      7 N1         2.2182    0.8532    3.3379 N.pl3     1 RES1    0.0000
      8 O1         3.2742    0.5677    2.7918 O.2       1 RES1    0.0000
      9 O2         1.2969    0.0788    3.5050 O.2       1 RES1    0.0000
     10 N2         4.2891    4.4868    5.7710 N.pl3     1 RES1    0.0000
     11 O3         4.1284    5.4681    6.4748 O.2       1 RES1    0.0000
     12 O4         5.3660    3.9725    5.5921 O.2       1 RES1    0.0000
     13 C7        -0.3789    2.3863    3.1421 C.3       1 RES1    0.0000
     14 C8        -0.2486    2.1183    1.6618 C.ar      1 RES1    0.0000
     15 N3         0.9792    2.1183    1.1385 N.ar      1 RES1    0.0000
     16 C9         1.1221    1.8483   -0.1705 C.ar      1 RES1    0.0000
     17 C10        0.0394    1.6060   -0.9790 C.ar      1 RES1    0.0000
     18 C11       -1.2206    1.6060   -0.4346 C.ar      1 RES1    0.0000
     19 C12       -1.3755    1.8680    0.9089 C.ar      1 RES1    0.0000
     20 C13        2.5274    1.8010   -0.6811 C.3       1 RES1    0.0000
     21 H1         4.0295    2.2483    4.4704 H         1 RES1    0.0000
     22 H2         1.8911    5.5154    5.5153 H         1 RES1    0.0000
     23 H3         0.0371    4.6583    4.3945 H         1 RES1    0.0000
     24 H4         0.1617    1.4385   -1.9065 H         1 RES1    0.0000
     25 H5        -1.9773    1.4266   -0.9790 H         1 RES1    0.0000
     26 H6        -2.2375    1.8759    1.3056 H         1 RES1    0.0000
     27 H7         3.1285    1.9941    0.0279 H         1 RES1    0.0000
     28 H8         2.7111    0.9320   -1.0229 H         1 RES1    0.0000
     29 H9         2.6346    2.4414   -1.3723 H         1 RES1    0.0000
     30 H10       -1.0584    3.1016    3.2374 H         1 RES1    0.0000
     31 H11       -0.6512    1.5311    3.5379 H         1 RES1    0.0000
@<TRIPOS>BOND
     1    1    2 ar
     2    2    3 ar
     3    3    4 ar
     4    4    5 ar
     5    5    6 ar
     6    6    1 ar
     7    7    2 1
     8    8    7 2
     9    9    7 2
    10   10    4 1
    11   11   10 2
    12   12   10 2
    13   13    1 1
    14   14   13 1
    15   15   14 ar
    16   16   15 ar
    17   17   16 ar
    18   18   17 ar
    19   19   14 ar
    20   20   16 1
    21   21    3 1
    22   22    5 1
    23   23    6 1
    24   24   17 1
    25   25   18 1
    26   26   19 1
    27   27   20 1
    28   28   20 1
    29   29   20 1
    30   30   13 1
    31   31   13 1
    32   18   19 ar
@<TRIPOS>SUBSTRUCTURE
     1 RES1 1

@<TRIPOS>CRYSIN
   7.6770   19.7050    8.4870  90.0000  96.0600  90.0000  14 1

