# MOL2 file generated by ConQuest
# Please check atom types

@<TRIPOS>MOLECULE
NIZREU
    39    40     1
SMALL
NO_CHARGES
****
Generated from CSD

@<TRIPOS>ATOM
      1 O1         0.6769   15.4186    2.9208 O.2       1 RES1    0.0000
      2 O2         0.6367   13.4006    2.1237 O.2       1 RES1    0.0000
      3 O3         1.0334   10.7772    8.4089 O.3       1 RES1    0.0000
      4 H1         0.9762   10.5093    9.2015 H         1 RES1    0.0000
      5 O4         1.0048   10.8953   10.8508 O.2       1 RES1    0.0000
      6 N1         0.6803   14.2007    3.0595 N.pl3     1 RES1    0.0000
      7 N2         0.5256   14.8279   15.8244 N.3       1 RES1    0.0000
      8 C1         0.7458   13.6478    4.4401 C.ar      1 RES1    0.0000
      9 C2         0.8276   12.2862    4.6143 C.ar      1 RES1    0.0000
     10 H2         0.8664   11.7004    3.8670 H         1 RES1    0.0000
     11 C3         0.8501   11.7917    5.9079 C.ar      1 RES1    0.0000
     12 H3         0.8664   10.8527    6.0543 H         1 RES1    0.0000
     13 C4         0.8501   12.6698    7.0086 C.ar      1 RES1    0.0000
     14 C5         0.7880   14.0363    6.7867 C.ar      1 RES1    0.0000
     15 H4         0.7819   14.6319    7.5253 H         1 RES1    0.0000
     16 C6         0.7342   14.5466    5.4965 C.ar      1 RES1    0.0000
     17 H5         0.6912   15.4832    5.3414 H         1 RES1    0.0000
     18 C7         0.9019   12.0730    8.3783 C.2       1 RES1    0.0000
     19 C8         0.8208   12.8257    9.5370 C.2       1 RES1    0.0000
     20 H6         0.7253   13.7696    9.4866 H         1 RES1    0.0000
     21 C9         0.8814   12.1814   10.8042 C.2       1 RES1    0.0000
     22 C10        0.7894   12.9097   12.0666 C.ar      1 RES1    0.0000
     23 C11        0.6933   12.1717   13.2667 C.ar      1 RES1    0.0000
     24 H7         0.7008   11.2229   13.2284 H         1 RES1    0.0000
     25 C12        0.5869   12.8001   14.5019 C.ar      1 RES1    0.0000
     26 H8         0.5004   12.2752   15.2906 H         1 RES1    0.0000
     27 C13        0.6053   14.1983   14.6024 C.ar      1 RES1    0.0000
     28 C14        0.7076   14.9388   13.3925 C.ar      1 RES1    0.0000
     29 H9         0.7151   15.8887   13.4231 H         1 RES1    0.0000
     30 C15        0.7976   14.2860   12.1667 C.ar      1 RES1    0.0000
     31 H10        0.8664   14.8048   11.3749 H         1 RES1    0.0000
     32 C16        0.2918   14.0229   17.0290 C.3       1 RES1    0.0000
     33 H11       -0.5767   13.5747   16.9598 H         1 RES1    0.0000
     34 H12        0.2952   14.6051   17.8187 H         1 RES1    0.0000
     35 H13        1.0000   13.3518   17.1163 H         1 RES1    0.0000
     36 C17        0.3320   16.2626   15.9148 C.3       1 RES1    0.0000
     37 H14        1.0307   16.7205   15.4018 H         1 RES1    0.0000
     38 H15        0.3811   16.5403   16.8520 H         1 RES1    0.0000
     39 H16       -0.5474   16.4977   15.5514 H         1 RES1    0.0000
@<TRIPOS>BOND
     1    1    6 2
     2    2    6 2
     3    3    4 1
     4    5   21 2
     5    6    8 1
     6    7   27 1
     7    8    9 ar
     8    9   10 1
     9   11    9 ar
    10   12   11 1
    11   13   11 ar
    12   14   13 ar
    13   15   14 1
    14   16    8 ar
    15   17   16 1
    16   18    3 1
    17   19   18 2
    18   20   19 1
    19   21   19 1
    20   22   21 1
    21   23   22 ar
    22   24   23 1
    23   25   23 ar
    24   26   25 1
    25   27   25 ar
    26   28   27 ar
    27   29   28 1
    28   30   22 ar
    29   31   30 1
    30   32    7 1
    31   33   32 1
    32   34   32 1
    33   35   32 1
    34   36    7 1
    35   37   36 1
    36   38   36 1
    37   39   36 1
    38   13   18 1
    39   14   16 ar
    40   28   30 ar
@<TRIPOS>SUBSTRUCTURE
     1 RES1 1

@<TRIPOS>CRYSIN
   6.8169   12.1790   34.7750  90.0000  90.0000  90.0000  61 1

