# MOL2 file generated by ConQuest
# Please check atom types

@<TRIPOS>MOLECULE
NIZWID
    33    34     1
SMALL
NO_CHARGES
****
Generated from CSD

@<TRIPOS>ATOM
      1 O1         2.0265   14.5111   12.2648 O.2       1 RES1    0.0000
      2 O2         3.3835   15.0073   13.8381 O.2       1 RES1    0.0000
      3 O3         3.8600   16.9547   11.2404 O.3       1 RES1    0.0000
      4 O4         7.6808   11.6075   10.8662 O.2       1 RES1    0.0000
      5 N1         3.1334   14.7421   12.6792 N.pl3     1 RES1    0.0000
      6 C1         4.6769   12.2811   12.4247 C.ar      1 RES1    0.0000
      7 C2         5.0280   11.5936   13.5685 C.ar      1 RES1    0.0000
      8 H1         5.6185   11.9810   14.1736 H         1 RES1    0.0000
      9 C3         4.5132   10.3381   13.8300 C.ar      1 RES1    0.0000
     10 H2         4.7690    9.8836   14.6005 H         1 RES1    0.0000
     11 C4         3.6319    9.7630   12.9609 C.ar      1 RES1    0.0000
     12 H3         3.2808    8.9213   13.1414 H         1 RES1    0.0000
     13 C5         3.2686   10.4321   11.8235 C.ar      1 RES1    0.0000
     14 H4         2.6667   10.0437   11.2307 H         1 RES1    0.0000
     15 C6         3.7907   11.6807   11.5491 C.ar      1 RES1    0.0000
     16 H5         3.5447   12.1219   10.7677 H         1 RES1    0.0000
     17 C7         5.2845   13.6431   12.1546 C.3       1 RES1    0.0000
     18 H6         5.6845   13.9552   12.9934 H         1 RES1    0.0000
     19 C8         4.2811   14.6930   11.7140 C.3       1 RES1    0.0000
     20 H7         3.9357   14.4419   10.8323 H         1 RES1    0.0000
     21 C9         4.9017   16.0738   11.6134 C.3       1 RES1    0.0000
     22 H8         5.2463   16.3360   12.4925 H         1 RES1    0.0000
     23 C10        6.0420   16.0467   10.6211 C.3       1 RES1    0.0000
     24 H9         6.4778   16.9124   10.6122 H         1 RES1    0.0000
     25 H10        5.6885   15.8813    9.7337 H         1 RES1    0.0000
     26 C11        7.0626   14.9764   10.9598 C.3       1 RES1    0.0000
     27 H11        7.5065   15.2072   11.7904 H         1 RES1    0.0000
     28 H12        7.7346   14.9415   10.2611 H         1 RES1    0.0000
     29 C12        6.4061   13.5994   11.1013 C.3       1 RES1    0.0000
     30 H13        6.0209   13.3420   10.2384 H         1 RES1    0.0000
     31 C13        7.4210   12.5838   11.4982 C.2       1 RES1    0.0000
     32 H14        7.8836   12.7207   12.2933 H         1 RES1    0.0000
     33 H15        4.1703   17.7978   11.1985 H         1 RES1    0.0000
@<TRIPOS>BOND
     1    1    5 2
     2    2    5 2
     3    3   21 1
     4    4   31 2
     5    5   19 1
     6    6    7 ar
     7    7    8 1
     8    9    7 ar
     9   10    9 1
    10   11    9 ar
    11   12   11 1
    12   13   11 ar
    13   14   13 1
    14   15    6 ar
    15   16   15 1
    16   17    6 1
    17   18   17 1
    18   19   17 1
    19   20   19 1
    20   21   19 1
    21   22   21 1
    22   23   21 1
    23   24   23 1
    24   25   23 1
    25   26   23 1
    26   27   26 1
    27   28   26 1
    28   29   17 1
    29   30   29 1
    30   31   29 1
    31   32   31 1
    32   33    3 1
    33   13   15 ar
    34   26   29 1
@<TRIPOS>SUBSTRUCTURE
     1 RES1 1

@<TRIPOS>CRYSIN
   8.1451   16.0110   18.9740  90.0000  90.0000  90.0000  61 1

