# MOL2 file generated by ConQuest
# Please check atom types

@<TRIPOS>MOLECULE
NIZYIF
    60    59     2
SMALL
NO_CHARGES
****
Generated from CSD

@<TRIPOS>ATOM
      1 C1         0.0209   -1.0856   12.9212 C.3       1 RES1    0.0000
      2 H1        -0.7624   -0.5524   13.2408 H         1 RES1    0.0000
      3 C2         1.2777   -0.4935   13.5777 C.3       1 RES1    0.0000
      4 H2         2.0576   -1.0382   13.3410 H         1 RES1    0.0000
      5 H3         1.1664   -0.4872   14.5509 H         1 RES1    0.0000
      6 H4         1.4119    0.4225   13.2582 H         1 RES1    0.0000
      7 C3         0.0729   -0.9531   11.4092 C.ar      1 RES1    0.0000
      8 C4        -0.9461   -0.2896   10.7251 C.ar      1 RES1    0.0000
      9 H5        -1.6970    0.0356   11.2073 H         1 RES1    0.0000
     10 C5        -0.8825   -0.0978    9.3568 C.ar      1 RES1    0.0000
     11 H6        -1.5840    0.3625    8.9095 H         1 RES1    0.0000
     12 C6         0.2026   -0.5741    8.6379 C.ar      1 RES1    0.0000
     13 H7         0.2526   -0.4354    7.6996 H         1 RES1    0.0000
     14 C7         1.2113   -1.2540    9.2973 C.ar      1 RES1    0.0000
     15 H8         1.9552   -1.5844    8.8064 H         1 RES1    0.0000
     16 C8         1.1457   -1.4563   10.6728 C.ar      1 RES1    0.0000
     17 H9         1.8347   -1.9402   11.1129 H         1 RES1    0.0000
     18 C9        -0.2100   -2.5423   13.3482 C.3       1 RES1    0.0000
     19 H10        0.5655   -3.1100   13.0723 H         1 RES1    0.0000
     20 C10       -1.5100   -3.1428   12.8341 C.3       1 RES1    0.0000
     21 H11       -1.7342   -2.7210   11.9669 H         1 RES1    0.0000
     22 H12       -2.2361   -2.9245   13.4702 H         1 RES1    0.0000
     23 C11       -1.4594   -4.6649   12.6438 C.3       1 RES1    0.0000
     24 C12       -2.8716   -5.2094   12.4187 C.3       1 RES1    0.0000
     25 H13       -2.8416   -6.1867   12.3765 H         1 RES1    0.0000
     26 H14       -3.2262   -4.8567   11.5748 H         1 RES1    0.0000
     27 H15       -3.4513   -4.9301   13.1580 H         1 RES1    0.0000
     28 C13       -0.4919   -5.0643   11.5443 C.2       1 RES1    0.0000
     29 H16        0.2277   -5.6193   11.8202 H         1 RES1    0.0000
     30 C14       -0.5044   -4.7483   10.2458 C.2       1 RES1    0.0000
     31 C15       -1.5392   -3.9312    9.5239 C.3       1 RES1    0.0000
     32 H17       -2.2453   -3.6701   10.1513 H         1 RES1    0.0000
     33 H18       -1.9274   -4.4627    8.7976 H         1 RES1    0.0000
     34 H19       -1.1197   -3.1263    9.1520 H         1 RES1    0.0000
     35 C16        0.6201   -5.2057    9.3409 C.3       1 RES1    0.0000
     36 H20        1.2392   -5.7703    9.8507 H         1 RES1    0.0000
     37 H21        1.0987   -4.4244    8.9952 H         1 RES1    0.0000
     38 H22        0.2490   -5.7199    8.5943 H         1 RES1    0.0000
     39 C17        0.5597   -3.1751   15.5415 C.2       1 RES1    0.0000
     40 C18        0.2001   -3.0883   17.0070 C.ar      1 RES1    0.0000
     41 C19        1.0756   -3.6643   17.9163 C.ar      1 RES1    0.0000
     42 H23        1.8663   -4.0995   17.6200 H         1 RES1    0.0000
     43 C20        0.7733   -3.5907   19.2642 C.ar      1 RES1    0.0000
     44 C21       -0.3640   -2.9705   19.7493 C.ar      1 RES1    0.0000
     45 H24       -0.5625   -2.9392   20.6774 H         1 RES1    0.0000
     46 C22       -1.2000   -2.3967   18.7994 C.ar      1 RES1    0.0000
     47 C23       -0.9516   -2.4490   17.4399 C.ar      1 RES1    0.0000
     48 H25       -1.5551   -2.0575   16.8197 H         1 RES1    0.0000
     49 N1        -2.4129   -1.6954   19.2598 N.pl3     1 RES1    0.0000
     50 N2         1.7054   -4.2091   20.2118 N.pl3     1 RES1    0.0000
     51 O1        -0.9606   -5.1656   13.8995 O.3       1 RES1    0.0000
     52 H26       -1.0215   -6.0030   13.9103 H         1 RES1    0.0000
     53 O2        -0.3183   -2.5111   14.8109 O.3       1 RES1    0.0000
     54 O3         1.5366   -3.7592   15.1525 O.2       1 RES1    0.0000
     55 O4        -3.1034   -1.1585   18.4110 O.2       1 RES1    0.0000
     56 H27       -3.7643   -0.7923   18.7790 Du        2 SUP2    0.0000
     57 O5        -2.6602   -1.7025   20.4543 O.2       1 RES1    0.0000
     58 O6         1.3818   -4.2152   21.3979 O.2       1 RES1    0.0000
     59 O7         2.7470   -4.6743   19.7772 O.2       1 RES1    0.0000
     60 H28        2.8885   -5.4231   20.1298 Du        2 SUP2    0.0000
@<TRIPOS>BOND
     1    1    2 1
     2    3    1 1
     3    4    3 1
     4    5    3 1
     5    6    3 1
     6    7    1 1
     7    8    7 ar
     8    9    8 1
     9   10    8 ar
    10   11   10 1
    11   12   10 ar
    12   13   12 1
    13   14   12 ar
    14   15   14 1
    15   16    7 ar
    16   17   16 1
    17   18    1 1
    18   19   18 1
    19   20   18 1
    20   21   20 1
    21   22   20 1
    22   23   20 1
    23   24   23 1
    24   25   24 1
    25   26   24 1
    26   27   24 1
    27   28   23 1
    28   29   28 1
    29   30   28 2
    30   31   30 1
    31   32   31 1
    32   33   31 1
    33   34   31 1
    34   35   30 1
    35   36   35 1
    36   37   35 1
    37   38   35 1
    38   39   40 1
    39   40   41 ar
    40   41   42 1
    41   43   41 ar
    42   44   43 ar
    43   45   44 1
    44   46   44 ar
    45   47   40 ar
    46   48   47 1
    47   49   46 1
    48   50   43 1
    49   51   23 1
    50   52   51 1
    51   53   18 1
    52   54   39 2
    53   55   49 2
    54   57   49 2
    55   58   50 2
    56   59   50 2
    57   14   16 ar
    58   39   53 1
    59   46   47 ar
@<TRIPOS>SUBSTRUCTURE
     1 RES1 1
     2 SUP2 56

@<TRIPOS>CRYSIN
   5.9705   12.7000   15.9890 111.1410 100.4210  94.7400   2 1

