# MOL2 file generated by ConQuest
# Please check atom types

@<TRIPOS>MOLECULE
NMALAM
    15    14     1
SMALL
NO_CHARGES
****
Generated from CSD

@<TRIPOS>ATOM
      1 O1         1.5061    1.0955    3.4980 O.3       1 RES1    0.0000
      2 O2         3.2406    1.9796    4.8732 O.2       1 RES1    0.0000
      3 O3         2.3068    4.0280    0.8242 O.2       1 RES1    0.0000
      4 O4         3.9227    4.7876    2.0346 O.2       1 RES1    0.0000
      5 N1         0.9634    1.9259    1.5153 N.3       1 RES1    0.0000
      6 N2         2.9981    3.9673    1.8585 N.pl3     1 RES1    0.0000
      7 N3         4.4664    3.7810    4.3470 N.am      1 RES1    0.0000
      8 C1         1.7026    1.9987    2.5811 C.2       1 RES1    0.0000
      9 C2         2.7435    2.9777    2.8092 C.2       1 RES1    0.0000
     10 C3         3.5098    2.9195    4.0467 C.2       1 RES1    0.0000
     11 H1         2.1737    1.2602    4.2454 H         1 RES1    0.0000
     12 H2         0.3292    1.2602    1.3775 H         1 RES1    0.0000
     13 H3         1.0457    2.4952    0.9484 H         1 RES1    0.0000
     14 H4         4.7346    4.4533    3.7260 H         1 RES1    0.0000
     15 H5         4.9670    3.6550    5.0358 H         1 RES1    0.0000
@<TRIPOS>BOND
     1    1    8 1
     2    2   10 2
     3    3    6 2
     4    4    6 2
     5    5    8 1
     6    6    9 1
     7    7   10 1
     8    8    9 2
     9    9   10 1
    10   11    1 1
    11   12    5 1
    12   13    5 1
    13   14    7 1
    14   15    7 1
@<TRIPOS>SUBSTRUCTURE
     1 RES1 1

@<TRIPOS>CRYSIN
   4.8411    5.0206   22.5820  90.0000  90.0000  90.0000  19 1

