# MOL2 file generated by ConQuest
# Please check atom types

@<TRIPOS>MOLECULE
NMBYAN22
    28    29     1
SMALL
NO_CHARGES
****
Generated from CSD

@<TRIPOS>ATOM
      1 O1         1.8504    3.6098    4.0244 O.2       1 RES1    0.0000
      2 O2         0.6367    4.6493    5.4779 O.2       1 RES1    0.0000
      3 N1         0.8154    3.7590    4.6303 N.pl3     1 RES1    0.0000
      4 N2        -3.5963   -0.5521    2.3840 N.2       1 RES1    0.0000
      5 C1        -3.5336    0.1632    3.4254 C.2       1 RES1    0.0000
      6 C2        -2.3865    1.0638    3.7500 C.ar      1 RES1    0.0000
      7 C3        -2.4283    1.9225    4.8615 C.ar      1 RES1    0.0000
      8 C4        -1.3874    2.8106    5.1533 C.ar      1 RES1    0.0000
      9 C5        -0.2845    2.7981    4.3221 C.ar      1 RES1    0.0000
     10 C6        -0.1899    1.9571    3.2118 C.ar      1 RES1    0.0000
     11 C7        -1.2490    1.0800    2.9269 C.ar      1 RES1    0.0000
     12 C8        -4.7468   -1.3726    2.0980 C.ar      1 RES1    0.0000
     13 C9        -5.9275   -1.3608    2.8300 C.ar      1 RES1    0.0000
     14 C10       -6.9826   -2.1754    2.4518 C.ar      1 RES1    0.0000
     15 C11       -6.9022   -3.0576    1.3473 C.ar      1 RES1    0.0000
     16 C12       -5.7264   -3.0782    0.6199 C.ar      1 RES1    0.0000
     17 C13       -4.6490   -2.2555    0.9854 C.ar      1 RES1    0.0000
     18 C14       -8.0841   -3.9648    0.9375 C.3       1 RES1    0.0000
     19 H1        -4.2622    0.2279    4.0279 H         1 RES1    0.0000
     20 H2        -3.2647    1.9335    5.4756 H         1 RES1    0.0000
     21 H3        -1.4353    3.4260    5.9309 H         1 RES1    0.0000
     22 H4         0.7013    1.8600    2.7320 H         1 RES1    0.0000
     23 H5        -1.0727    0.2794    2.2299 H         1 RES1    0.0000
     24 H6        -6.0790   -0.6837    3.4792 H         1 RES1    0.0000
     25 H7        -7.8453   -2.2056    3.1289 H         1 RES1    0.0000
     26 H8        -5.5497   -3.7788   -0.0701 H         1 RES1    0.0000
     27 H9        -3.8423   -2.3379    0.4670 H         1 RES1    0.0000
     28 H10       -8.9502   -3.5656    1.3777 H         1 RES1    0.0000
@<TRIPOS>BOND
     1    1    3 2
     2    2    3 2
     3    3    9 1
     4    4    5 2
     5    5    6 1
     6    6    7 ar
     7    7    8 ar
     8    8    9 ar
     9    9   10 ar
    10   10   11 ar
    11   11    6 ar
    12   12    4 1
    13   13   12 ar
    14   14   13 ar
    15   15   14 ar
    16   16   15 ar
    17   17   12 ar
    18   18   15 1
    19   19    5 1
    20   20    7 1
    21   21    8 1
    22   22   10 1
    23   23   11 1
    24   24   13 1
    25   25   14 1
    26   26   16 1
    27   27   17 1
    28   28   18 1
    29   16   17 ar
@<TRIPOS>SUBSTRUCTURE
     1 RES1 1

@<TRIPOS>CRYSIN
   7.4450    7.8530   11.6750  90.0000  90.0000 110.5800   7 3

