# MOL2 file generated by ConQuest
# Please check atom types

@<TRIPOS>MOLECULE
NMBYAN01
    30    31     1
SMALL
NO_CHARGES
****
Generated from CSD

@<TRIPOS>ATOM
      1 O1         6.9382   11.1099    4.2517 O.2       1 RES1    0.0000
      2 O2         8.1702    9.7064    3.1721 O.2       1 RES1    0.0000
      3 N1         2.6152    8.1028   -0.7525 N.2       1 RES1    0.0000
      4 N2         7.1183   10.2915    3.3472 N.pl3     1 RES1    0.0000
      5 C1         3.8082   10.5639    1.6556 C.ar      1 RES1    0.0000
      6 H1         2.9347   11.1950    1.6753 H         1 RES1    0.0000
      7 C2         3.8514    9.4535    0.8029 C.ar      1 RES1    0.0000
      8 C3         4.9920    8.6385    0.7797 C.ar      1 RES1    0.0000
      9 H2         5.0101    7.7810    0.1193 H         1 RES1    0.0000
     10 C4         6.0776    8.9155    1.5969 C.ar      1 RES1    0.0000
     11 H3         6.9618    8.2810    1.6004 H         1 RES1    0.0000
     12 C5         5.9981   10.0133    2.4469 C.ar      1 RES1    0.0000
     13 C6         4.8870   10.8455    2.4960 C.ar      1 RES1    0.0000
     14 H4         4.8505   11.6916    3.1891 H         1 RES1    0.0000
     15 C7         2.6727    9.1523   -0.0239 C.2       1 RES1    0.0000
     16 H5         1.8562    9.8754    0.0450 H         1 RES1    0.0000
     17 C8         1.4564    7.8120   -1.5206 C.ar      1 RES1    0.0000
     18 C9         0.2652    8.5408   -1.4906 C.ar      1 RES1    0.0000
     19 H6         0.1650    9.4179   -0.8499 H         1 RES1    0.0000
     20 C10       -0.8191    8.1649   -2.2813 C.ar      1 RES1    0.0000
     21 H7        -1.7493    8.7385   -2.2499 H         1 RES1    0.0000
     22 C11       -0.7518    7.0476   -3.1237 C.ar      1 RES1    0.0000
     23 C12        0.4497    6.3245   -3.1557 C.ar      1 RES1    0.0000
     24 H8         0.5451    5.4705   -3.8257 H         1 RES1    0.0000
     25 C13        1.5342    6.6935   -2.3678 C.ar      1 RES1    0.0000
     26 H9         2.4688    6.1337   -2.4012 H         1 RES1    0.0000
     27 C14       -1.9212    6.6545   -3.9804 C.3       1 RES1    0.0000
     28 H10       -2.2684    5.6532   -3.7739 H         1 RES1    0.0000
     29 H11       -1.6661    6.6682   -5.0430 H         1 RES1    0.0000
     30 H12       -2.7592    7.3338   -3.8680 H         1 RES1    0.0000
@<TRIPOS>BOND
     1    1    4 2
     2    2    4 2
     3    3   15 2
     4    4   12 1
     5    5    6 1
     6    7    5 ar
     7    8    7 ar
     8    9    8 1
     9   10    8 ar
    10   11   10 1
    11   12   10 ar
    12   13    5 ar
    13   14   13 1
    14   15    7 1
    15   16   15 1
    16   17    3 1
    17   18   17 ar
    18   19   18 1
    19   20   18 ar
    20   21   20 1
    21   22   20 ar
    22   23   22 ar
    23   24   23 1
    24   25   17 ar
    25   26   25 1
    26   27   22 1
    27   28   27 1
    28   29   27 1
    29   30   27 1
    30   12   13 ar
    31   23   25 ar
@<TRIPOS>SUBSTRUCTURE
     1 RES1 1

@<TRIPOS>CRYSIN
   7.3050   11.4950    7.2400  90.0000 109.7100  90.0000   7 1

