# MOL2 file generated by ConQuest
# Please check atom types

@<TRIPOS>MOLECULE
NMBZYA01
    31    32     1
SMALL
NO_CHARGES
****
Generated from CSD

@<TRIPOS>ATOM
      1 N1         3.7857    1.7385   12.4186 N.2       1 RES1    0.0000
      2 N2         7.9276    1.5451   17.3765 N.pl3     1 RES1    0.0000
      3 O1         7.4448    0.9124   18.2930 O.2       1 RES1    0.0000
      4 O2         9.0202    2.0741   17.4502 O.2       1 RES1    0.0000
      5 O3         1.2841    2.3386    7.4818 O.3       1 RES1    0.0000
      6 C1         5.7410    1.9159   13.8025 C.ar      1 RES1    0.0000
      7 C2         6.9371    2.6017   13.9675 C.ar      1 RES1    0.0000
      8 C3         7.6603    2.4895   15.1342 C.ar      1 RES1    0.0000
      9 C4         7.1719    1.6687   16.1254 C.ar      1 RES1    0.0000
     10 C5         5.9927    0.9643   15.9938 C.ar      1 RES1    0.0000
     11 C6         5.2793    1.0843   14.8207 C.ar      1 RES1    0.0000
     12 C7         4.9978    2.0828   12.5483 C.2       1 RES1    0.0000
     13 C8         3.1686    1.9102   11.1530 C.ar      1 RES1    0.0000
     14 C9         1.8249    2.2509   11.1196 C.ar      1 RES1    0.0000
     15 C10        1.1648    2.4228    9.9140 C.ar      1 RES1    0.0000
     16 C11        1.8417    2.2369    8.7254 C.ar      1 RES1    0.0000
     17 C12        3.1864    1.8838    8.7462 C.ar      1 RES1    0.0000
     18 C13        3.8388    1.7196    9.9478 C.ar      1 RES1    0.0000
     19 C14       -0.0846    2.6720    7.3861 C.3       1 RES1    0.0000
     20 H1         7.2603    3.1669   13.2760 H         1 RES1    0.0000
     21 H2         8.4843    2.9965   15.2611 H         1 RES1    0.0000
     22 H3         5.6889    0.3692   16.6825 H         1 RES1    0.0000
     23 H4         4.4703    0.5539   14.6851 H         1 RES1    0.0000
     24 H5         5.4905    2.5349   11.8545 H         1 RES1    0.0000
     25 H6         1.3454    2.3503   11.9735 H         1 RES1    0.0000
     26 H7         0.2370    2.6344    9.9447 H         1 RES1    0.0000
     27 H8         3.6345    1.7468    7.9336 H         1 RES1    0.0000
     28 H9         4.7621    1.4201    9.9515 H         1 RES1    0.0000
     29 H10       -0.2929    3.5575    7.8036 H         1 RES1    0.0000
     30 H11       -0.2496    2.6983    6.4177 H         1 RES1    0.0000
     31 H12       -0.6231    2.0024    7.8501 H         1 RES1    0.0000
@<TRIPOS>BOND
     1    1   12 2
     2    2    3 2
     3    4    2 2
     4    5   16 1
     5    6    7 ar
     6    7    8 ar
     7    8    9 ar
     8    9    2 1
     9   10    9 ar
    10   11    6 ar
    11   12    6 1
    12   13    1 1
    13   14   13 ar
    14   15   14 ar
    15   16   15 ar
    16   17   16 ar
    17   18   13 ar
    18   19    5 1
    19   20    7 1
    20   21    8 1
    21   22   10 1
    22   23   11 1
    23   24   12 1
    24   25   14 1
    25   26   15 1
    26   27   17 1
    27   28   18 1
    28   29   19 1
    29   30   19 1
    30   31   19 1
    31   10   11 ar
    32   17   18 ar
@<TRIPOS>SUBSTRUCTURE
     1 RES1 1

@<TRIPOS>CRYSIN
  12.8889    7.1007   14.0304  90.0000 102.8150  90.0000  14 1

