# MOL2 file generated by ConQuest
# Please check atom types

@<TRIPOS>MOLECULE
NMBZYA02
    31    32     1
SMALL
NO_CHARGES
****
Generated from CSD

@<TRIPOS>ATOM
      1 N1         3.7906    1.7052   12.4086 N.2       1 RES1    0.0000
      2 N2         7.9612    1.5597   17.3694 N.pl3     1 RES1    0.0000
      3 O1         7.4579    0.9514   18.3112 O.2       1 RES1    0.0000
      4 O2         9.0732    2.0911   17.4298 O.2       1 RES1    0.0000
      5 O3         1.3229    2.3201    7.4396 O.3       1 RES1    0.0000
      6 C1         5.7606    1.8897   13.7870 C.ar      1 RES1    0.0000
      7 C2         6.9620    2.5896   13.9411 C.ar      1 RES1    0.0000
      8 C3         7.6991    2.4892   15.1136 C.ar      1 RES1    0.0000
      9 C4         7.2052    1.6675   16.1177 C.ar      1 RES1    0.0000
     10 C5         6.0201    0.9481   15.9967 C.ar      1 RES1    0.0000
     11 C6         5.2993    1.0579   14.8183 C.ar      1 RES1    0.0000
     12 C7         5.0172    2.0531   12.5303 C.2       1 RES1    0.0000
     13 C8         3.1818    1.8770   11.1385 C.ar      1 RES1    0.0000
     14 C9         1.8275    2.2103   11.1002 C.ar      1 RES1    0.0000
     15 C10        1.1685    2.3897    9.8815 C.ar      1 RES1    0.0000
     16 C11        1.8693    2.2137    8.6890 C.ar      1 RES1    0.0000
     17 C12        3.2241    1.8626    8.7151 C.ar      1 RES1    0.0000
     18 C13        3.8702    1.6917    9.9277 C.ar      1 RES1    0.0000
     19 C14       -0.0600    2.6520    7.3472 C.3       1 RES1    0.0000
     20 H1         7.2807    3.1687   13.2193 H         1 RES1    0.0000
     21 H2         8.5264    3.0202   15.2396 H         1 RES1    0.0000
     22 H3         5.7300    0.3617   16.7104 H         1 RES1    0.0000
     23 H4         4.4753    0.5256   14.6847 H         1 RES1    0.0000
     24 H5         5.5105    2.4960   11.8018 H         1 RES1    0.0000
     25 H6         1.3310    2.3030   11.9440 H         1 RES1    0.0000
     26 H7         0.2004    2.6105    9.9046 H         1 RES1    0.0000
     27 H8         3.6811    1.7135    7.8747 H         1 RES1    0.0000
     28 H9         4.7868    1.3948    9.9347 H         1 RES1    0.0000
     29 H10       -0.2630    3.5339    7.7298 H         1 RES1    0.0000
     30 H11       -0.2574    2.6591    6.3875 H         1 RES1    0.0000
     31 H12       -0.5971    1.9648    7.7996 H         1 RES1    0.0000
@<TRIPOS>BOND
     1    1   12 2
     2    2    3 2
     3    4    2 2
     4    5   16 1
     5    6    7 ar
     6    7    8 ar
     7    8    9 ar
     8    9    2 1
     9   10    9 ar
    10   11    6 ar
    11   12    6 1
    12   13    1 1
    13   14   13 ar
    14   15   14 ar
    15   16   15 ar
    16   17   16 ar
    17   18   13 ar
    18   19    5 1
    19   20    7 1
    20   21    8 1
    21   22   10 1
    22   23   11 1
    23   24   12 1
    24   25   14 1
    25   26   15 1
    26   27   17 1
    27   28   18 1
    28   29   19 1
    29   30   19 1
    30   31   19 1
    31   10   11 ar
    32   17   18 ar
@<TRIPOS>SUBSTRUCTURE
     1 RES1 1

@<TRIPOS>CRYSIN
  12.7478    6.9429   13.9980  90.0000 102.4460  90.0000  14 1

