# MOL2 file generated by ConQuest
# Please check atom types

@<TRIPOS>MOLECULE
NMPCPR
    25    26     1
SMALL
NO_CHARGES
****
Generated from CSD

@<TRIPOS>ATOM
      1 O1         5.2618    7.0982    2.7214 O.2       1 RES1    0.0000
      2 O2         6.6146    5.5099    2.1828 O.2       1 RES1    0.0000
      3 N1         6.3721    6.5676    2.7764 N.pl3     1 RES1    0.0000
      4 C1         7.3893    7.1600    3.5273 C.2       1 RES1    0.0000
      5 C2         7.2825    8.3993    4.1163 C.2       1 RES1    0.0000
      6 N2         8.4392    8.6828    4.7217 N.3       1 RES1    0.0000
      7 C3         9.3141    7.6143    4.5645 C.3       1 RES1    0.0000
      8 C4         8.6718    6.6711    3.8112 C.3       1 RES1    0.0000
      9 C5         8.6749    9.9422    5.4396 C.3       1 RES1    0.0000
     10 C6        10.6717    7.6379    5.1031 C.2       1 RES1    0.0000
     11 O3        11.1318    8.5902    5.7125 O.2       1 RES1    0.0000
     12 N3        11.3951    6.5003    4.9317 N.am      1 RES1    0.0000
     13 C7        12.7334    6.3295    5.3437 C.2       1 RES1    0.0000
     14 C8        13.5365    7.1709    6.0278 C.2       1 RES1    0.0000
     15 N4        14.7551    6.5894    6.2071 N.3       1 RES1    0.0000
     16 C9        14.7265    5.3554    5.6095 C.3       1 RES1    0.0000
     17 C10       13.4830    5.1628    5.0834 C.2       1 RES1    0.0000
     18 C11       15.8996    7.2327    6.8243 C.3       1 RES1    0.0000
     19 C12       15.8833    4.4268    5.6755 C.2       1 RES1    0.0000
     20 O4        16.7095    4.4395    6.5805 O.2       1 RES1    0.0000
     21 N5        15.9531    3.5582    4.6478 N.am      1 RES1    0.0000
     22 C13       16.9750    2.5078    4.6006 C.3       1 RES1    0.0000
     23 C14       18.3140    3.0403    4.1391 C.3       1 RES1    0.0000
     24 C15       19.2961    1.9754    4.0754 C.1       1 RES1    0.0000
     25 N6        20.0478    1.1321    4.0361 N.1       1 RES1    0.0000
@<TRIPOS>BOND
     1    1    3 2
     2    2    3 2
     3    3    4 1
     4    4    5 2
     5    5    6 1
     6    6    7 1
     7    7    8 1
     8    8    4 1
     9    9    6 1
    10   10    7 1
    11   11   10 2
    12   12   10 1
    13   13   12 1
    14   14   13 2
    15   15   14 1
    16   16   15 1
    17   17   13 1
    18   18   15 1
    19   19   16 1
    20   20   19 2
    21   21   19 1
    22   22   21 1
    23   23   22 1
    24   24   23 1
    25   25   24 3
    26   16   17 1
@<TRIPOS>SUBSTRUCTURE
     1 RES1 1

@<TRIPOS>CRYSIN
  11.1690   21.5350    7.8630  90.0000  90.0000 122.4500  14 3

