# MOL2 file generated by ConQuest
# Please check atom types

@<TRIPOS>MOLECULE
NOADFU
    45    48     1
SMALL
NO_CHARGES
****
Generated from CSD

@<TRIPOS>ATOM
      1 O1         2.1486    5.2939    1.2471 O.3       1 RES1    0.0000
      2 O2         1.3485    3.0900    2.6932 O.2       1 RES1    0.0000
      3 O3        -0.2130    2.6720    1.1431 O.3       1 RES1    0.0000
      4 O4         3.6576    7.4753    0.7549 O.2       1 RES1    0.0000
      5 O5         2.1681    8.1178   -0.5209 O.2       1 RES1    0.0000
      6 O6         1.2259    6.5927    3.2957 O.2       1 RES1    0.0000
      7 O7         0.7297    8.2957    2.1732 O.2       1 RES1    0.0000
      8 N1         2.5396    7.4650    0.3622 N.pl3     1 RES1    0.0000
      9 N2         1.1740    7.1834    2.2996 N.pl3     1 RES1    0.0000
     10 C1         1.4643    4.2006    0.5370 C.3       1 RES1    0.0000
     11 C2         0.3598    4.9312   -0.1865 C.2       1 RES1    0.0000
     12 C3         0.3788    6.2058    0.0843 C.2       1 RES1    0.0000
     13 C4         1.5330    6.4615    0.9647 C.3       1 RES1    0.0000
     14 C5         0.8906    3.2679    1.5967 C.2       1 RES1    0.0000
     15 C6        -0.8232    1.6702    1.9876 C.3       1 RES1    0.0000
     16 C7         2.5064    3.4751   -0.3649 C.3       1 RES1    0.0000
     17 C8         3.0476    4.4648   -1.4228 C.3       1 RES1    0.0000
     18 C9         4.0806    3.7636   -2.3131 C.3       1 RES1    0.0000
     19 C10        3.4402    2.5666   -3.0106 C.3       1 RES1    0.0000
     20 C11        2.9474    1.5769   -1.9563 C.3       1 RES1    0.0000
     21 C12        1.8927    2.2609   -1.0767 C.3       1 RES1    0.0000
     22 C13        5.2440    3.2990   -1.4551 C.3       1 RES1    0.0000
     23 C14        4.7442    2.3214   -0.3999 C.3       1 RES1    0.0000
     24 C15        3.7087    2.9829    0.4913 C.3       1 RES1    0.0000
     25 C16        4.1121    1.1002   -1.0830 C.3       1 RES1    0.0000
     26 H1        -0.3543    4.4579   -0.8454 H         1 RES1    0.0000
     27 H2        -0.3261    6.9433   -0.2725 H         1 RES1    0.0000
     28 H3        -1.7010    1.2747    1.4999 H         1 RES1    0.0000
     29 H4        -1.1037    2.1158    2.9299 H         1 RES1    0.0000
     30 H5        -0.1176    0.8705    2.1634 H         1 RES1    0.0000
     31 H6         3.5131    5.3025   -0.9252 H         1 RES1    0.0000
     32 H7         2.2294    4.8189   -2.0334 H         1 RES1    0.0000
     33 H8         4.4393    4.4527   -3.0644 H         1 RES1    0.0000
     34 H9         2.6047    2.9017   -3.6086 H         1 RES1    0.0000
     35 H10        4.1681    2.0847   -3.6462 H         1 RES1    0.0000
     36 H11        2.5153    0.7202   -2.4529 H         1 RES1    0.0000
     37 H12        1.0687    2.5873   -1.6945 H         1 RES1    0.0000
     38 H13        1.5329    1.5579   -0.3389 H         1 RES1    0.0000
     39 H14        5.9780    2.8102   -2.0791 H         1 RES1    0.0000
     40 H15        5.6950    4.1522   -0.9701 H         1 RES1    0.0000
     41 H16        5.5840    2.0139    0.2035 H         1 RES1    0.0000
     42 H17        3.3592    2.2695    1.2229 H         1 RES1    0.0000
     43 H18        4.1567    3.8257    0.9970 H         1 RES1    0.0000
     44 H19        3.7475    0.4128   -0.3335 H         1 RES1    0.0000
     45 H20        4.8486    0.6045   -1.6972 H         1 RES1    0.0000
@<TRIPOS>BOND
     1    1   10 1
     2    2   14 2
     3    3   14 1
     4    4    8 2
     5    5    8 2
     6    6    9 2
     7    7    9 2
     8    8   13 1
     9    9   13 1
    10   10   11 1
    11   11   12 2
    12   12   13 1
    13   13    1 1
    14   14   10 1
    15   15    3 1
    16   16   10 1
    17   17   16 1
    18   18   17 1
    19   19   18 1
    20   20   19 1
    21   21   16 1
    22   22   18 1
    23   23   22 1
    24   24   16 1
    25   25   20 1
    26   26   11 1
    27   27   12 1
    28   28   15 1
    29   29   15 1
    30   30   15 1
    31   31   17 1
    32   32   17 1
    33   33   18 1
    34   34   19 1
    35   35   19 1
    36   36   20 1
    37   37   21 1
    38   38   21 1
    39   39   22 1
    40   40   22 1
    41   41   23 1
    42   42   24 1
    43   43   24 1
    44   44   25 1
    45   45   25 1
    46   20   21 1
    47   23   24 1
    48   23   25 1
@<TRIPOS>SUBSTRUCTURE
     1 RES1 1

@<TRIPOS>CRYSIN
  10.9150   17.2720    9.7020  90.0000 112.4700  90.0000 231 1

