# MOL2 file generated by ConQuest
# Please check atom types

@<TRIPOS>MOLECULE
NODTAB
    39    41     1
SMALL
NO_CHARGES
****
Generated from CSD

@<TRIPOS>ATOM
      1 O1         1.2368    9.2076    6.8337 O.3       1 RES1    0.0000
      2 N1         2.3658   10.0977    6.8061 N.2       1 RES1    0.0000
      3 C1         3.3201    9.7983    5.9695 C.2       1 RES1    0.0000
      4 N2         3.3736    8.6777    5.2106 N.3       1 RES1    0.0000
      5 H1         3.8616    8.7487    4.4025 H         1 RES1    0.0000
      6 C2         2.3771    7.6314    5.3956 C.3       1 RES1    0.0000
      7 C3         1.0470    8.3987    5.6618 C.3       1 RES1    0.0000
      8 O2         0.7098    9.2094    4.5685 O.3       1 RES1    0.0000
      9 H2         1.5058    9.4853    4.0620 H         1 RES1    0.0000
     10 C4         2.7769    6.7710    6.5839 C.3       1 RES1    0.0000
     11 H3         2.8166    7.3148    7.3739 H         1 RES1    0.0000
     12 H4         3.6385    6.3806    6.4206 H         1 RES1    0.0000
     13 H5         2.1288    6.0741    6.7067 H         1 RES1    0.0000
     14 C5         2.3069    6.7876    4.1208 C.3       1 RES1    0.0000
     15 H6         2.0531    7.3449    3.3810 H         1 RES1    0.0000
     16 H7         1.6559    6.0896    4.2340 H         1 RES1    0.0000
     17 H8         3.1665    6.3962    3.9479 H         1 RES1    0.0000
     18 C6         4.4186   10.7809    5.8528 C.ar      1 RES1    0.0000
     19 C7         5.7200   10.3743    5.5728 C.ar      1 RES1    0.0000
     20 H9         5.9109    9.4699    5.4760 H         1 RES1    0.0000
     21 C8         6.7267   11.3056    5.4379 C.ar      1 RES1    0.0000
     22 H10        7.5942   11.0279    5.2530 H         1 RES1    0.0000
     23 C9         6.4515   12.6439    5.5771 C.ar      1 RES1    0.0000
     24 H11        7.1338   13.2706    5.4820 H         1 RES1    0.0000
     25 C10        5.1621   13.0662    5.8580 C.ar      1 RES1    0.0000
     26 H12        4.9797   13.9725    5.9599 H         1 RES1    0.0000
     27 C11        4.1495   12.1394    5.9859 C.ar      1 RES1    0.0000
     28 H13        3.2823   12.4240    6.1622 H         1 RES1    0.0000
     29 C12       -0.1401    7.5177    5.9876 C.ar      1 RES1    0.0000
     30 C13       -0.3615    7.0556    7.2840 C.ar      1 RES1    0.0000
     31 H14        0.2142    7.3083    7.9694 H         1 RES1    0.0000
     32 C14       -1.4278    6.2265    7.5554 C.ar      1 RES1    0.0000
     33 H15       -1.5693    5.9257    8.4240 H         1 RES1    0.0000
     34 C15       -2.2850    5.8389    6.5502 C.ar      1 RES1    0.0000
     35 H16       -2.9977    5.2700    6.7335 H         1 RES1    0.0000
     36 C16       -2.0755    6.3036    5.2711 C.ar      1 RES1    0.0000
     37 H17       -2.6571    6.0510    4.5910 H         1 RES1    0.0000
     38 C17       -1.0197    7.1347    4.9851 C.ar      1 RES1    0.0000
     39 H18       -0.8948    7.4413    4.1156 H         1 RES1    0.0000
@<TRIPOS>BOND
     1    1    2 1
     2    2    3 2
     3    3    4 1
     4    4    5 1
     5    6    4 1
     6    7    1 1
     7    8    7 1
     8    9    8 1
     9   10    6 1
    10   11   10 1
    11   12   10 1
    12   13   10 1
    13   14    6 1
    14   15   14 1
    15   16   14 1
    16   17   14 1
    17   18    3 1
    18   19   18 ar
    19   20   19 1
    20   21   19 ar
    21   22   21 1
    22   23   21 ar
    23   24   23 1
    24   25   23 ar
    25   26   25 1
    26   27   18 ar
    27   28   27 1
    28   29    7 1
    29   30   29 ar
    30   31   30 1
    31   32   30 ar
    32   33   32 1
    33   34   32 ar
    34   35   34 1
    35   36   34 ar
    36   37   36 1
    37   38   29 ar
    38   39   38 1
    39    6    7 1
    40   25   27 ar
    41   36   38 ar
@<TRIPOS>SUBSTRUCTURE
     1 RES1 1

@<TRIPOS>CRYSIN
   8.9000   19.2830    9.4300  90.0000 113.5800  90.0000   9 1

