# MOL2 file generated by ConQuest
# Please check atom types

@<TRIPOS>MOLECULE
NODTAB01
    39    41     1
SMALL
NO_CHARGES
****
Generated from CSD

@<TRIPOS>ATOM
      1 C1         1.3817    2.5051    7.2882 C.ar      1 RES1    0.0000
      2 H1         1.2476    2.1823    8.1715 H         1 RES1    0.0000
      3 C2         2.4384    3.3654    7.0203 C.ar      1 RES1    0.0000
      4 H2         3.0161    3.6398    7.7222 H         1 RES1    0.0000
      5 C3         2.6484    3.8252    5.7219 C.ar      1 RES1    0.0000
      6 H3         3.3701    4.4145    5.5361 H         1 RES1    0.0000
      7 C4         1.8066    3.4227    4.7084 C.ar      1 RES1    0.0000
      8 H4         1.9568    3.7318    3.8226 H         1 RES1    0.0000
      9 C5         0.7388    2.5707    4.9678 C.ar      1 RES1    0.0000
     10 H5         0.1610    2.3012    4.2642 H         1 RES1    0.0000
     11 C6         0.5209    2.1125    6.2739 C.ar      1 RES1    0.0000
     12 C7        -0.6704    1.2235    6.5940 C.3       1 RES1    0.0000
     13 O1        -0.8441    0.4115    5.4160 O.3       1 RES1    0.0000
     14 N1        -1.9677   -0.4875    5.4371 N.2       1 RES1    0.0000
     15 C8        -2.9257   -0.1737    6.2594 C.2       1 RES1    0.0000
     16 N2        -3.0055    0.9514    7.0026 N.3       1 RES1    0.0000
     17 H6        -3.4564    0.9090    7.7204 H         1 RES1    0.0000
     18 C9        -2.0009    1.9973    6.8260 C.3       1 RES1    0.0000
     19 C10       -4.0187   -1.1754    6.3853 C.ar      1 RES1    0.0000
     20 C11       -3.7295   -2.5312    6.2540 C.ar      1 RES1    0.0000
     21 H7        -2.8406   -2.8094    6.0694 H         1 RES1    0.0000
     22 C12       -4.7321   -3.4743    6.3920 C.ar      1 RES1    0.0000
     23 H8        -4.5326   -4.3992    6.3005 H         1 RES1    0.0000
     24 C13       -6.0325   -3.0649    6.6651 C.ar      1 RES1    0.0000
     25 H9        -6.7217   -3.7127    6.7558 H         1 RES1    0.0000
     26 C14       -6.3275   -1.7208    6.8055 C.ar      1 RES1    0.0000
     27 H10       -7.2171   -1.4479    6.9998 H         1 RES1    0.0000
     28 C15       -5.3283   -0.7692    6.6634 C.ar      1 RES1    0.0000
     29 H11       -5.5319    0.1534    6.7541 H         1 RES1    0.0000
     30 C16       -2.3897    2.8447    5.6166 C.3       1 RES1    0.0000
     31 H12       -2.4353    2.2763    4.8197 H         1 RES1    0.0000
     32 H13       -1.7174    3.5458    5.4788 H         1 RES1    0.0000
     33 H14       -3.2635    3.2582    5.7732 H         1 RES1    0.0000
     34 C17       -1.9506    2.8447    8.0919 C.3       1 RES1    0.0000
     35 H15       -2.8258    3.2620    8.2417 H         1 RES1    0.0000
     36 H16       -1.2696    3.5420    7.9918 H         1 RES1    0.0000
     37 H17       -1.7254    2.2763    8.8580 H         1 RES1    0.0000
     38 O2        -0.3449    0.4230    7.6917 O.3       1 RES1    0.0000
     39 H18       -1.0363    0.2052    8.1056 H         1 RES1    0.0000
@<TRIPOS>BOND
     1    1    2 1
     2    3    1 ar
     3    4    3 1
     4    5    3 ar
     5    6    5 1
     6    7    5 ar
     7    8    7 1
     8    9    7 ar
     9   10    9 1
    10   11    1 ar
    11   12   11 1
    12   13   12 1
    13   14   13 1
    14   15   14 2
    15   16   15 1
    16   17   16 1
    17   18   12 1
    18   19   15 1
    19   20   19 ar
    20   21   20 1
    21   22   20 ar
    22   23   22 1
    23   24   22 ar
    24   25   24 1
    25   26   24 ar
    26   27   26 1
    27   28   19 ar
    28   29   28 1
    29   30   18 1
    30   31   30 1
    31   32   30 1
    32   33   30 1
    33   34   18 1
    34   35   34 1
    35   36   34 1
    36   37   34 1
    37   38   12 1
    38   39   38 1
    39    9   11 ar
    40   16   18 1
    41   26   28 ar
@<TRIPOS>SUBSTRUCTURE
     1 RES1 1

@<TRIPOS>CRYSIN
   8.7820   19.1770    9.3620  90.0000 113.9000  90.0000   9 1

