# MOL2 file generated by ConQuest
# Please check atom types

@<TRIPOS>MOLECULE
NODXOU
    64    69     1
SMALL
NO_CHARGES
****
Generated from CSD

@<TRIPOS>ATOM
      1 C1         5.7719    0.5904    1.5019 C.ar      1 RES1    0.0000
      2 N1         5.3650    1.6655    2.2282 N.pl3     1 RES1    0.0000
      3 C2         6.0677    2.8418    2.1695 C.ar      1 RES1    0.0000
      4 C3         7.2029    2.9072    1.3951 C.ar      1 RES1    0.0000
      5 H1         7.6899    3.6986    1.3760 H         1 RES1    0.0000
      6 C4         7.6459    1.8225    0.6370 C.ar      1 RES1    0.0000
      7 C5         6.9142    0.6350    0.7040 C.ar      1 RES1    0.0000
      8 C6         7.2878   -0.5899   -0.0992 C.3       1 RES1    0.0000
      9 H2         6.6404   -0.7123   -0.8106 H         1 RES1    0.0000
     10 H3         7.2503   -1.3696    0.4753 H         1 RES1    0.0000
     11 C7         8.6837   -0.4842   -0.7072 C.3       1 RES1    0.0000
     12 H4         9.3506   -0.6110   -0.0146 H         1 RES1    0.0000
     13 H5         8.8024   -1.1791   -1.3724 H         1 RES1    0.0000
     14 C8         8.8729    0.8781   -1.3535 C.3       1 RES1    0.0000
     15 H6         8.1658    1.0384   -1.9974 H         1 RES1    0.0000
     16 H7         9.7221    0.9045   -1.8215 H         1 RES1    0.0000
     17 C9         8.8431    1.9542   -0.2763 C.3       1 RES1    0.0000
     18 H8         9.6540    1.8965    0.2526 H         1 RES1    0.0000
     19 H9         8.8258    2.8267   -0.6993 H         1 RES1    0.0000
     20 C10        5.4677    3.9851    2.9371 C.3       1 RES1    0.0000
     21 H10        4.5156    4.0556    2.7167 H         1 RES1    0.0000
     22 C11        6.3906    5.9760    3.7027 C.3       1 RES1    0.0000
     23 H11        5.6301    6.5408    3.9102 H         1 RES1    0.0000
     24 H12        7.1726    6.5357    3.5730 H         1 RES1    0.0000
     25 C12        6.6280    4.9702    4.8048 C.3       1 RES1    0.0000
     26 H13        6.4487    5.3566    5.6769 H         1 RES1    0.0000
     27 H14        7.5388    4.6357    4.7860 H         1 RES1    0.0000
     28 C13        5.6273    3.8656    4.4736 C.3       1 RES1    0.0000
     29 H15        4.7817    4.0127    4.9253 H         1 RES1    0.0000
     30 H16        5.9729    2.9949    4.7227 H         1 RES1    0.0000
     31 O1         4.2826    1.6011    2.9598 O.2       1 RES1    0.0000
     32 O2         6.1330    5.1879    2.5375 O.3       1 RES1    0.0000
     33 C1A        4.8731   -0.5904    1.5019 C.ar      1 RES1    0.0000
     34 N1A        5.2800   -1.6655    2.2282 N.pl3     1 RES1    0.0000
     35 C2A        4.5774   -2.8418    2.1695 C.ar      1 RES1    0.0000
     36 C3A        3.4421   -2.9072    1.3951 C.ar      1 RES1    0.0000
     37 H1A        2.9551   -3.6986    1.3760 H         1 RES1    0.0000
     38 C4A        2.9991   -1.8225    0.6370 C.ar      1 RES1    0.0000
     39 C5A        3.7308   -0.6350    0.7040 C.ar      1 RES1    0.0000
     40 C6A        3.3572    0.5899   -0.0992 C.3       1 RES1    0.0000
     41 H2A        4.0046    0.7123   -0.8106 H         1 RES1    0.0000
     42 H3A        3.3947    1.3696    0.4753 H         1 RES1    0.0000
     43 C7A        1.9613    0.4842   -0.7072 C.3       1 RES1    0.0000
     44 H4A        1.2944    0.6110   -0.0146 H         1 RES1    0.0000
     45 H5A        1.8426    1.1791   -1.3724 H         1 RES1    0.0000
     46 C8A        1.7721   -0.8781   -1.3535 C.3       1 RES1    0.0000
     47 H6A        2.4792   -1.0384   -1.9974 H         1 RES1    0.0000
     48 H7A        0.9229   -0.9045   -1.8215 H         1 RES1    0.0000
     49 C9A        1.8019   -1.9542   -0.2763 C.3       1 RES1    0.0000
     50 H8A        0.9910   -1.8965    0.2526 H         1 RES1    0.0000
     51 H9A        1.8192   -2.8267   -0.6993 H         1 RES1    0.0000
     52 C10A       5.1773   -3.9851    2.9371 C.3       1 RES1    0.0000
     53 H10A       6.1294   -4.0556    2.7167 H         1 RES1    0.0000
     54 C11A       4.2544   -5.9760    3.7027 C.3       1 RES1    0.0000
     55 H11A       5.0149   -6.5408    3.9102 H         1 RES1    0.0000
     56 H12A       3.4724   -6.5357    3.5730 H         1 RES1    0.0000
     57 C12A       4.0170   -4.9702    4.8048 C.3       1 RES1    0.0000
     58 H13A       4.1963   -5.3566    5.6769 H         1 RES1    0.0000
     59 H14A       3.1062   -4.6357    4.7860 H         1 RES1    0.0000
     60 C13A       5.0177   -3.8656    4.4736 C.3       1 RES1    0.0000
     61 H15A       5.8633   -4.0127    4.9253 H         1 RES1    0.0000
     62 H16A       4.6721   -2.9949    4.7227 H         1 RES1    0.0000
     63 O1A        6.3624   -1.6011    2.9598 O.2       1 RES1    0.0000
     64 O2A        4.5120   -5.1879    2.5375 O.3       1 RES1    0.0000
@<TRIPOS>BOND
     1    1    2 ar
     2    2    3 ar
     3    3    4 ar
     4    4    5 1
     5    6    4 ar
     6    7    1 ar
     7    8    7 1
     8    9    8 1
     9   10    8 1
    10   11    8 1
    11   12   11 1
    12   13   11 1
    13   14   11 1
    14   15   14 1
    15   16   14 1
    16   17    6 1
    17   18   17 1
    18   19   17 1
    19   20    3 1
    20   21   20 1
    21   22   23 1
    22   24   22 1
    23   25   22 1
    24   26   25 1
    25   27   25 1
    26   28   20 1
    27   29   28 1
    28   30   28 1
    29   31    2 1
    30   32   20 1
    31   33    1 1
    32   34   33 ar
    33   35   34 ar
    34   36   35 ar
    35   37   36 1
    36   38   36 ar
    37   39   33 ar
    38   40   39 1
    39   41   40 1
    40   42   40 1
    41   43   40 1
    42   44   43 1
    43   45   43 1
    44   46   43 1
    45   47   46 1
    46   48   46 1
    47   49   38 1
    48   50   49 1
    49   51   49 1
    50   52   35 1
    51   53   52 1
    52   54   55 1
    53   56   54 1
    54   57   54 1
    55   58   57 1
    56   59   57 1
    57   60   52 1
    58   61   60 1
    59   62   60 1
    60   63   34 1
    61   64   52 1
    62    6    7 ar
    63   14   17 1
    64   22   32 1
    65   25   28 1
    66   38   39 ar
    67   46   49 1
    68   54   64 1
    69   57   60 1
@<TRIPOS>SUBSTRUCTURE
     1 RES1 1

@<TRIPOS>CRYSIN
  10.6450   17.1630    6.0859  90.0000  90.0000  90.0000  18 1

