# MOL2 file generated by ConQuest
# Please check atom types

@<TRIPOS>MOLECULE
NOETNA02
    30    29     1
SMALL
NO_CHARGES
****
Generated from CSD

@<TRIPOS>ATOM
      1 C1        -0.7336    3.9024    5.9906 C.3       1 RES1    0.0000
      2 C2         0.5723    4.0601    6.7446 C.3       1 RES1    0.0000
      3 C3        -0.3061    3.5382    3.4729 C.3       1 RES1    0.0000
      4 C4        -1.4564    3.8297    2.4905 C.3       1 RES1    0.0000
      5 N1         1.6816    4.8587    5.9978 N.pl3     1 RES1    0.0000
      6 N2         1.2750    2.7858    7.1923 N.pl3     1 RES1    0.0000
      7 N3         0.2719    4.8976    8.0297 N.pl3     1 RES1    0.0000
      8 N4        -2.5772    4.7207    3.0125 N.pl3     1 RES1    0.0000
      9 N5        -2.1277    2.6127    1.9141 N.pl3     1 RES1    0.0000
     10 N6        -0.8217    4.6123    1.2851 N.pl3     1 RES1    0.0000
     11 N7        -0.6723    3.0693    4.8088 N.3       1 RES1    0.0000
     12 N8        -0.9149    1.7217    4.9773 N.pl3     1 RES1    0.0000
     13 O1         1.2966    5.6333    5.1550 O.2       1 RES1    0.0000
     14 O2         2.8318    4.6172    6.3404 O.2       1 RES1    0.0000
     15 O3         1.6711    2.1099    6.2625 O.2       1 RES1    0.0000
     16 O4         1.3972    2.5813    8.3723 O.2       1 RES1    0.0000
     17 O5         1.0211    5.8089    8.2744 O.2       1 RES1    0.0000
     18 O6        -0.6777    4.5285    8.6424 O.2       1 RES1    0.0000
     19 O7        -2.9155    4.5291    4.1544 O.2       1 RES1    0.0000
     20 O8        -3.0828    5.5181    2.2240 O.2       1 RES1    0.0000
     21 O9        -3.3091    2.4537    2.1189 O.2       1 RES1    0.0000
     22 O10       -1.3571    1.8745    1.2960 O.2       1 RES1    0.0000
     23 O11       -1.3258    4.3849    0.2066 O.2       1 RES1    0.0000
     24 O12        0.0956    5.3462    1.5606 O.2       1 RES1    0.0000
     25 O13       -1.0716    1.3063    6.1229 O.2       1 RES1    0.0000
     26 O14       -0.9498    1.0432    3.9550 O.2       1 RES1    0.0000
     27 H1        -1.3095    4.3904    5.7277 H         1 RES1    0.0000
     28 H2        -1.5018    3.4402    6.5978 H         1 RES1    0.0000
     29 H3         0.2069    4.2875    3.5943 H         1 RES1    0.0000
     30 H4         0.4097    3.1069    3.5327 H         1 RES1    0.0000
@<TRIPOS>BOND
     1    1    2 1
     2    2    5 1
     3    3    4 1
     4    4    8 1
     5    5   13 2
     6    6    2 1
     7    7    2 1
     8    8   19 2
     9    9    4 1
    10   10    4 1
    11   11    1 1
    12   12   11 1
    13   14    5 2
    14   15    6 2
    15   16    6 2
    16   17    7 2
    17   18    7 2
    18   20    8 2
    19   21    9 2
    20   22    9 2
    21   23   10 2
    22   24   10 2
    23   25   12 2
    24   26   12 2
    25   27    1 1
    26   28    1 1
    27   29    3 1
    28   30    3 1
    29    3   11 1
@<TRIPOS>SUBSTRUCTURE
     1 RES1 1

@<TRIPOS>CRYSIN
  11.8200    6.1620   18.2290  90.0000  96.1000  90.0000 231 1

