# MOL2 file generated by ConQuest
# Please check atom types

@<TRIPOS>MOLECULE
NOFLUP
    33    34     1
SMALL
NO_CHARGES
****
Generated from CSD

@<TRIPOS>ATOM
      1 O1         2.5854    2.4036    2.4609 O.2       1 RES1    0.0000
      2 O2         3.8936    1.0270    1.4606 O.2       1 RES1    0.0000
      3 O3         2.8638    7.2281   -3.9376 O.3       1 RES1    0.0000
      4 N1         3.0969    1.9685    1.4362 N.pl3     1 RES1    0.0000
      5 N2         2.0199    4.4443   -3.4468 N.3       1 RES1    0.0000
      6 C1         2.7789    2.5667    0.1647 C.ar      1 RES1    0.0000
      7 C2         3.3792    2.1018   -1.0035 C.ar      1 RES1    0.0000
      8 C3         3.1101    2.7196   -2.1922 C.ar      1 RES1    0.0000
      9 C4         2.2386    3.8289   -2.2591 C.ar      1 RES1    0.0000
     10 C5         1.6242    4.2498   -1.0616 C.ar      1 RES1    0.0000
     11 C6         1.8980    3.6258    0.1286 C.ar      1 RES1    0.0000
     12 C7         1.1275    5.5716   -3.6302 C.3       1 RES1    0.0000
     13 C8         1.7164    6.8996   -3.1463 C.3       1 RES1    0.0000
     14 C9         0.6805    7.9964   -3.1963 C.ar      1 RES1    0.0000
     15 C10        0.5508    8.8540   -4.2790 C.ar      1 RES1    0.0000
     16 C11       -0.4360    9.8348   -4.2909 C.ar      1 RES1    0.0000
     17 C12       -1.3017    9.9594   -3.2384 C.ar      1 RES1    0.0000
     18 C13       -1.1997    9.1065   -2.1636 C.ar      1 RES1    0.0000
     19 C14       -0.2085    8.1297   -2.1381 C.ar      1 RES1    0.0000
     20 H1         2.3933    4.1009   -4.1700 H         1 RES1    0.0000
     21 H2         3.5239    7.0125   -3.5152 H         1 RES1    0.0000
     22 H3         3.9282    1.3704   -0.9781 H         1 RES1    0.0000
     23 H4         3.5192    2.4162   -3.0082 H         1 RES1    0.0000
     24 H5         1.0303    4.9734   -1.0660 H         1 RES1    0.0000
     25 H6         1.4726    3.9370    0.9142 H         1 RES1    0.0000
     26 H7         0.9814    5.6578   -4.6111 H         1 RES1    0.0000
     27 H8         0.3071    5.3921   -3.1919 H         1 RES1    0.0000
     28 H9         1.9904    6.7860   -2.2117 H         1 RES1    0.0000
     29 H10        1.1349    8.7811   -5.0283 H         1 RES1    0.0000
     30 H11       -0.4684   10.4133   -5.0483 H         1 RES1    0.0000
     31 H12       -1.9532   10.6524   -3.2258 H         1 RES1    0.0000
     32 H13       -1.8140    9.1410   -1.4213 H         1 RES1    0.0000
     33 H14       -0.1314    7.5244   -1.4293 H         1 RES1    0.0000
@<TRIPOS>BOND
     1    1    4 2
     2    2    4 2
     3    3   13 1
     4    4    6 1
     5    5    9 1
     6    6    7 ar
     7    7    8 ar
     8    8    9 ar
     9    9   10 ar
    10   10   11 ar
    11   11    6 ar
    12   12    5 1
    13   13   12 1
    14   14   13 1
    15   15   14 ar
    16   16   15 ar
    17   17   16 ar
    18   18   17 ar
    19   19   14 ar
    20   20    5 1
    21   21    3 1
    22   22    7 1
    23   23    8 1
    24   24   10 1
    25   25   11 1
    26   26   12 1
    27   27   12 1
    28   28   13 1
    29   29   15 1
    30   30   16 1
    31   31   17 1
    32   32   18 1
    33   33   19 1
    34   18   19 ar
@<TRIPOS>SUBSTRUCTURE
     1 RES1 1

@<TRIPOS>CRYSIN
   8.2820    7.8396   20.2459  90.0000  99.6130  90.0000 231 1

