# MOL2 file generated by ConQuest
# Please check atom types

@<TRIPOS>MOLECULE
NOGRIM
    44    46     1
SMALL
NO_CHARGES
****
Generated from CSD

@<TRIPOS>ATOM
      1 N1         3.4780   13.8351    0.0287 N.pl3     1 RES1    0.0000
      2 N2         2.3299   12.0407    0.7039 N.2       1 RES1    0.0000
      3 C1         0.6432   10.2572   -0.7715 C.ar      1 RES1    0.0000
      4 H1         1.0285    9.9497    0.0166 H         1 RES1    0.0000
      5 N3        -0.7807    8.2554   -0.8008 N.pl3     1 RES1    0.0000
      6 O1        -0.2859    7.9245    0.2672 O.2       1 RES1    0.0000
      7 N4         2.8102   14.0703   -2.2911 N.3       1 RES1    0.0000
      8 C2         3.7831   13.2050    2.3418 C.2       1 RES1    0.0000
      9 O2         2.5432   11.3843    3.2779 O.3       1 RES1    0.0000
     10 C3        -0.3436    9.5216   -1.4065 C.ar      1 RES1    0.0000
     11 C4         1.0496   11.4675   -1.3343 C.ar      1 RES1    0.0000
     12 C5         3.1877   12.9804    1.0737 C.2       1 RES1    0.0000
     13 O3        -1.6180    7.5874   -1.3872 O.2       1 RES1    0.0000
     14 C6         2.0453   12.2906   -0.6272 C.2       1 RES1    0.0000
     15 O4         3.9326   12.4731    4.5918 O.2       1 RES1    0.0000
     16 C7         2.7560   13.3902   -1.0848 C.2       1 RES1    0.0000
     17 C8         4.3106   14.9155    0.1873 C.2       1 RES1    0.0000
     18 H2         4.4729   15.4932   -0.5228 H         1 RES1    0.0000
     19 C9         4.8896   15.1280    1.3845 C.2       1 RES1    0.0000
     20 H3         5.4649   15.8500    1.4933 H         1 RES1    0.0000
     21 C10        0.4415   11.8862   -2.5204 C.ar      1 RES1    0.0000
     22 H4         0.7063   12.6891   -2.9083 H         1 RES1    0.0000
     23 C11        3.7807   13.7098   -3.3672 C.3       1 RES1    0.0000
     24 C12        4.6353   14.2699    2.4784 C.2       1 RES1    0.0000
     25 H5         5.0487   14.4291    3.2963 H         1 RES1    0.0000
     26 C13       -0.9563    9.9347   -2.5705 C.ar      1 RES1    0.0000
     27 H6        -1.6241    9.4234   -2.9670 H         1 RES1    0.0000
     28 C14        3.4471   12.3347    3.5013 C.2       1 RES1    0.0000
     29 C15        5.1694   14.2347   -3.0124 C.3       1 RES1    0.0000
     30 H7         5.4850   13.7930   -2.2203 H         1 RES1    0.0000
     31 H8         5.1238   15.1801   -2.8556 H         1 RES1    0.0000
     32 H9         5.7723   14.0586   -3.7380 H         1 RES1    0.0000
     33 C16       -0.5482   11.1319   -3.1314 C.ar      1 RES1    0.0000
     34 H10       -0.9391   11.4313   -3.9208 H         1 RES1    0.0000
     35 C17        3.2678   14.4036   -4.6180 C.3       1 RES1    0.0000
     36 H11        2.3954   14.0671   -4.8365 H         1 RES1    0.0000
     37 H12        3.8683   14.2342   -5.3476 H         1 RES1    0.0000
     38 H13        3.2151   15.3499   -4.4602 H         1 RES1    0.0000
     39 C18        3.8483   12.2048   -3.5738 C.3       1 RES1    0.0000
     40 H14        4.1739   11.7858   -2.7744 H         1 RES1    0.0000
     41 H15        4.4410   12.0084   -4.3029 H         1 RES1    0.0000
     42 H16        2.9711   11.8696   -3.7761 H         1 RES1    0.0000
     43 H17        2.2560   11.4101    2.4138 H         1 RES1    0.0000
     44 H18        2.1058   14.3988   -2.4920 H         1 RES1    0.0000
@<TRIPOS>BOND
     1    1   12 1
     2    2   12 2
     3    3    4 1
     4    5    6 2
     5    7   16 1
     6    8   12 1
     7    9   28 1
     8   10    3 ar
     9   11    3 ar
    10   13    5 2
    11   14    2 1
    12   15   28 2
    13   16    1 1
    14   17    1 1
    15   18   17 1
    16   19   17 2
    17   20   19 1
    18   21   11 ar
    19   22   21 1
    20   23    7 1
    21   24    8 2
    22   25   24 1
    23   26   10 ar
    24   27   26 1
    25   28    8 1
    26   29   23 1
    27   30   29 1
    28   31   29 1
    29   32   29 1
    30   33   21 ar
    31   34   33 1
    32   35   23 1
    33   36   35 1
    34   37   35 1
    35   38   35 1
    36   39   23 1
    37   40   39 1
    38   41   39 1
    39   42   39 1
    40   43    9 1
    41   44    7 1
    42    5   10 1
    43   11   14 1
    44   14   16 2
    45   19   24 1
    46   26   33 ar
@<TRIPOS>SUBSTRUCTURE
     1 RES1 1

@<TRIPOS>CRYSIN
   8.4010   10.2130   10.7140  94.7760 112.8410  97.0130   2 1

