# MOL2 file generated by ConQuest
# Please check atom types

@<TRIPOS>MOLECULE
NOHFUN
    95    98     1
SMALL
NO_CHARGES
****
Generated from CSD

@<TRIPOS>ATOM
      1 C1         3.4635    2.9743    3.7604 C.3       1 RES1    0.0000
      2 C2         2.4544    3.7224    4.7449 C.3       1 RES1    0.0000
      3 H1         2.2844    4.6282    4.3562 H         1 RES1    0.0000
      4 C3         3.2656    3.9278    6.0236 C.3       1 RES1    0.0000
      5 H2         2.8903    4.6606    6.5738 H         1 RES1    0.0000
      6 H3         3.2991    3.0992    6.5656 H         1 RES1    0.0000
      7 C4         4.6430    4.2920    5.4843 C.3       1 RES1    0.0000
      8 H4         5.3305    4.2363    6.1946 H         1 RES1    0.0000
      9 H5         4.6471    5.2050    5.1008 H         1 RES1    0.0000
     10 C5         4.8823    3.2352    4.3987 C.3       1 RES1    0.0000
     11 H6         5.1319    2.3935    4.8771 H         1 RES1    0.0000
     12 C6         6.0485    3.5473    3.4451 C.3       1 RES1    0.0000
     13 H7         5.9830    4.4986    3.1451 H         1 RES1    0.0000
     14 C7         8.6267    5.2830    4.6210 C.3       1 RES1    0.0000
     15 C8        10.0059    5.8452    4.2378 C.3       1 RES1    0.0000
     16 H8         9.9841    6.1272    3.2896 H         1 RES1    0.0000
     17 H9        10.1883    6.6487    4.7871 H         1 RES1    0.0000
     18 C9        11.1355    4.8529    4.4295 C.3       1 RES1    0.0000
     19 H10       11.9926    5.2532    4.1379 H         1 RES1    0.0000
     20 H11       11.2139    4.6077    5.3845 H         1 RES1    0.0000
     21 C10       10.8285    3.6227    3.6009 C.3       1 RES1    0.0000
     22 H12       11.5471    2.9569    3.7424 H         1 RES1    0.0000
     23 H13       10.8366    3.8744    2.6432 H         1 RES1    0.0000
     24 C11        9.4767    2.9672    3.9293 C.3       1 RES1    0.0000
     25 C12        9.5483    2.2313    5.2759 C.3       1 RES1    0.0000
     26 H14        9.9339    2.8258    5.9519 H         1 RES1    0.0000
     27 H15       10.1116    1.4342    5.1827 H         1 RES1    0.0000
     28 H16        8.6463    1.9644    5.5509 H         1 RES1    0.0000
     29 C13        9.2030    1.9285    2.8415 C.3       1 RES1    0.0000
     30 H17        8.4006    1.4168    3.0741 H         1 RES1    0.0000
     31 H18        9.9687    1.3204    2.7714 H         1 RES1    0.0000
     32 H19        9.0648    2.3825    1.9830 H         1 RES1    0.0000
     33 C14        7.5818    6.3082    4.1690 C.3       1 RES1    0.0000
     34 H20        7.5701    6.3532    3.1914 H         1 RES1    0.0000
     35 H21        7.8097    7.1892    4.5335 H         1 RES1    0.0000
     36 H22        6.6970    6.0387    4.4953 H         1 RES1    0.0000
     37 C15        8.5130    5.1251    6.1431 C.3       1 RES1    0.0000
     38 H23        7.7331    4.5729    6.3556 H         1 RES1    0.0000
     39 H24        8.4123    6.0079    6.5574 H         1 RES1    0.0000
     40 H25        9.3218    4.6938    6.4892 H         1 RES1    0.0000
     41 C16        1.0864    3.0540    4.9429 C.3       1 RES1    0.0000
     42 H26        1.2371    2.1090    5.2345 H         1 RES1    0.0000
     43 C17        0.2322    3.7694    6.0252 C.3       1 RES1    0.0000
     44 H27       -0.6077    3.2604    6.1483 H         1 RES1    0.0000
     45 H28        0.7264    3.7424    6.8820 H         1 RES1    0.0000
     46 C18       -0.1226    5.2171    5.7189 C.3       1 RES1    0.0000
     47 H29        0.6987    5.7471    5.6491 H         1 RES1    0.0000
     48 H30       -0.6829    5.5757    6.4374 H         1 RES1    0.0000
     49 H31       -0.6113    5.2612    4.8717 H         1 RES1    0.0000
     50 C19        0.3018    3.0349    3.6358 C.2       1 RES1    0.0000
     51 C20       -0.7899    2.0261    3.4339 C.ar      1 RES1    0.0000
     52 C21       -1.4434    2.0179    2.1991 C.ar      1 RES1    0.0000
     53 H32       -1.1859    2.6377    1.5275 H         1 RES1    0.0000
     54 C22       -2.4609    1.1164    1.9476 C.ar      1 RES1    0.0000
     55 H33       -2.8992    1.1166    1.1047 H         1 RES1    0.0000
     56 C23       -2.8406    0.2130    2.9252 C.ar      1 RES1    0.0000
     57 H34       -3.5487   -0.3975    2.7577 H         1 RES1    0.0000
     58 C24       -2.1905    0.1971    4.1469 C.ar      1 RES1    0.0000
     59 H35       -2.4462   -0.4299    4.8144 H         1 RES1    0.0000
     60 C25       -1.1647    1.0976    4.3987 C.ar      1 RES1    0.0000
     61 H36       -0.7153    1.0794    5.2345 H         1 RES1    0.0000
     62 C26        3.3725    3.6711    2.3996 C.2       1 RES1    0.0000
     63 C27        2.8128    3.5719    0.1263 C.3       1 RES1    0.0000
     64 H37        3.6464    4.0032   -0.1882 H         1 RES1    0.0000
     65 H38        2.1171    4.2687    0.2319 H         1 RES1    0.0000
     66 C28        2.3690    2.5444   -0.8369 C.3       1 RES1    0.0000
     67 H39        3.0564    1.8499   -0.9138 H         1 RES1    0.0000
     68 H40        2.2240    2.9585   -1.7130 H         1 RES1    0.0000
     69 H41        1.5318    2.1422   -0.5237 H         1 RES1    0.0000
     70 C29        3.1598    1.4675    3.8245 C.2       1 RES1    0.0000
     71 C30        1.9151   -0.3724    3.0204 C.3       1 RES1    0.0000
     72 H42        1.4169   -0.5919    3.8461 H         1 RES1    0.0000
     73 H43        2.7533   -0.8985    3.0114 H         1 RES1    0.0000
     74 C31        1.0888   -0.6992    1.8188 C.3       1 RES1    0.0000
     75 H44        0.2467   -0.1999    1.8548 H         1 RES1    0.0000
     76 H45        0.8975   -1.6602    1.8057 H         1 RES1    0.0000
     77 H46        1.5805   -0.4520    1.0065 H         1 RES1    0.0000
     78 C32        6.1132    2.6439    2.2296 C.ar      1 RES1    0.0000
     79 C33        6.3382    3.2021    0.9732 C.ar      1 RES1    0.0000
     80 H47        6.4564    4.1414    0.8920 H         1 RES1    0.0000
     81 C34        6.3914    2.4038   -0.1648 C.ar      1 RES1    0.0000
     82 H48        6.5542    2.7957   -1.0147 H         1 RES1    0.0000
     83 C35        6.2069    1.0375   -0.0526 C.ar      1 RES1    0.0000
     84 H49        6.2381    0.4891   -0.8292 H         1 RES1    0.0000
     85 C36        5.9758    0.4675    1.1898 C.ar      1 RES1    0.0000
     86 H50        5.8429   -0.4702    1.2629 H         1 RES1    0.0000
     87 C37        5.9388    1.2618    2.3273 C.ar      1 RES1    0.0000
     88 H51        5.7934    0.8629    3.1778 H         1 RES1    0.0000
     89 N1         8.4148    4.0251    3.8278 N.3       1 RES1    0.0000
     90 O1         7.1927    3.4029    4.3343 O.3       1 RES1    0.0000
     91 O2         0.5208    3.8651    2.7733 O.2       1 RES1    0.0000
     92 O3         3.6112    4.8507    2.2935 O.2       1 RES1    0.0000
     93 O4         3.0400    2.8883    1.3830 O.3       1 RES1    0.0000
     94 O5         3.6641    0.7369    4.6428 O.2       1 RES1    0.0000
     95 O6         2.2176    1.0571    2.9792 O.3       1 RES1    0.0000
@<TRIPOS>BOND
     1    1    2 1
     2    2    3 1
     3    4    2 1
     4    5    4 1
     5    6    4 1
     6    7    4 1
     7    8    7 1
     8    9    7 1
     9   10    1 1
    10   11   10 1
    11   12   10 1
    12   13   12 1
    13   14   15 1
    14   15   16 1
    15   17   15 1
    16   18   15 1
    17   19   18 1
    18   20   18 1
    19   21   18 1
    20   22   21 1
    21   23   21 1
    22   24   21 1
    23   25   24 1
    24   26   25 1
    25   27   25 1
    26   28   25 1
    27   29   24 1
    28   30   29 1
    29   31   29 1
    30   32   29 1
    31   33   14 1
    32   34   33 1
    33   35   33 1
    34   36   33 1
    35   37   14 1
    36   38   37 1
    37   39   37 1
    38   40   37 1
    39   41    2 1
    40   42   41 1
    41   43   41 1
    42   44   43 1
    43   45   43 1
    44   46   43 1
    45   47   46 1
    46   48   46 1
    47   49   46 1
    48   50   41 1
    49   51   50 1
    50   52   51 ar
    51   53   52 1
    52   54   52 ar
    53   55   54 1
    54   56   54 ar
    55   57   56 1
    56   58   56 ar
    57   59   58 1
    58   60   51 ar
    59   61   60 1
    60   62    1 1
    61   63   64 1
    62   65   63 1
    63   66   63 1
    64   67   66 1
    65   68   66 1
    66   69   66 1
    67   70    1 1
    68   71   72 1
    69   73   71 1
    70   74   71 1
    71   75   74 1
    72   76   74 1
    73   77   74 1
    74   78   12 1
    75   79   78 ar
    76   80   79 1
    77   81   79 ar
    78   82   81 1
    79   83   81 ar
    80   84   83 1
    81   85   83 ar
    82   86   85 1
    83   87   78 ar
    84   88   87 1
    85   89   14 1
    86   90   12 1
    87   91   50 2
    88   92   62 2
    89   93   62 1
    90   94   70 2
    91   95   70 1
    92    7   10 1
    93   24   89 1
    94   58   60 ar
    95   63   93 1
    96   71   95 1
    97   85   87 ar
    98   89   90 1
@<TRIPOS>SUBSTRUCTURE
     1 RES1 1

@<TRIPOS>CRYSIN
  15.4952    7.9020   27.6179  90.0000  99.0100  90.0000 231 1

