# MOL2 file generated by ConQuest
# Please check atom types

@<TRIPOS>MOLECULE
NOHFOH
    88    90     1
SMALL
NO_CHARGES
****
Generated from CSD

@<TRIPOS>ATOM
      1 C1         6.7153   16.7703    5.4817 C.3       1 RES1    0.0000
      2 C2         7.3421   17.8666    4.5657 C.3       1 RES1    0.0000
      3 H1         6.7393   17.9369    3.7703 H         1 RES1    0.0000
      4 C3         8.6393   17.2130    4.0550 C.3       1 RES1    0.0000
      5 H2         8.8355   17.5083    3.1306 H         1 RES1    0.0000
      6 H3         9.4026   17.4613    4.6345 H         1 RES1    0.0000
      7 C4         8.4063   15.6917    4.0932 C.3       1 RES1    0.0000
      8 H4         9.0945   15.2548    4.6541 H         1 RES1    0.0000
      9 H5         8.4595   15.3128    3.1789 H         1 RES1    0.0000
     10 C5         7.0039   15.4561    4.6870 C.3       1 RES1    0.0000
     11 H6         7.0646   14.7018    5.3421 H         1 RES1    0.0000
     12 C6         5.9541   15.0842    3.6234 C.3       1 RES1    0.0000
     13 H7         5.0548   15.0723    4.0601 H         1 RES1    0.0000
     14 C7         6.1837   16.2961    0.3037 C.3       1 RES1    0.0000
     15 C8         5.4385   16.1128   -1.0307 C.3       1 RES1    0.0000
     16 H8         5.9967   16.4797   -1.7611 H         1 RES1    0.0000
     17 H9         5.3192   15.1442   -1.1998 H         1 RES1    0.0000
     18 C9         4.0829   16.7858   -1.0670 C.3       1 RES1    0.0000
     19 H10        3.6336   16.5958   -1.9282 H         1 RES1    0.0000
     20 H11        4.1893   17.7654   -0.9817 H         1 RES1    0.0000
     21 C10        3.2480   16.2538    0.0832 C.3       1 RES1    0.0000
     22 H12        3.0976   15.2852   -0.0509 H         1 RES1    0.0000
     23 H13        2.3651   16.7009    0.0731 H         1 RES1    0.0000
     24 C11        3.9021   16.4725    1.4580 C.3       1 RES1    0.0000
     25 C12        3.8597   17.9510    1.8657 C.3       1 RES1    0.0000
     26 H14        4.1786   18.5037    1.1227 H         1 RES1    0.0000
     27 H15        4.4351   18.0917    2.6463 H         1 RES1    0.0000
     28 H16        2.9389   18.2023    2.0888 H         1 RES1    0.0000
     29 C13        3.0698   15.6861    2.4764 C.3       1 RES1    0.0000
     30 H17        3.2991   15.9820    3.3826 H         1 RES1    0.0000
     31 H18        3.2618   14.7294    2.3852 H         1 RES1    0.0000
     32 H19        2.1171   15.8465    2.3121 H         1 RES1    0.0000
     33 C14        6.7117   17.7375    0.4371 C.3       1 RES1    0.0000
     34 H20        7.0083   17.8926    1.3577 H         1 RES1    0.0000
     35 H21        5.9967   18.3682    0.2141 H         1 RES1    0.0000
     36 H22        7.4652   17.8678   -0.1749 H         1 RES1    0.0000
     37 C15        7.3775   15.3441    0.2843 C.3       1 RES1    0.0000
     38 H23        7.0570   14.4170    0.2807 H         1 RES1    0.0000
     39 H24        7.9287   15.4953    1.0797 H         1 RES1    0.0000
     40 H25        7.9128   15.5064   -0.5196 H         1 RES1    0.0000
     41 C16        7.4949   19.3133    5.1130 C.3       1 RES1    0.0000
     42 H26        6.7184   19.5130    5.7116 H         1 RES1    0.0000
     43 C17        8.7927   19.6404    5.8635 C.3       1 RES1    0.0000
     44 H27        8.9332   18.9738    6.5824 H         1 RES1    0.0000
     45 H28        9.5580   19.5821    5.2377 H         1 RES1    0.0000
     46 C18        8.7435   21.0401    6.4726 C.3       1 RES1    0.0000
     47 H29        8.0313   21.0780    7.1450 H         1 RES1    0.0000
     48 H30        8.5636   21.6973    5.7677 H         1 RES1    0.0000
     49 H31        9.6039   21.2411    6.8957 H         1 RES1    0.0000
     50 C19        7.4015   20.2039    3.8719 C.2       1 RES1    0.0000
     51 C20        6.0730   20.7293    3.4186 C.ar      1 RES1    0.0000
     52 C21        5.9695   21.1911    2.1008 C.ar      1 RES1    0.0000
     53 H32        6.7250   21.1526    1.5248 H         1 RES1    0.0000
     54 C22        4.7744   21.7037    1.6331 C.ar      1 RES1    0.0000
     55 H33        4.7083   22.0098    0.7363 H         1 RES1    0.0000
     56 C23        3.6757   21.7709    2.4694 C.ar      1 RES1    0.0000
     57 H34        2.8568   22.1287    2.1463 H         1 RES1    0.0000
     58 C24        3.7619   21.3202    3.7734 C.ar      1 RES1    0.0000
     59 H35        3.0044   21.3683    4.3447 H         1 RES1    0.0000
     60 C25        4.9587   20.7979    4.2475 C.ar      1 RES1    0.0000
     61 H36        5.0161   20.4863    5.1424 H         1 RES1    0.0000
     62 C26        5.2316   16.9680    5.7545 C.2       1 RES1    0.0000
     63 C27        3.3985   16.0702    6.9758 C.3       1 RES1    0.0000
     64 H37        2.8084   15.8520    6.2116 H         1 RES1    0.0000
     65 H38        3.1800   16.9829    7.2899 H         1 RES1    0.0000
     66 C28        3.2034   15.0795    8.0828 C.3       1 RES1    0.0000
     67 H39        3.7794   15.3184    8.8396 H         1 RES1    0.0000
     68 H40        3.4367   14.1819    7.7638 H         1 RES1    0.0000
     69 H41        2.2663   15.0916    8.3696 H         1 RES1    0.0000
     70 C29        7.4308   16.7247    6.8300 C.2       1 RES1    0.0000
     71 C30        7.4862   17.7721    8.9872 C.3       1 RES1    0.0000
     72 H42        7.6759   18.7194    9.1999 H         1 RES1    0.0000
     73 H43        8.3358   17.2677    9.0393 H         1 RES1    0.0000
     74 C31        6.5028   17.2163    9.9762 C.3       1 RES1    0.0000
     75 H44        6.3333   16.2723    9.7730 H         1 RES1    0.0000
     76 H45        5.6633   17.7184    9.9192 H         1 RES1    0.0000
     77 H46        6.8700   17.2954   10.8814 H         1 RES1    0.0000
     78 C32        6.2236   13.7036    3.0459 C.3       1 RES1    0.0000
     79 H47        7.1244   13.6815    2.6606 H         1 RES1    0.0000
     80 H48        5.5648   13.5073    2.3473 H         1 RES1    0.0000
     81 H49        6.1549   13.0317    3.7572 H         1 RES1    0.0000
     82 N1         5.2605   15.8390    1.3949 N.3       1 RES1    0.0000
     83 O1         5.9682   16.1449    2.6371 O.3       1 RES1    0.0000
     84 O2         8.4006   20.4381    3.2149 O.2       1 RES1    0.0000
     85 O3         4.5382   17.8415    5.3098 O.2       1 RES1    0.0000
     86 O4         4.7904   15.9972    6.5724 O.3       1 RES1    0.0000
     87 O5         8.3330   15.9856    7.1180 O.2       1 RES1    0.0000
     88 O6         6.9345   17.6695    7.6449 O.3       1 RES1    0.0000
@<TRIPOS>BOND
     1    1    2 1
     2    2    3 1
     3    4    2 1
     4    5    4 1
     5    6    4 1
     6    7    4 1
     7    8    7 1
     8    9    7 1
     9   10    1 1
    10   11   10 1
    11   12   10 1
    12   13   12 1
    13   14   15 1
    14   15   16 1
    15   17   15 1
    16   18   15 1
    17   19   18 1
    18   20   18 1
    19   21   18 1
    20   22   21 1
    21   23   21 1
    22   24   21 1
    23   25   24 1
    24   26   25 1
    25   27   25 1
    26   28   25 1
    27   29   24 1
    28   30   29 1
    29   31   29 1
    30   32   29 1
    31   33   14 1
    32   34   33 1
    33   35   33 1
    34   36   33 1
    35   37   14 1
    36   38   37 1
    37   39   37 1
    38   40   37 1
    39   41    2 1
    40   42   41 1
    41   43   41 1
    42   44   43 1
    43   45   43 1
    44   46   43 1
    45   47   46 1
    46   48   46 1
    47   49   46 1
    48   50   41 1
    49   51   50 1
    50   52   51 ar
    51   53   52 1
    52   54   52 ar
    53   55   54 1
    54   56   54 ar
    55   57   56 1
    56   58   56 ar
    57   59   58 1
    58   60   51 ar
    59   61   60 1
    60   62    1 1
    61   63   64 1
    62   65   63 1
    63   66   63 1
    64   67   66 1
    65   68   66 1
    66   69   66 1
    67   70    1 1
    68   71   72 1
    69   73   71 1
    70   74   71 1
    71   75   74 1
    72   76   74 1
    73   77   74 1
    74   78   12 1
    75   79   78 1
    76   80   78 1
    77   81   78 1
    78   82   14 1
    79   83   12 1
    80   84   50 2
    81   85   62 2
    82   86   62 1
    83   87   70 2
    84   88   70 1
    85    7   10 1
    86   24   82 1
    87   58   60 ar
    88   63   86 1
    89   71   88 1
    90   82   83 1
@<TRIPOS>SUBSTRUCTURE
     1 RES1 1

@<TRIPOS>CRYSIN
   8.3933   27.6505   13.2507  90.0000  99.8580  90.0000  14 1

