# MOL2 file generated by ConQuest
# Please check atom types

@<TRIPOS>MOLECULE
NOHGEY
    81    83     1
SMALL
NO_CHARGES
****
Generated from CSD

@<TRIPOS>ATOM
      1 C1         1.0152    4.3217   14.4227 C.3       1 RES1    0.0000
      2 C2        -0.3327    3.8732   13.7806 C.3       1 RES1    0.0000
      3 H1        -0.7513    3.1957   14.3853 H         1 RES1    0.0000
      4 C3         0.1297    3.1509   12.5085 C.3       1 RES1    0.0000
      5 H2        -0.5787    2.5507   12.1668 H         1 RES1    0.0000
      6 H3         0.3662    3.8021   11.8008 H         1 RES1    0.0000
      7 C4         1.3527    2.3538   12.9414 C.3       1 RES1    0.0000
      8 H4         1.9753    2.2381   12.1795 H         1 RES1    0.0000
      9 H5         1.0823    1.4587   13.2650 H         1 RES1    0.0000
     10 C5         2.0366    3.1540   14.0790 C.3       1 RES1    0.0000
     11 H6         2.8727    3.5645   13.7166 H         1 RES1    0.0000
     12 C6         2.4121    2.2298   15.2066 C.3       1 RES1    0.0000
     13 H7         1.5907    1.8599   15.6181 H         1 RES1    0.0000
     14 H8         2.9463    1.4744   14.8512 H         1 RES1    0.0000
     15 C7         5.4834    2.5840   16.5783 C.3       1 RES1    0.0000
     16 C8         6.4681    1.5858   17.1830 C.3       1 RES1    0.0000
     17 H9         6.4244    0.7398   16.6703 H         1 RES1    0.0000
     18 H10        7.3866    1.9453   17.0950 H         1 RES1    0.0000
     19 C9         6.1906    1.2931   18.6396 C.3       1 RES1    0.0000
     20 H11        6.3394    2.1110   19.1772 H         1 RES1    0.0000
     21 H12        6.8120    0.5939   18.9633 H         1 RES1    0.0000
     22 C10        4.7542    0.8211   18.8150 C.3       1 RES1    0.0000
     23 H13        4.5700    0.7148   19.7826 H         1 RES1    0.0000
     24 H14        4.6590   -0.0688   18.3928 H         1 RES1    0.0000
     25 C11        3.7091    1.7640   18.2174 C.3       1 RES1    0.0000
     26 C12        2.3704    1.0388   18.1732 C.3       1 RES1    0.0000
     27 H15        2.4236    0.2917   17.5419 H         1 RES1    0.0000
     28 H16        1.6706    1.6619   17.8842 H         1 RES1    0.0000
     29 H17        2.1550    0.6971   19.0663 H         1 RES1    0.0000
     30 C13        3.5335    3.0081   19.0951 C.3       1 RES1    0.0000
     31 H18        3.0790    3.7083   18.5814 H         1 RES1    0.0000
     32 H19        4.4127    3.3322   19.3817 H         1 RES1    0.0000
     33 H20        2.9974    2.7789   19.8824 H         1 RES1    0.0000
     34 C14        5.7141    4.0000   17.1167 C.3       1 RES1    0.0000
     35 H21        5.9051    3.9573   18.0775 H         1 RES1    0.0000
     36 H22        4.9116    4.5408   16.9667 H         1 RES1    0.0000
     37 H23        6.4741    4.4064   16.6513 H         1 RES1    0.0000
     38 C15        5.6871    2.6080   15.0573 C.3       1 RES1    0.0000
     39 H24        5.1281    3.3103   14.6642 H         1 RES1    0.0000
     40 H25        5.4345    1.7401   14.6800 H         1 RES1    0.0000
     41 H26        6.6295    2.7893   14.8559 H         1 RES1    0.0000
     42 C16       -1.3698    4.9742   13.5117 C.3       1 RES1    0.0000
     43 H27       -1.0197    5.5713   12.7896 H         1 RES1    0.0000
     44 C17       -1.7249    5.8383   14.7327 C.3       1 RES1    0.0000
     45 H28       -2.0325    5.2473   15.4644 H         1 RES1    0.0000
     46 H29       -0.9087    6.3038   15.0445 H         1 RES1    0.0000
     47 C18       -2.8054    6.8737   14.4484 C.3       1 RES1    0.0000
     48 H30       -3.6305    6.4195   14.1761 H         1 RES1    0.0000
     49 H31       -2.5078    7.4677   13.7277 H         1 RES1    0.0000
     50 H32       -2.9747    7.3999   15.2568 H         1 RES1    0.0000
     51 C19       -2.6325    4.2824   13.0000 C.2       1 RES1    0.0000
     52 C20       -3.1514    4.5471   11.6288 C.ar      1 RES1    0.0000
     53 C21       -2.5642    5.4400   10.7386 C.ar      1 RES1    0.0000
     54 H33       -1.8284    5.9672   11.0275 H         1 RES1    0.0000
     55 C22       -3.0269    5.5796    9.4381 C.ar      1 RES1    0.0000
     56 H34       -2.6118    6.1934    8.8438 H         1 RES1    0.0000
     57 C23       -4.1014    4.8159    9.0170 C.ar      1 RES1    0.0000
     58 C24       -4.7377    3.9532    9.9009 C.ar      1 RES1    0.0000
     59 H35       -5.4964    3.4551    9.6187 H         1 RES1    0.0000
     60 C25       -4.2631    3.8229   11.1870 C.ar      1 RES1    0.0000
     61 H36       -4.6997    3.2290   11.7865 H         1 RES1    0.0000
     62 C26        0.8589    4.5617   15.9267 C.2       1 RES1    0.0000
     63 C27        1.3696    6.0610   17.7116 C.3       1 RES1    0.0000
     64 H37        0.7743    5.4275   18.1853 H         1 RES1    0.0000
     65 H38        2.2641    6.0183   18.1345 H         1 RES1    0.0000
     66 C28        0.8462    7.3885   17.8305 C.3       1 RES1    0.0000
     67 H39       -0.0894    7.3978   17.5371 H         1 RES1    0.0000
     68 H40        1.3701    7.9970   17.2693 H         1 RES1    0.0000
     69 H41        0.8996    7.6771   18.7652 H         1 RES1    0.0000
     70 C29        1.4908    5.5223   13.7141 C.1       1 RES1    0.0000
     71 C30       -3.8781    5.5400    6.7548 C.3       1 RES1    0.0000
     72 H42       -2.9505    5.2233    6.7600 H         1 RES1    0.0000
     73 H43       -3.8958    6.5028    6.9391 H         1 RES1    0.0000
     74 H44       -4.2761    5.3692    5.8758 H         1 RES1    0.0000
     75 N1         4.1289    2.0124   16.8107 N.3       1 RES1    0.0000
     76 N2         1.8361    6.4011   13.0678 N.1       1 RES1    0.0000
     77 O1         3.1750    2.9299   16.2024 O.3       1 RES1    0.0000
     78 O2        -3.1966    3.4798   13.7258 O.2       1 RES1    0.0000
     79 O3         0.2399    3.8194   16.6387 O.2       1 RES1    0.0000
     80 O4         1.4754    5.6739   16.3138 O.3       1 RES1    0.0000
     81 O5        -4.6243    4.8493    7.7587 O.3       1 RES1    0.0000
@<TRIPOS>BOND
     1    1    2 1
     2    2    3 1
     3    4    2 1
     4    5    4 1
     5    6    4 1
     6    7    4 1
     7    8    7 1
     8    9    7 1
     9   10    1 1
    10   11   10 1
    11   12   10 1
    12   13   12 1
    13   14   12 1
    14   15   16 1
    15   16   17 1
    16   18   16 1
    17   19   16 1
    18   20   19 1
    19   21   19 1
    20   22   19 1
    21   23   22 1
    22   24   22 1
    23   25   22 1
    24   26   25 1
    25   27   26 1
    26   28   26 1
    27   29   26 1
    28   30   25 1
    29   31   30 1
    30   32   30 1
    31   33   30 1
    32   34   15 1
    33   35   34 1
    34   36   34 1
    35   37   34 1
    36   38   15 1
    37   39   38 1
    38   40   38 1
    39   41   38 1
    40   42    2 1
    41   43   42 1
    42   44   42 1
    43   45   44 1
    44   46   44 1
    45   47   44 1
    46   48   47 1
    47   49   47 1
    48   50   47 1
    49   51   42 1
    50   52   51 1
    51   53   52 ar
    52   54   53 1
    53   55   53 ar
    54   56   55 1
    55   57   55 ar
    56   58   57 ar
    57   59   58 1
    58   60   52 ar
    59   61   60 1
    60   62    1 1
    61   63   64 1
    62   65   63 1
    63   66   63 1
    64   67   66 1
    65   68   66 1
    66   69   66 1
    67   70    1 1
    68   71   72 1
    69   73   71 1
    70   74   71 1
    71   75   15 1
    72   76   70 3
    73   77   12 1
    74   78   51 2
    75   79   62 2
    76   80   62 1
    77   81   57 1
    78    7   10 1
    79   25   75 1
    80   58   60 ar
    81   63   80 1
    82   71   81 1
    83   75   77 1
@<TRIPOS>SUBSTRUCTURE
     1 RES1 1

@<TRIPOS>CRYSIN
  17.0090   10.4195   16.1522  90.0000 101.1680  90.0000  14 1

