# MOL2 file generated by ConQuest
# Please check atom types

@<TRIPOS>MOLECULE
NOHGAU
    77    79     1
SMALL
NO_CHARGES
****
Generated from CSD

@<TRIPOS>ATOM
      1 C1         2.6137    6.1910    3.1831 C.3       1 RES1    0.0000
      2 C2         3.1565    7.5829    3.7327 C.3       1 RES1    0.0000
      3 H1         3.7171    7.9825    3.0079 H         1 RES1    0.0000
      4 C3         4.1060    7.2087    4.8733 C.3       1 RES1    0.0000
      5 H2         4.8001    7.9033    4.9984 H         1 RES1    0.0000
      6 H3         3.6104    7.0923    5.7225 H         1 RES1    0.0000
      7 C4         4.7245    5.8939    4.4186 C.3       1 RES1    0.0000
      8 H4         5.1618    5.4236    5.1725 H         1 RES1    0.0000
      9 H5         5.3882    6.0408    3.6984 H         1 RES1    0.0000
     10 C5         3.5186    5.1118    3.9061 C.3       1 RES1    0.0000
     11 H6         3.0121    4.7942    4.7081 H         1 RES1    0.0000
     12 C6         3.8834    3.8831    3.0950 C.3       1 RES1    0.0000
     13 H7         4.4823    4.1305    2.3464 H         1 RES1    0.0000
     14 H8         4.3486    3.2198    3.6648 H         1 RES1    0.0000
     15 C7         2.6513    1.9087    0.7056 C.3       1 RES1    0.0000
     16 C8         2.7293    0.4249    0.3011 C.3       1 RES1    0.0000
     17 H9         2.5163    0.3427   -0.6615 H         1 RES1    0.0000
     18 H10        3.6565    0.1038    0.4338 H         1 RES1    0.0000
     19 C9         1.7914   -0.4555    1.0860 C.3       1 RES1    0.0000
     20 H11        1.9017   -1.3982    0.8066 H         1 RES1    0.0000
     21 H12        0.8549   -0.1871    0.9135 H         1 RES1    0.0000
     22 C10        2.1060   -0.3146    2.5601 C.3       1 RES1    0.0000
     23 H13        3.0232   -0.6486    2.7253 H         1 RES1    0.0000
     24 H14        1.4809   -0.8821    3.0782 H         1 RES1    0.0000
     25 C11        2.0028    1.1299    3.0670 C.3       1 RES1    0.0000
     26 C12        0.5382    1.5777    3.1727 C.3       1 RES1    0.0000
     27 H15        0.0722    1.3696    2.3357 H         1 RES1    0.0000
     28 H16        0.5034    2.5439    3.3348 H         1 RES1    0.0000
     29 H17        0.1054    1.1060    3.9138 H         1 RES1    0.0000
     30 C13        2.6184    1.1953    4.4654 C.3       1 RES1    0.0000
     31 H18        2.4965    2.0946    4.8334 H         1 RES1    0.0000
     32 H19        3.5755    0.9913    4.4102 H         1 RES1    0.0000
     33 H20        2.1778    0.5421    5.0473 H         1 RES1    0.0000
     34 C14        1.3376    2.5446    0.2226 C.3       1 RES1    0.0000
     35 H21        1.2253    3.4219    0.6447 H         1 RES1    0.0000
     36 H22        0.5859    1.9649    0.4659 H         1 RES1    0.0000
     37 H23        1.3650    2.6517   -0.7516 H         1 RES1    0.0000
     38 C15        3.8317    2.6302    0.0625 C.3       1 RES1    0.0000
     39 H24        4.6691    2.2667    0.4186 H         1 RES1    0.0000
     40 H25        3.7787    3.5871    0.2643 H         1 RES1    0.0000
     41 H26        3.8058    2.4988   -0.9089 H         1 RES1    0.0000
     42 C16        2.1078    8.6337    4.1148 C.3       1 RES1    0.0000
     43 H27        1.5405    8.2761    4.8578 H         1 RES1    0.0000
     44 C17        1.2013    9.0868    2.9628 C.3       1 RES1    0.0000
     45 H28        1.7496    9.5351    2.2716 H         1 RES1    0.0000
     46 H29        0.7759    8.2939    2.5496 H         1 RES1    0.0000
     47 C18        0.1228   10.0418    3.4492 C.3       1 RES1    0.0000
     48 H30        0.5421   10.8459    3.8206 H         1 RES1    0.0000
     49 H31       -0.4139    9.6034    4.1429 H         1 RES1    0.0000
     50 H32       -0.4559   10.2915    2.6978 H         1 RES1    0.0000
     51 C19        2.8862    9.8513    4.6186 C.2       1 RES1    0.0000
     52 C20        2.8338   10.2773    6.0506 C.ar      1 RES1    0.0000
     53 C21        3.6558   11.3292    6.4461 C.ar      1 RES1    0.0000
     54 H33        4.1828   11.7813    5.7989 H         1 RES1    0.0000
     55 C22        3.7134   11.7235    7.7702 C.ar      1 RES1    0.0000
     56 H34        4.2929   12.4285    8.0353 H         1 RES1    0.0000
     57 C23        2.9195   11.0815    8.7067 C.ar      1 RES1    0.0000
     58 H35        2.9592   11.3443    9.6194 H         1 RES1    0.0000
     59 C24        2.0748   10.0677    8.3252 C.ar      1 RES1    0.0000
     60 H36        1.5185    9.6470    8.9702 H         1 RES1    0.0000
     61 C25        2.0307    9.6547    7.0026 C.ar      1 RES1    0.0000
     62 H37        1.4522    8.9466    6.7460 H         1 RES1    0.0000
     63 C26        2.8186    6.1872    1.6677 C.2       1 RES1    0.0000
     64 C27        1.7844    6.3333   -0.4693 C.3       1 RES1    0.0000
     65 H38        0.9582    5.9876   -0.8921 H         1 RES1    0.0000
     66 H39        2.5420    5.7787   -0.7806 H         1 RES1    0.0000
     67 C28        2.0026    7.7581   -0.8921 C.3       1 RES1    0.0000
     68 H40        2.8708    8.0686   -0.5606 H         1 RES1    0.0000
     69 H41        1.2910    8.3212   -0.5209 H         1 RES1    0.0000
     70 H42        1.9871    7.8146   -1.8698 H         1 RES1    0.0000
     71 C29        1.2121    5.9547    3.5607 C.1       1 RES1    0.0000
     72 N1         2.8653    1.9594    2.1761 N.3       1 RES1    0.0000
     73 N2         0.1501    5.7743    3.9439 N.1       1 RES1    0.0000
     74 O1         2.6645    3.3388    2.5954 O.3       1 RES1    0.0000
     75 O2         3.5881   10.4618    3.8319 O.2       1 RES1    0.0000
     76 O3         3.9058    6.2011    1.1703 O.2       1 RES1    0.0000
     77 O4         1.6676    6.2223    0.9875 O.3       1 RES1    0.0000
@<TRIPOS>BOND
     1    1    2 1
     2    2    3 1
     3    4    2 1
     4    5    4 1
     5    6    4 1
     6    7    4 1
     7    8    7 1
     8    9    7 1
     9   10    1 1
    10   11   10 1
    11   12   10 1
    12   13   12 1
    13   14   12 1
    14   15   16 1
    15   16   17 1
    16   18   16 1
    17   19   16 1
    18   20   19 1
    19   21   19 1
    20   22   19 1
    21   23   22 1
    22   24   22 1
    23   25   22 1
    24   26   25 1
    25   27   26 1
    26   28   26 1
    27   29   26 1
    28   30   25 1
    29   31   30 1
    30   32   30 1
    31   33   30 1
    32   34   15 1
    33   35   34 1
    34   36   34 1
    35   37   34 1
    36   38   15 1
    37   39   38 1
    38   40   38 1
    39   41   38 1
    40   42    2 1
    41   43   42 1
    42   44   42 1
    43   45   44 1
    44   46   44 1
    45   47   44 1
    46   48   47 1
    47   49   47 1
    48   50   47 1
    49   51   42 1
    50   52   51 1
    51   53   52 ar
    52   54   53 1
    53   55   53 ar
    54   56   55 1
    55   57   55 ar
    56   58   57 1
    57   59   57 ar
    58   60   59 1
    59   61   52 ar
    60   62   61 1
    61   63    1 1
    62   64   65 1
    63   66   64 1
    64   67   64 1
    65   68   67 1
    66   69   67 1
    67   70   67 1
    68   71    1 1
    69   72   15 1
    70   73   71 3
    71   74   12 1
    72   75   51 2
    73   76   63 2
    74   77   63 1
    75    7   10 1
    76   25   72 1
    77   59   61 ar
    78   64   77 1
    79   72   74 1
@<TRIPOS>SUBSTRUCTURE
     1 RES1 1

@<TRIPOS>CRYSIN
  13.2259   13.6547   16.0165  90.0000 107.4880  90.0000  14 1

