# MOL2 file generated by ConQuest
# Please check atom types

@<TRIPOS>MOLECULE
NOHGIC
    85    87     1
SMALL
NO_CHARGES
****
Generated from CSD

@<TRIPOS>ATOM
      1 C1         7.0499    4.2938    4.5195 C.3       1 RES1    0.0000
      2 C2         6.5225    2.8420    4.2631 C.3       1 RES1    0.0000
      3 H1         5.6137    2.8141    4.6810 H         1 RES1    0.0000
      4 C3         7.4075    1.9084    5.1447 C.3       1 RES1    0.0000
      5 H2         6.8598    1.4612    5.8360 H         1 RES1    0.0000
      6 H3         7.8444    1.2155    4.5877 H         1 RES1    0.0000
      7 C4         8.4548    2.8164    5.7918 C.3       1 RES1    0.0000
      8 H4         9.2726    2.8589    5.2369 H         1 RES1    0.0000
      9 H5         8.6971    2.4845    6.6932 H         1 RES1    0.0000
     10 C5         7.7899    4.1942    5.8833 C.3       1 RES1    0.0000
     11 H6         8.4926    4.9040    5.9364 H         1 RES1    0.0000
     12 C6         6.8531    4.3137    7.0763 C.3       1 RES1    0.0000
     13 H7         6.3099    5.1381    7.0089 H         1 RES1    0.0000
     14 H8         6.2440    3.5353    7.1201 H         1 RES1    0.0000
     15 C7         7.6187    6.2422    9.6707 C.3       1 RES1    0.0000
     16 C8         6.8163    6.8316   10.8405 C.3       1 RES1    0.0000
     17 H9         7.2532    7.6675   11.1410 H         1 RES1    0.0000
     18 H10        5.9076    7.0633   10.5241 H         1 RES1    0.0000
     19 C9         6.6996    5.8795   12.0216 C.3       1 RES1    0.0000
     20 H11        7.5963    5.7062   12.4036 H         1 RES1    0.0000
     21 H12        6.1367    6.2872   12.7265 H         1 RES1    0.0000
     22 C10        6.0757    4.5735   11.5553 C.3       1 RES1    0.0000
     23 H13        5.1454    4.7479   11.2630 H         1 RES1    0.0000
     24 H14        6.0406    3.9443   12.3176 H         1 RES1    0.0000
     25 C11        6.8413    3.9131   10.4021 C.3       1 RES1    0.0000
     26 C12        5.9726    2.7953    9.8214 C.3       1 RES1    0.0000
     27 H15        5.1510    3.1797    9.4480 H         1 RES1    0.0000
     28 H16        5.7433    2.1579   10.5313 H         1 RES1    0.0000
     29 H17        6.4664    2.3313    9.1144 H         1 RES1    0.0000
     30 C13        8.1592    3.2907   10.8935 C.3       1 RES1    0.0000
     31 H18        8.7340    3.0930   10.1259 H         1 RES1    0.0000
     32 H19        7.9673    2.4628   11.3814 H         1 RES1    0.0000
     33 H20        8.6166    3.9212   11.4890 H         1 RES1    0.0000
     34 C14        9.1184    6.1612    9.9972 C.3       1 RES1    0.0000
     35 H21        9.2391    5.7539   10.8792 H         1 RES1    0.0000
     36 H22        9.5018    7.0633    9.9968 H         1 RES1    0.0000
     37 H23        9.5710    5.6137    9.3225 H         1 RES1    0.0000
     38 C15        7.4561    7.1626    8.4573 C.3       1 RES1    0.0000
     39 H24        8.0042    6.8277    7.7155 H         1 RES1    0.0000
     40 H25        7.7449    8.0693    8.6947 H         1 RES1    0.0000
     41 H26        6.5144    7.1804    8.1854 H         1 RES1    0.0000
     42 C16        6.3133    2.4088    2.7992 C.3       1 RES1    0.0000
     43 H27        5.7221    3.0901    2.3674 H         1 RES1    0.0000
     44 C17        5.5815    1.0419    2.7228 C.3       1 RES1    0.0000
     45 H28        5.6271    0.7039    1.7935 H         1 RES1    0.0000
     46 H29        6.0506    0.3917    3.3036 H         1 RES1    0.0000
     47 C18        4.1238    1.1266    3.1490 C.3       1 RES1    0.0000
     48 H30        4.0736    1.4078    4.0855 H         1 RES1    0.0000
     49 H31        3.7026    0.2472    3.0489 H         1 RES1    0.0000
     50 H32        3.6568    1.7792    2.5862 H         1 RES1    0.0000
     51 C19        7.5916    2.3361    1.9857 C.2       1 RES1    0.0000
     52 C20        7.5233    2.3896    0.4842 C.ar      1 RES1    0.0000
     53 C21        8.7316    2.3550   -0.2120 C.ar      1 RES1    0.0000
     54 H33        9.5476    2.2619    0.2654 H         1 RES1    0.0000
     55 C22        8.7503    2.4549   -1.5940 C.ar      1 RES1    0.0000
     56 H34        9.5777    2.4296   -2.0625 H         1 RES1    0.0000
     57 C23        7.5672    2.5903   -2.2917 C.ar      1 RES1    0.0000
     58 H35        7.5828    2.6637   -3.2390 H         1 RES1    0.0000
     59 C24        6.3596    2.6188   -1.6217 C.ar      1 RES1    0.0000
     60 H36        5.5477    2.7057   -2.1055 H         1 RES1    0.0000
     61 C25        6.3358    2.5188   -0.2299 C.ar      1 RES1    0.0000
     62 H37        5.5064    2.5394    0.2332 H         1 RES1    0.0000
     63 C26        5.8979    5.3006    4.5705 C.2       1 RES1    0.0000
     64 C27        5.4227    7.6296    4.7427 C.3       1 RES1    0.0000
     65 H38        5.7902    8.3887    5.2620 H         1 RES1    0.0000
     66 H39        4.5911    7.3278    5.1867 H         1 RES1    0.0000
     67 C28        5.1075    8.0829    3.3477 C.3       1 RES1    0.0000
     68 H40        5.9378    8.3237    2.8875 H         1 RES1    0.0000
     69 H41        4.5162    8.8628    3.3825 H         1 RES1    0.0000
     70 H42        4.6626    7.3582    2.8624 H         1 RES1    0.0000
     71 C29        8.0332    4.8557    3.4818 C.2       1 RES1    0.0000
     72 C30        8.1813    5.7757    1.3046 C.3       1 RES1    0.0000
     73 H43        8.9139    5.1815    1.0008 H         1 RES1    0.0000
     74 H44        8.5809    6.6052    1.6715 H         1 RES1    0.0000
     75 C31        7.2757    6.1013    0.1603 C.3       1 RES1    0.0000
     76 H45        6.9134    5.2726   -0.2152 H         1 RES1    0.0000
     77 H46        7.7807    6.5806   -0.5309 H         1 RES1    0.0000
     78 H47        6.5390    6.6644    0.4771 H         1 RES1    0.0000
     79 N1         6.9583    4.9479    9.3379 N.3       1 RES1    0.0000
     80 O1         7.6972    4.3577    8.2349 O.3       1 RES1    0.0000
     81 O2         8.6822    2.2378    2.5238 O.2       1 RES1    0.0000
     82 O3         4.7266    5.0367    4.5030 O.2       1 RES1    0.0000
     83 O4         6.3871    6.5397    4.7262 O.3       1 RES1    0.0000
     84 O5         9.1944    5.0945    3.6594 O.2       1 RES1    0.0000
     85 O6         7.3869    5.1118    2.3225 O.3       1 RES1    0.0000
@<TRIPOS>BOND
     1    1    2 1
     2    2    3 1
     3    4    2 1
     4    5    4 1
     5    6    4 1
     6    7    4 1
     7    8    7 1
     8    9    7 1
     9   10    1 1
    10   11   10 1
    11   12   10 1
    12   13   12 1
    13   14   12 1
    14   15   16 1
    15   16   17 1
    16   18   16 1
    17   19   16 1
    18   20   19 1
    19   21   19 1
    20   22   19 1
    21   23   22 1
    22   24   22 1
    23   25   22 1
    24   26   25 1
    25   27   26 1
    26   28   26 1
    27   29   26 1
    28   30   25 1
    29   31   30 1
    30   32   30 1
    31   33   30 1
    32   34   15 1
    33   35   34 1
    34   36   34 1
    35   37   34 1
    36   38   15 1
    37   39   38 1
    38   40   38 1
    39   41   38 1
    40   42    2 1
    41   43   42 1
    42   44   42 1
    43   45   44 1
    44   46   44 1
    45   47   44 1
    46   48   47 1
    47   49   47 1
    48   50   47 1
    49   51   42 1
    50   52   51 1
    51   53   52 ar
    52   54   53 1
    53   55   53 ar
    54   56   55 1
    55   57   55 ar
    56   58   57 1
    57   59   57 ar
    58   60   59 1
    59   61   52 ar
    60   62   61 1
    61   63    1 1
    62   64   65 1
    63   66   64 1
    64   67   64 1
    65   68   67 1
    66   69   67 1
    67   70   67 1
    68   71    1 1
    69   72   73 1
    70   74   72 1
    71   75   72 1
    72   76   75 1
    73   77   75 1
    74   78   75 1
    75   79   15 1
    76   80   12 1
    77   81   51 2
    78   82   63 2
    79   83   63 1
    80   84   71 2
    81   85   71 1
    82    7   10 1
    83   25   79 1
    84   59   61 ar
    85   64   83 1
    86   72   85 1
    87   79   80 1
@<TRIPOS>SUBSTRUCTURE
     1 RES1 1

@<TRIPOS>CRYSIN
  11.1759   14.4533   35.8694  90.0000  90.0000  90.0000  61 1

