# MOL2 file generated by ConQuest
# Please check atom types

@<TRIPOS>MOLECULE
NOHQUX
    48    49     1
SMALL
USER_CHARGES
****
Generated from CSD

@<TRIPOS>ATOM
      1 O1        11.7823    9.0654    2.0521 O.2       1 RES1   -1.0000
      2 N1        11.8781   10.2549    1.5076 N.pl3     1 RES1    1.0000
      3 C1        12.4242   11.2967    2.2147 C.ar      1 RES1    0.0000
      4 C2        12.4753   12.5347    1.6029 C.ar      1 RES1    0.0000
      5 H1        12.8315   13.2729    2.0823 H         1 RES1    0.0000
      6 C3        12.0242   12.7252    0.3182 C.ar      1 RES1    0.0000
      7 H2        12.0685   13.5825   -0.0884 H         1 RES1    0.0000
      8 C4        11.5056   11.6485   -0.3694 C.ar      1 RES1    0.0000
      9 H3        11.1956   11.7552   -1.2609 H         1 RES1    0.0000
     10 C5        11.4414   10.4357    0.2360 C.ar      1 RES1    0.0000
     11 H4        11.0824    9.6964   -0.2419 H         1 RES1    0.0000
     12 C6        12.8627   10.9836    3.6278 C.3       1 RES1    0.0000
     13 H5        13.1712   10.0326    3.6440 H         1 RES1    0.0000
     14 C7        11.6714   11.0969    4.5704 C.3       1 RES1    0.0000
     15 H6        11.9280   10.7776    5.4611 H         1 RES1    0.0000
     16 H7        10.9313   10.5524    4.2285 H         1 RES1    0.0000
     17 H8        11.3884   12.0338    4.6275 H         1 RES1    0.0000
     18 N2        13.9550   11.8111    4.1424 N.pl3     1 RES1    0.0000
     19 H9        13.7114   12.6432    4.2064 H         1 RES1    0.0000
     20 C8        15.2697   11.6122    3.6530 C.ar      1 RES1    0.0000
     21 C9        15.8904   10.3584    3.8369 C.ar      1 RES1    0.0000
     22 C10       17.1407   10.1503    3.2492 C.ar      1 RES1    0.0000
     23 H10       17.5511    9.2973    3.3285 H         1 RES1    0.0000
     24 C11       17.7948   11.1420    2.5598 C.ar      1 RES1    0.0000
     25 H11       18.6214   10.9622    2.1277 H         1 RES1    0.0000
     26 C12       17.2376   12.3962    2.5034 C.ar      1 RES1    0.0000
     27 H12       17.7190   13.0958    2.0774 H         1 RES1    0.0000
     28 C13       15.9926   12.6714    3.0511 C.ar      1 RES1    0.0000
     29 C14       15.3124    9.2553    4.7069 C.3       1 RES1    0.0000
     30 H13       14.4414    9.5833    5.0732 H         1 RES1    0.0000
     31 C15       16.2313    8.9482    5.8955 C.3       1 RES1    0.0000
     32 H14       17.0968    8.6270    5.5655 H         1 RES1    0.0000
     33 H15       15.8202    8.2577    6.4569 H         1 RES1    0.0000
     34 H16       16.3646    9.7615    6.4237 H         1 RES1    0.0000
     35 C16       15.0295    7.9791    3.9087 C.3       1 RES1    0.0000
     36 H17       14.3704    8.1712    3.2094 H         1 RES1    0.0000
     37 H18       14.6763    7.2897    4.5096 H         1 RES1    0.0000
     38 H19       15.8602    7.6600    3.4979 H         1 RES1    0.0000
     39 C17       15.4947   14.1071    3.1159 C.3       1 RES1    0.0000
     40 H20       14.5000   14.0830    3.0179 H         1 RES1    0.0000
     41 C18       15.8043   14.6823    4.5034 C.3       1 RES1    0.0000
     42 H21       16.7731   14.6850    4.6471 H         1 RES1    0.0000
     43 H22       15.3737   14.1300    5.1898 H         1 RES1    0.0000
     44 H23       15.4634   15.5997    4.5600 H         1 RES1    0.0000
     45 C19       16.0368   15.0166    2.0215 C.3       1 RES1    0.0000
     46 H24       15.5845   15.8846    2.0651 H         1 RES1    0.0000
     47 H25       15.8738   14.6071    1.1467 H         1 RES1    0.0000
     48 H26       16.9997   15.1429    2.1498 H         1 RES1    0.0000
@<TRIPOS>BOND
     1    1    2 1
     2    2    3 ar
     3    3    4 ar
     4    4    5 1
     5    6    4 ar
     6    7    6 1
     7    8    6 ar
     8    9    8 1
     9   10    2 ar
    10   11   10 1
    11   12    3 1
    12   13   12 1
    13   14   12 1
    14   15   14 1
    15   16   14 1
    16   17   14 1
    17   18   12 1
    18   19   18 1
    19   20   18 1
    20   21   20 ar
    21   22   21 ar
    22   23   22 1
    23   24   22 ar
    24   25   24 1
    25   26   24 ar
    26   27   26 1
    27   28   20 ar
    28   29   21 1
    29   30   29 1
    30   31   29 1
    31   32   31 1
    32   33   31 1
    33   34   31 1
    34   35   29 1
    35   36   35 1
    36   37   35 1
    37   38   35 1
    38   39   28 1
    39   40   39 1
    40   41   39 1
    41   42   41 1
    42   43   41 1
    43   44   41 1
    44   45   39 1
    45   46   45 1
    46   47   45 1
    47   48   45 1
    48    8   10 ar
    49   26   28 ar
@<TRIPOS>SUBSTRUCTURE
     1 RES1 1

@<TRIPOS>CRYSIN
  13.2400   10.6730   13.2570  90.0000 112.1600  90.0000  14 1

