# MOL2 file generated by ConQuest
# Please check atom types

@<TRIPOS>MOLECULE
NOHROS01
    49    51     1
SMALL
NO_CHARGES
****
Generated from CSD

@<TRIPOS>ATOM
      1 O1        -0.4451    0.3239    7.3101 O.2       1 RES1    0.0000
      2 N1        -2.1178   -1.2429   10.5786 N.2       1 RES1    0.0000
      3 N2        -0.4034   -0.9582    7.4650 N.pl3     1 RES1    0.0000
      4 C1        -1.5807   -0.7053    9.5568 C.2       1 RES1    0.0000
      5 H1        -1.5932    0.2179    9.4481 H         1 RES1    0.0000
      6 C2        -0.9418   -1.5635    8.5543 C.ar      1 RES1    0.0000
      7 C3        -0.8803   -2.9641    8.7002 C.ar      1 RES1    0.0000
      8 H2        -1.2604   -3.3596    9.4513 H         1 RES1    0.0000
      9 C4        -0.2775   -3.7513    7.7663 C.ar      1 RES1    0.0000
     10 H3        -0.2405   -4.6741    7.8775 H         1 RES1    0.0000
     11 C5         0.2937   -3.1374    6.6203 C.ar      1 RES1    0.0000
     12 C6         0.2196   -1.7364    6.4712 C.ar      1 RES1    0.0000
     13 C7         0.7448   -1.0912    5.3413 C.ar      1 RES1    0.0000
     14 H4         0.6874   -0.1675    5.2556 H         1 RES1    0.0000
     15 C8         1.3461   -1.8496    4.3619 C.ar      1 RES1    0.0000
     16 H5         1.6916   -1.4332    3.6060 H         1 RES1    0.0000
     17 C9         1.4434   -3.2439    4.4914 C.ar      1 RES1    0.0000
     18 H6         1.8595   -3.7428    3.8261 H         1 RES1    0.0000
     19 C10        0.9280   -3.8730    5.5939 C.ar      1 RES1    0.0000
     20 H7         0.9963   -4.7980    5.6680 H         1 RES1    0.0000
     21 C11       -2.7558   -0.4233   11.5552 C.ar      1 RES1    0.0000
     22 C12       -2.0827   -0.1852   12.7710 C.ar      1 RES1    0.0000
     23 C13       -2.7709    0.4989   13.7712 C.ar      1 RES1    0.0000
     24 H8        -2.3498    0.6610   14.5841 H         1 RES1    0.0000
     25 C14       -4.0736    0.9437   13.5794 C.ar      1 RES1    0.0000
     26 H9        -4.5205    1.3882   14.2636 H         1 RES1    0.0000
     27 C15       -4.7053    0.7218   12.3639 C.ar      1 RES1    0.0000
     28 H10       -5.5706    1.0374   12.2367 H         1 RES1    0.0000
     29 C16       -4.0715    0.0360   11.3296 C.ar      1 RES1    0.0000
     30 C17       -0.6427   -0.6451   12.9573 C.3       1 RES1    0.0000
     31 H11       -0.1542   -0.4167   12.1384 H         1 RES1    0.0000
     32 C18        0.0747    0.0367   14.1209 C.3       1 RES1    0.0000
     33 H12        0.0037    0.9900   14.0264 H         1 RES1    0.0000
     34 H13        1.0004   -0.2173   14.1193 H         1 RES1    0.0000
     35 H14       -0.3294   -0.2338   14.9484 H         1 RES1    0.0000
     36 C19       -0.5626   -2.1618   13.1283 C.3       1 RES1    0.0000
     37 H15       -1.0297   -2.4192   13.9270 H         1 RES1    0.0000
     38 H16        0.3569   -2.4278   13.1962 H         1 RES1    0.0000
     39 H17       -0.9651   -2.5914   12.3703 H         1 RES1    0.0000
     40 C20       -4.7930   -0.2518   10.0215 C.3       1 RES1    0.0000
     41 H18       -4.1284   -0.2105    9.3018 H         1 RES1    0.0000
     42 C21       -5.3723   -1.6659   10.0344 C.3       1 RES1    0.0000
     43 H19       -4.6674   -2.2994   10.1864 H         1 RES1    0.0000
     44 H20       -5.7902   -1.8487    9.1896 H         1 RES1    0.0000
     45 H21       -6.0243   -1.7380   10.7356 H         1 RES1    0.0000
     46 C22       -5.8893    0.7621    9.6941 C.3       1 RES1    0.0000
     47 H22       -6.6139    0.6622   10.3157 H         1 RES1    0.0000
     48 H23       -6.2095    0.6105    8.8017 H         1 RES1    0.0000
     49 H24       -5.5330    1.6506    9.7590 H         1 RES1    0.0000
@<TRIPOS>BOND
     1    1    3 1
     2    2    4 2
     3    3    6 ar
     4    4    5 1
     5    6    4 1
     6    7    6 ar
     7    8    7 1
     8    9    7 ar
     9   10    9 1
    10   11    9 ar
    11   12    3 ar
    12   13   12 ar
    13   14   13 1
    14   15   13 ar
    15   16   15 1
    16   17   15 ar
    17   18   17 1
    18   19   11 ar
    19   20   19 1
    20   21    2 1
    21   22   21 ar
    22   23   22 ar
    23   24   23 1
    24   25   23 ar
    25   26   25 1
    26   27   25 ar
    27   28   27 1
    28   29   21 ar
    29   30   22 1
    30   31   30 1
    31   32   30 1
    32   33   32 1
    33   34   32 1
    34   35   32 1
    35   36   30 1
    36   37   36 1
    37   38   36 1
    38   39   36 1
    39   40   29 1
    40   41   40 1
    41   42   40 1
    42   43   42 1
    43   44   42 1
    44   45   42 1
    45   46   40 1
    46   47   46 1
    47   48   46 1
    48   49   46 1
    49   11   12 ar
    50   17   19 ar
    51   27   29 ar
@<TRIPOS>SUBSTRUCTURE
     1 RES1 1

@<TRIPOS>CRYSIN
   7.8275   10.8435   11.4514 104.8940 101.5370 100.6490   2 1

