# MOL2 file generated by ConQuest
# Please check atom types

@<TRIPOS>MOLECULE
NOHREJ
    54    57     1
SMALL
NO_CHARGES
****
Generated from CSD

@<TRIPOS>ATOM
      1 O1         0.5144    4.3556    5.9905 O.3       1 RES1    0.0000
      2 O2         1.3010    3.3376    2.6515 O.3       1 RES1    0.0000
      3 C1         1.1423    3.5578    4.9870 C.3       1 RES1    0.0000
      4 O3         0.8615    2.1972    5.1643 O.3       1 RES1    0.0000
      5 O4         1.5678    5.2286    9.2905 O.3       1 RES1    0.0000
      6 C2         0.6846    4.1145    3.6610 C.3       1 RES1    0.0000
      7 H1        -0.2807    4.0584    3.5879 H         1 RES1    0.0000
      8 H2         0.9471    5.0449    3.5766 H         1 RES1    0.0000
      9 C3         0.9716    3.7522    1.3580 C.3       1 RES1    0.0000
     10 H3         1.2104    4.6859    1.2456 H         1 RES1    0.0000
     11 H4         0.0148    3.6674    1.2231 H         1 RES1    0.0000
     12 C4         1.6960    2.9241    0.3439 C.ar      1 RES1    0.0000
     13 N1         4.4555    5.4263    5.3372 N.pl3     1 RES1    0.0000
     14 C5         1.3127    4.2926    7.1853 C.3       1 RES1    0.0000
     15 H5         1.0726    3.4882    7.6903 H         1 RES1    0.0000
     16 O5         5.2932    4.5657    5.4825 O.2       1 RES1    0.0000
     17 C6         2.3318    1.7387    0.6743 C.ar      1 RES1    0.0000
     18 H6         2.3228    1.4393    1.5548 H         1 RES1    0.0000
     19 C7         3.0446    5.1157    5.5554 C.3       1 RES1    0.0000
     20 H7         2.3937    5.8258    5.3729 H         1 RES1    0.0000
     21 C8         2.7262    4.1561    6.6787 C.3       1 RES1    0.0000
     22 H8         3.4365    3.8168    7.2616 H         1 RES1    0.0000
     23 O6         4.7183    6.5729    5.0055 O.2       1 RES1    0.0000
     24 C9         1.7354    3.3511   -0.9814 C.ar      1 RES1    0.0000
     25 H9         1.3174    4.1460   -1.2231 H         1 RES1    0.0000
     26 C10        2.6242    3.7022    5.2636 C.3       1 RES1    0.0000
     27 H10        3.2649    3.0561    4.8990 H         1 RES1    0.0000
     28 C11        2.9815    0.9966   -0.2970 C.ar      1 RES1    0.0000
     29 H11        3.4004    0.2000   -0.0654 H         1 RES1    0.0000
     30 C12        1.0185    5.5089    8.0230 C.3       1 RES1    0.0000
     31 H12        1.4309    6.2982    7.6384 H         1 RES1    0.0000
     32 H13        0.0624    5.6572    8.0897 H         1 RES1    0.0000
     33 C13        2.3898    2.6039   -1.9386 C.ar      1 RES1    0.0000
     34 H14        2.4097    2.9000   -2.8207 H         1 RES1    0.0000
     35 C14        1.7303    5.7100   11.6064 C.ar      1 RES1    0.0000
     36 C15       -0.5162    1.8354    5.0111 C.3       1 RES1    0.0000
     37 H15       -0.6149    0.8893    5.1382 H         1 RES1    0.0000
     38 H16       -0.8131    2.0724    4.1295 H         1 RES1    0.0000
     39 H17       -1.0440    2.3028    5.6639 H         1 RES1    0.0000
     40 C16        1.3229    6.2241   10.2574 C.3       1 RES1    0.0000
     41 H18        0.3811    6.4533   10.2628 H         1 RES1    0.0000
     42 H19        1.8296    7.0229   10.0417 H         1 RES1    0.0000
     43 C17        3.0105    1.4281   -1.6015 C.ar      1 RES1    0.0000
     44 H20        3.4484    0.9270   -2.2498 H         1 RES1    0.0000
     45 C18        1.2863    6.3516   12.7353 C.ar      1 RES1    0.0000
     46 H21        0.7434    7.1021   12.6525 H         1 RES1    0.0000
     47 C19        2.5311    4.6134   11.7686 C.ar      1 RES1    0.0000
     48 H22        2.8469    4.1606   11.0210 H         1 RES1    0.0000
     49 C20        2.8792    4.1668   13.0384 C.ar      1 RES1    0.0000
     50 H23        3.4268    3.4219   13.1399 H         1 RES1    0.0000
     51 C21        1.6314    5.9027   13.9882 C.ar      1 RES1    0.0000
     52 H24        1.3172    6.3527   14.7398 H         1 RES1    0.0000
     53 C22        2.4050    4.8381   14.1425 C.ar      1 RES1    0.0000
     54 H25        2.6275    4.5443   14.9971 H         1 RES1    0.0000
@<TRIPOS>BOND
     1    1    3 1
     2    2    6 1
     3    3    4 1
     4    4   36 1
     5    5   30 1
     6    6    3 1
     7    7    6 1
     8    8    6 1
     9    9    2 1
    10   10    9 1
    11   11    9 1
    12   12    9 1
    13   13   16 2
    14   14    1 1
    15   15   14 1
    16   17   12 ar
    17   18   17 1
    18   19   13 1
    19   20   19 1
    20   21   14 1
    21   22   21 1
    22   23   13 2
    23   24   12 ar
    24   25   24 1
    25   26    3 1
    26   27   26 1
    27   28   17 ar
    28   29   28 1
    29   30   14 1
    30   31   30 1
    31   32   30 1
    32   33   24 ar
    33   34   33 1
    34   35   40 1
    35   36   37 1
    36   38   36 1
    37   39   36 1
    38   40    5 1
    39   41   40 1
    40   42   40 1
    41   43   28 ar
    42   44   43 1
    43   45   35 ar
    44   46   45 1
    45   47   35 ar
    46   48   47 1
    47   49   47 ar
    48   50   49 1
    49   51   45 ar
    50   52   51 1
    51   53   49 ar
    52   54   53 1
    53   19   21 1
    54   19   26 1
    55   21   26 1
    56   33   43 ar
    57   51   53 ar
@<TRIPOS>SUBSTRUCTURE
     1 RES1 1

@<TRIPOS>CRYSIN
   8.3112    5.6179   22.5691  90.0000  91.0180  90.0000   4 1

