# MOL2 file generated by ConQuest
# Please check atom types

@<TRIPOS>MOLECULE
NOHRUY
    51    53     1
SMALL
USER_CHARGES
****
Generated from CSD

@<TRIPOS>ATOM
      1 N1         4.4388    7.3211    1.3957 N.pl3     1 RES1    1.0000
      2 O1         5.2320    8.1966    0.8450 O.2       1 RES1   -1.0000
      3 C1         4.8516    6.6118    2.4649 C.ar      1 RES1    0.0000
      4 C2         4.0192    5.6307    3.0209 C.ar      1 RES1    0.0000
      5 H1         4.3253    5.1285    3.7543 H         1 RES1    0.0000
      6 C3         2.7769    5.3913    2.5207 C.ar      1 RES1    0.0000
      7 H2         2.2272    4.7322    2.9067 H         1 RES1    0.0000
      8 C4         2.3207    6.1399    1.4178 C.ar      1 RES1    0.0000
      9 C5         3.1622    7.1263    0.8592 C.ar      1 RES1    0.0000
     10 C6         6.2022    6.9796    2.9822 C.3       1 RES1    0.0000
     11 H3         6.8558    6.8918    2.2576 H         1 RES1    0.0000
     12 H4         6.1917    7.9192    3.2622 H         1 RES1    0.0000
     13 N2         6.6304    6.1535    4.1104 N.pl3     1 RES1    0.0000
     14 H5         6.4018    6.5472    4.8716 H         1 RES1    0.0000
     15 C7         8.0132    5.7997    4.1081 C.ar      1 RES1    0.0000
     16 C8         8.9191    6.3925    5.0079 C.ar      1 RES1    0.0000
     17 C9        10.2578    6.0155    4.9463 C.ar      1 RES1    0.0000
     18 H6        10.8685    6.3907    5.5539 H         1 RES1    0.0000
     19 C10       10.7066    5.1039    4.0138 C.ar      1 RES1    0.0000
     20 H7        11.6176    4.8787    3.9732 H         1 RES1    0.0000
     21 C11        9.8094    4.5272    3.1433 C.ar      1 RES1    0.0000
     22 H8        10.1199    3.9030    2.5124 H         1 RES1    0.0000
     23 C12        8.4551    4.8429    3.1737 C.ar      1 RES1    0.0000
     24 C13        8.4628    7.4115    6.0384 C.3       1 RES1    0.0000
     25 H9         7.6677    7.8709    5.6675 H         1 RES1    0.0000
     26 C14        8.0214    6.6984    7.3145 C.3       1 RES1    0.0000
     27 H10        7.3014    6.0809    7.1079 H         1 RES1    0.0000
     28 H11        7.7113    7.3531    7.9592 H         1 RES1    0.0000
     29 H12        8.7718    6.2092    7.6868 H         1 RES1    0.0000
     30 C15        9.5053    8.4807    6.3461 C.3       1 RES1    0.0000
     31 H13       10.2363    8.0857    6.8475 H         1 RES1    0.0000
     32 H14        9.0994    9.1880    6.8706 H         1 RES1    0.0000
     33 H15        9.8453    8.8483    5.5151 H         1 RES1    0.0000
     34 C16        7.5105    4.1634    2.1906 C.3       1 RES1    0.0000
     35 H16        6.5919    4.4758    2.3868 H         1 RES1    0.0000
     36 C17        7.5323    2.6472    2.3425 C.3       1 RES1    0.0000
     37 H17        8.4285    2.3178    2.1745 H         1 RES1    0.0000
     38 H18        6.9169    2.2496    1.7063 H         1 RES1    0.0000
     39 H19        7.2633    2.4077    3.2437 H         1 RES1    0.0000
     40 C18        7.8407    4.5530    0.7482 C.3       1 RES1    0.0000
     41 H20        7.7427    5.5115    0.6417 H         1 RES1    0.0000
     42 H21        7.2341    4.0961    0.1431 H         1 RES1    0.0000
     43 H22        8.7540    4.2976    0.5448 H         1 RES1    0.0000
     44 C19        2.7519    7.8979   -0.2355 C.ar      1 RES1    0.0000
     45 H23        3.3146    8.5669   -0.5817 H         1 RES1    0.0000
     46 C20        1.5317    7.6721   -0.7942 C.ar      1 RES1    0.0000
     47 H24        1.2543    8.1873   -1.5300 H         1 RES1    0.0000
     48 C21        0.6826    6.6785   -0.2838 C.ar      1 RES1    0.0000
     49 H25       -0.1502    6.5205   -0.6897 H         1 RES1    0.0000
     50 C22        1.0625    5.9427    0.7989 C.ar      1 RES1    0.0000
     51 H26        0.4778    5.2917    1.1413 H         1 RES1    0.0000
@<TRIPOS>BOND
     1    1    2 1
     2    3    1 ar
     3    4    3 ar
     4    5    4 1
     5    6    4 ar
     6    7    6 1
     7    8    6 ar
     8    9    1 ar
     9   10    3 1
    10   11   10 1
    11   12   10 1
    12   13   10 1
    13   14   13 1
    14   15   13 1
    15   16   15 ar
    16   17   16 ar
    17   18   17 1
    18   19   17 ar
    19   20   19 1
    20   21   19 ar
    21   22   21 1
    22   23   15 ar
    23   24   16 1
    24   25   24 1
    25   26   24 1
    26   27   26 1
    27   28   26 1
    28   29   26 1
    29   30   24 1
    30   31   30 1
    31   32   30 1
    32   33   30 1
    33   34   23 1
    34   35   34 1
    35   36   34 1
    36   37   36 1
    37   38   36 1
    38   39   36 1
    39   40   34 1
    40   41   40 1
    41   42   40 1
    42   43   40 1
    43   44    9 ar
    44   45   44 1
    45   46   44 ar
    46   47   46 1
    47   48   46 ar
    48   49   48 1
    49   50    8 ar
    50   51   50 1
    51    8    9 ar
    52   21   23 ar
    53   48   50 ar
@<TRIPOS>SUBSTRUCTURE
     1 RES1 1

@<TRIPOS>CRYSIN
  24.0440   16.6510    9.2700  90.0000  95.0900  90.0000  15 1

