# MOL2 file generated by ConQuest
# Please check atom types

@<TRIPOS>MOLECULE
NOHROT
    46    48     1
SMALL
USER_CHARGES
****
Generated from CSD

@<TRIPOS>ATOM
      1 O1        -3.3129   11.9285    2.9431 O.3       1 RES1    0.0000
      2 O2        -4.4987   13.4916    4.9927 O.3       1 RES1    0.0000
      3 O3        -1.2102   11.4942    2.0162 O.3       1 RES1    0.0000
      4 O4        -1.9221   12.6983   -0.2333 O.3       1 RES1    0.0000
      5 O5        -0.0645   13.9526   -0.3895 O.2       1 RES1   -1.0000
      6 O6        -1.8960   16.1081    2.7224 O.3       1 RES1    0.0000
      7 O7        -0.0232   16.0978    1.4934 O.2       1 RES1    0.0000
      8 N1        -1.1225   13.7960    0.2291 N.pl3     1 RES1    1.0000
      9 C1        -1.7183   14.4460    1.1893 C.2       1 RES1    0.0000
     10 C2        -3.1875   13.3527    3.0223 C.3       1 RES1    0.0000
     11 H1        -2.3936   13.5891    3.5472 H         1 RES1    0.0000
     12 C3        -4.4023   13.9334    3.6576 C.3       1 RES1    0.0000
     13 H2        -4.3518   14.9011    3.6347 H         1 RES1    0.0000
     14 H3        -5.1920   13.6586    3.1660 H         1 RES1    0.0000
     15 C4        -2.9430   12.5091    0.7769 C.3       1 RES1    0.0000
     16 H4        -3.8082   12.3053    0.3645 H         1 RES1    0.0000
     17 C5        -2.5951   11.4779    1.8225 C.3       1 RES1    0.0000
     18 H5        -2.8994   10.5870    1.5497 H         1 RES1    0.0000
     19 C6        -5.7385   13.5433    7.0402 C.ar      1 RES1    0.0000
     20 C7        -1.0940   15.6279    1.7684 C.2       1 RES1    0.0000
     21 C8        -3.0086   13.8299    1.5643 C.3       1 RES1    0.0000
     22 H6        -3.7647   14.3810    1.2727 H         1 RES1    0.0000
     23 C9        -4.8123   13.6615    8.0421 C.ar      1 RES1    0.0000
     24 H7        -4.0359   14.1535    7.8963 H         1 RES1    0.0000
     25 C10       -5.5242   14.1816    5.6884 C.3       1 RES1    0.0000
     26 H8        -6.3471   14.1476    5.1760 H         1 RES1    0.0000
     27 H9        -5.2739   15.1123    5.8009 H         1 RES1    0.0000
     28 C11       -0.7601   10.5280    2.9556 C.3       1 RES1    0.0000
     29 H10        0.1928   10.5930    3.0494 H         1 RES1    0.0000
     30 H11       -0.9930    9.6489    2.6474 H         1 RES1    0.0000
     31 H12       -1.1771   10.6875    3.8055 H         1 RES1    0.0000
     32 C12       -1.4152   17.2767    3.4701 C.3       1 RES1    0.0000
     33 H13       -0.4942   17.1452    3.7451 H         1 RES1    0.0000
     34 H14       -1.4616   18.0730    2.9181 H         1 RES1    0.0000
     35 C13       -5.0167   13.0573    9.2772 C.ar      1 RES1    0.0000
     36 H15       -4.3825   13.1370    9.9542 H         1 RES1    0.0000
     37 C14       -6.1572   12.3496    9.4814 C.ar      1 RES1    0.0000
     38 H16       -6.3041   11.9463   10.3062 H         1 RES1    0.0000
     39 C15       -6.8650   12.8268    7.2922 C.ar      1 RES1    0.0000
     40 H17       -7.5085   12.7455    6.6257 H         1 RES1    0.0000
     41 C16       -2.2763   17.4171    4.6345 C.3       1 RES1    0.0000
     42 H18       -1.9889   18.1720    5.1552 H         1 RES1    0.0000
     43 H19       -2.2218   16.6208    5.1718 H         1 RES1    0.0000
     44 H20       -3.1817   17.5486    4.3491 H         1 RES1    0.0000
     45 C17       -7.0787   12.2211    8.5107 C.ar      1 RES1    0.0000
     46 H21       -7.8522   11.7261    8.6586 H         1 RES1    0.0000
@<TRIPOS>BOND
     1    1   10 1
     2    2   12 1
     3    3   17 1
     4    4    8 1
     5    5    8 1
     6    6   20 1
     7    7   20 2
     8    8    9 2
     9    9   20 1
    10   10   11 1
    11   12   10 1
    12   13   12 1
    13   14   12 1
    14   15    4 1
    15   16   15 1
    16   17    1 1
    17   18   17 1
    18   19   23 ar
    19   21    9 1
    20   22   21 1
    21   23   24 1
    22   25    2 1
    23   26   25 1
    24   27   25 1
    25   28    3 1
    26   29   28 1
    27   30   28 1
    28   31   28 1
    29   32    6 1
    30   33   32 1
    31   34   32 1
    32   35   23 ar
    33   36   35 1
    34   37   35 ar
    35   38   37 1
    36   39   19 ar
    37   40   39 1
    38   41   32 1
    39   42   41 1
    40   43   41 1
    41   44   41 1
    42   45   37 ar
    43   46   45 1
    44   10   21 1
    45   15   17 1
    46   15   21 1
    47   19   25 1
    48   39   45 ar
@<TRIPOS>SUBSTRUCTURE
     1 RES1 1

@<TRIPOS>CRYSIN
   5.8070   14.7740   20.8290  90.0000  90.0000  90.0000  19 1

