# MOL2 file generated by ConQuest
# Please check atom types

@<TRIPOS>MOLECULE
NOJKUU
    50    53     1
SMALL
NO_CHARGES
****
Generated from CSD

@<TRIPOS>ATOM
      1 C1         6.8094    2.8765   19.6693 C.3       1 RES1    0.0000
      2 H1         6.7403    3.5534   20.3869 H         1 RES1    0.0000
      3 H2         6.1644    3.0980   18.9512 H         1 RES1    0.0000
      4 C2         8.2359    2.7968   19.1229 C.3       1 RES1    0.0000
      5 H3         8.7291    3.6489   19.3010 H         1 RES1    0.0000
      6 C3         8.8801    1.6371   19.8697 C.3       1 RES1    0.0000
      7 H4         9.2422    1.9341   20.7410 H         1 RES1    0.0000
      8 H5         9.6108    1.2352   19.3375 H         1 RES1    0.0000
      9 C4         7.7363    0.6486   20.0618 C.3       1 RES1    0.0000
     10 H6         7.6418    0.0703   19.2517 H         1 RES1    0.0000
     11 C5         7.8491   -0.2109   21.3032 C.2       1 RES1    0.0000
     12 C6         5.3598    1.0379   20.5238 C.2       1 RES1    0.0000
     13 C7         6.5298   -1.1009   23.2072 C.3       1 RES1    0.0000
     14 H7         7.3916   -1.5458   23.4514 H         1 RES1    0.0000
     15 C8         5.4130   -2.1167   23.2823 C.3       1 RES1    0.0000
     16 H8         5.2700   -2.3728   24.2282 H         1 RES1    0.0000
     17 H9         5.6807   -2.9301   22.7861 H         1 RES1    0.0000
     18 C9         4.1064   -1.5868   22.7052 C.3       1 RES1    0.0000
     19 H10        3.7720   -0.8406   23.2625 H         1 RES1    0.0000
     20 H11        3.4241   -2.3035   22.7046 H         1 RES1    0.0000
     21 C10        4.3447   -1.1019   21.2807 C.3       1 RES1    0.0000
     22 H12        4.5901   -1.8670   20.7024 H         1 RES1    0.0000
     23 H13        3.5163   -0.6958   20.9213 H         1 RES1    0.0000
     24 C11        7.3201    0.8532   24.3205 C.3       1 RES1    0.0000
     25 H14        7.4138    1.3947   23.5093 H         1 RES1    0.0000
     26 H15        8.1565    0.3705   24.4900 H         1 RES1    0.0000
     27 H16        7.1207    1.4367   25.0823 H         1 RES1    0.0000
     28 C12        7.9380    3.5671   16.8737 C.3       1 RES1    0.0000
     29 H17        8.6179    3.6353   16.1572 H         1 RES1    0.0000
     30 H18        7.9777    4.4014   17.4040 H         1 RES1    0.0000
     31 C13        6.5758    3.4590   16.2411 C.ar      1 RES1    0.0000
     32 C14        5.8110    2.3109   16.3458 C.ar      1 RES1    0.0000
     33 H19        6.1422    1.5679   16.8374 H         1 RES1    0.0000
     34 C15        4.5711    2.2343   15.7428 C.ar      1 RES1    0.0000
     35 H20        4.0437    1.4482   15.8159 H         1 RES1    0.0000
     36 C16        4.1136    3.3247   15.0327 C.ar      1 RES1    0.0000
     37 C17        4.8531    4.4812   14.8915 C.ar      1 RES1    0.0000
     38 H21        4.5195    5.2168   14.3910 H         1 RES1    0.0000
     39 C18        6.0929    4.5368   15.4986 C.ar      1 RES1    0.0000
     40 H22        6.6243    5.3186   15.4082 H         1 RES1    0.0000
     41 N1         6.5743    1.5259   20.1916 N.am      1 RES1    0.0000
     42 N2         6.6402   -0.5604   21.8408 N.am      1 RES1    0.0000
     43 N3         5.4225   -0.1133   21.2753 N.am      1 RES1    0.0000
     44 N4         2.7681    3.2606   14.4449 N.pl3     1 RES1    0.0000
     45 O1         8.9150   -0.5385   21.8041 O.2       1 RES1    0.0000
     46 O2         4.2899    1.5574   20.2165 O.2       1 RES1    0.0000
     47 O3         6.2581   -0.0834   24.1471 O.3       1 RES1    0.0000
     48 O4         8.2716    2.4715   17.7177 O.3       1 RES1    0.0000
     49 O5         2.1962    2.1745   14.4088 O.2       1 RES1    0.0000
     50 O6         2.2661    4.3006   14.0391 O.2       1 RES1    0.0000
@<TRIPOS>BOND
     1    1    2 1
     2    3    1 1
     3    4    1 1
     4    5    4 1
     5    6    4 1
     6    7    6 1
     7    8    6 1
     8    9    6 1
     9   10    9 1
    10   11    9 1
    11   12   41 1
    12   13   14 1
    13   15   13 1
    14   16   15 1
    15   17   15 1
    16   18   15 1
    17   19   18 1
    18   20   18 1
    19   21   18 1
    20   22   21 1
    21   23   21 1
    22   24   25 1
    23   26   24 1
    24   27   24 1
    25   28   29 1
    26   30   28 1
    27   31   28 1
    28   32   31 ar
    29   33   32 1
    30   34   32 ar
    31   35   34 1
    32   36   34 ar
    33   37   36 ar
    34   38   37 1
    35   39   31 ar
    36   40   39 1
    37   41    1 1
    38   42   11 1
    39   43   12 1
    40   44   36 1
    41   45   11 2
    42   46   12 2
    43   47   13 1
    44   48    4 1
    45   49   44 2
    46   50   44 2
    47    9   41 1
    48   13   42 1
    49   21   43 1
    50   24   47 1
    51   28   48 1
    52   37   39 ar
    53   42   43 1
@<TRIPOS>SUBSTRUCTURE
     1 RES1 1

@<TRIPOS>CRYSIN
   7.9428   10.4945   21.4599  90.0000  90.0000  90.0000  19 1

