# MOL2 file generated by ConQuest
# Please check atom types

@<TRIPOS>MOLECULE
NOJTUC
    60    63     1
SMALL
NO_CHARGES
****
Generated from CSD

@<TRIPOS>ATOM
      1 O1         3.8116    1.2212    4.4589 O.3       1 RES1    0.0000
      2 O2         0.5356    1.3310   -0.3944 O.3       1 RES1    0.0000
      3 O3        -2.5160   -2.0755    9.2775 O.2       1 RES1    0.0000
      4 O4        -0.5381   -1.6711    9.9134 O.2       1 RES1    0.0000
      5 O5        -6.7755    0.3481    2.1382 O.2       1 RES1    0.0000
      6 O6        -6.9895    1.4024    4.0065 O.2       1 RES1    0.0000
      7 N1         1.4766    0.3160    3.7234 N.2       1 RES1    0.0000
      8 N2        -0.0592    1.8729    2.0865 N.2       1 RES1    0.0000
      9 N3        -1.4035   -1.6747    9.0711 N.pl3     1 RES1    0.0000
     10 N4        -6.3016    0.9391    3.0991 N.pl3     1 RES1    0.0000
     11 C1         0.0283    0.1714    3.8197 C.3       1 RES1    0.0000
     12 H1        -0.2650   -0.5356    3.1757 H         1 RES1    0.0000
     13 C2        -0.6114    1.5265    3.3975 C.3       1 RES1    0.0000
     14 H2        -0.3712    2.2344    4.0615 H         1 RES1    0.0000
     15 C3        -0.3709   -0.2544    5.2270 C.ar      1 RES1    0.0000
     16 C4         0.5187   -0.1776    6.2765 C.ar      1 RES1    0.0000
     17 H3         1.3757    0.2053    6.1325 H         1 RES1    0.0000
     18 C5         0.1901   -0.6463    7.5358 C.ar      1 RES1    0.0000
     19 H4         0.8223   -0.6231    8.2445 H         1 RES1    0.0000
     20 C6        -1.0670   -1.1426    7.7372 C.ar      1 RES1    0.0000
     21 C7        -1.9721   -1.2328    6.7387 C.ar      1 RES1    0.0000
     22 H5        -2.8368   -1.5899    6.9020 H         1 RES1    0.0000
     23 C8        -1.6175   -0.7981    5.4773 C.ar      1 RES1    0.0000
     24 H6        -2.2431   -0.8739    4.7661 H         1 RES1    0.0000
     25 C9        -2.1153    1.4185    3.2913 C.ar      1 RES1    0.0000
     26 C10       -2.9355    2.0300    4.2324 C.ar      1 RES1    0.0000
     27 H7        -2.5472    2.5513    4.9251 H         1 RES1    0.0000
     28 C11       -4.3102    1.8898    4.1706 C.ar      1 RES1    0.0000
     29 H8        -4.8705    2.3147    4.8088 H         1 RES1    0.0000
     30 C12       -4.8486    1.1176    3.1618 C.ar      1 RES1    0.0000
     31 C13       -4.0672    0.4910    2.2038 C.ar      1 RES1    0.0000
     32 H9        -4.4617   -0.0348    1.5186 H         1 RES1    0.0000
     33 C14       -2.6934    0.6552    2.2777 C.ar      1 RES1    0.0000
     34 H10       -2.1364    0.2419    1.6280 H         1 RES1    0.0000
     35 C15        2.0689   -0.3276    2.7858 C.2       1 RES1    0.0000
     36 H11        1.5518   -0.8766    2.2078 H         1 RES1    0.0000
     37 C16        3.5050   -0.2446    2.5794 C.ar      1 RES1    0.0000
     38 C17        4.3343    0.5151    3.4173 C.ar      1 RES1    0.0000
     39 C18        5.6977    0.5410    3.2036 C.ar      1 RES1    0.0000
     40 H12        6.2574    1.0400    3.7862 H         1 RES1    0.0000
     41 C19        6.2498   -0.1509    2.1522 C.ar      1 RES1    0.0000
     42 H13        7.1876   -0.1098    2.0025 H         1 RES1    0.0000
     43 C20        5.4554   -0.9070    1.3074 C.ar      1 RES1    0.0000
     44 H14        5.8408   -1.3890    0.5849 H         1 RES1    0.0000
     45 C21        4.0929   -0.9498    1.5317 C.ar      1 RES1    0.0000
     46 H15        3.5452   -1.4720    0.9577 H         1 RES1    0.0000
     47 C22        0.5812    2.9816    1.9646 C.2       1 RES1    0.0000
     48 H16        0.6490    3.5600    2.7139 H         1 RES1    0.0000
     49 C23        1.2021    3.3726    0.7140 C.ar      1 RES1    0.0000
     50 C24        1.1752    2.5451   -0.4186 C.ar      1 RES1    0.0000
     51 C25        1.8041    2.9334   -1.5904 C.ar      1 RES1    0.0000
     52 H17        1.7990    2.3576   -2.3463 H         1 RES1    0.0000
     53 C26        2.4400    4.1573   -1.6593 C.ar      1 RES1    0.0000
     54 H18        2.8680    4.4233   -2.4660 H         1 RES1    0.0000
     55 C27        2.4583    4.9964   -0.5660 C.ar      1 RES1    0.0000
     56 H19        2.8906    5.8409   -0.6208 H         1 RES1    0.0000
     57 C28        1.8464    4.6072    0.6114 C.ar      1 RES1    0.0000
     58 H20        1.8649    5.1892    1.3630 H         1 RES1    0.0000
     59 H21        2.9087    1.0623    4.4275 H         1 RES1    0.0000
     60 H22        0.3119    1.2408    0.5472 H         1 RES1    0.0000
@<TRIPOS>BOND
     1    1   38 1
     2    2   50 1
     3    3    9 2
     4    4    9 2
     5    5   10 2
     6    6   10 2
     7    7   11 1
     8    8   13 1
     9    9   20 1
    10   10   30 1
    11   11   12 1
    12   13   11 1
    13   14   13 1
    14   15   11 1
    15   16   15 ar
    16   17   16 1
    17   18   16 ar
    18   19   18 1
    19   20   18 ar
    20   21   20 ar
    21   22   21 1
    22   23   15 ar
    23   24   23 1
    24   25   13 1
    25   26   25 ar
    26   27   26 1
    27   28   26 ar
    28   29   28 1
    29   30   28 ar
    30   31   30 ar
    31   32   31 1
    32   33   25 ar
    33   34   33 1
    34   35    7 2
    35   36   35 1
    36   37   35 1
    37   38   37 ar
    38   39   38 ar
    39   40   39 1
    40   41   39 ar
    41   42   41 1
    42   43   41 ar
    43   44   43 1
    44   45   37 ar
    45   46   45 1
    46   47    8 2
    47   48   47 1
    48   49   47 1
    49   50   49 ar
    50   51   50 ar
    51   52   51 1
    52   53   51 ar
    53   54   53 1
    54   55   53 ar
    55   56   55 1
    56   57   49 ar
    57   58   57 1
    58   59    1 1
    59   60    2 1
    60   21   23 ar
    61   31   33 ar
    62   43   45 ar
    63   55   57 ar
@<TRIPOS>SUBSTRUCTURE
     1 RES1 1

@<TRIPOS>CRYSIN
  16.4941    8.9269   17.8748  90.0000 106.9190  90.0000 231 1

