# MOL2 file generated by ConQuest
# Please check atom types

@<TRIPOS>MOLECULE
NOKXUG
    61    66     1
SMALL
NO_CHARGES
****
Generated from CSD

@<TRIPOS>ATOM
      1 O1         3.1021    0.6666    2.8586 O.3       1 RES1    0.0000
      2 N1         5.9838    2.1508    2.1550 N.am      1 RES1    0.0000
      3 N2         3.2065    0.1476    4.1983 N.3       1 RES1    0.0000
      4 O2         3.8197    4.1676    4.5935 O.3       1 RES1    0.0000
      5 O3         4.4248    2.8759    6.3225 O.2       1 RES1    0.0000
      6 O4         6.9574    2.8479    4.1234 O.2       1 RES1    0.0000
      7 O5         5.9257    3.6468    0.4333 O.3       1 RES1    0.0000
      8 C1         4.6505    2.0346    4.0705 C.3       1 RES1    0.0000
      9 C2         4.6189    2.1024    1.6247 C.3       1 RES1    0.0000
     10 C3         3.7276    1.9820    2.8439 C.3       1 RES1    0.0000
     11 C4         6.0141    2.4061    3.4991 C.2       1 RES1    0.0000
     12 C5         2.1210    0.6234    5.0210 C.ar      1 RES1    0.0000
     13 C6         4.5513    0.5623    4.6273 C.3       1 RES1    0.0000
     14 C7         5.6365   -0.3816    4.1543 C.ar      1 RES1    0.0000
     15 C8         7.5985    1.8751    0.3070 C.ar      1 RES1    0.0000
     16 C9         6.8327    2.8411    1.1987 C.3       1 RES1    0.0000
     17 C10        4.2815    3.0540    5.1429 C.2       1 RES1    0.0000
     18 C11        7.7301    2.1313   -1.0459 C.ar      1 RES1    0.0000
     19 C12        6.8738   -0.3460    4.8124 C.ar      1 RES1    0.0000
     20 C13        7.8761   -1.2111    4.4260 C.ar      1 RES1    0.0000
     21 C14        8.1925    0.7650    0.8520 C.ar      1 RES1    0.0000
     22 C15        6.4845   -2.1313    2.7455 C.ar      1 RES1    0.0000
     23 C16        5.4620   -1.2772    3.1142 C.ar      1 RES1    0.0000
     24 C17        4.5911    3.4161    0.8432 C.3       1 RES1    0.0000
     25 C18        0.0380    1.7539    5.3750 C.ar      1 RES1    0.0000
     26 C19        1.0473    1.3332    4.5112 C.ar      1 RES1    0.0000
     27 C20        3.4291    5.2430    5.5248 C.3       1 RES1    0.0000
     28 C21        8.9007   -0.1052    0.0514 C.ar      1 RES1    0.0000
     29 C22        8.4433    1.2314   -1.8465 C.ar      1 RES1    0.0000
     30 C23        7.6822   -2.1126    3.4066 C.ar      1 RES1    0.0000
     31 C24        2.0592    5.0080    6.0404 C.3       1 RES1    0.0000
     32 C25        9.0213    0.1221   -1.3000 C.ar      1 RES1    0.0000
     33 C26        2.1391    0.2850    6.3695 C.ar      1 RES1    0.0000
     34 C27        0.0808    1.4494    6.7103 C.ar      1 RES1    0.0000
     35 C28        1.1073    0.7031    7.1965 C.ar      1 RES1    0.0000
     36 H1         4.4978    1.3561    1.0327 H         1 RES1    0.0000
     37 H2         3.0679    2.6791    2.8674 H         1 RES1    0.0000
     38 H3         4.5653    0.5852    5.5865 H         1 RES1    0.0000
     39 H4         7.4486    3.4102    1.6673 H         1 RES1    0.0000
     40 H5         7.3187    2.9081   -1.4323 H         1 RES1    0.0000
     41 H6         7.0130    0.2756    5.5307 H         1 RES1    0.0000
     42 H7         8.7259   -1.1797    4.8726 H         1 RES1    0.0000
     43 H8         8.1222    0.6022    1.7966 H         1 RES1    0.0000
     44 H9         6.3576   -2.7334    2.0096 H         1 RES1    0.0000
     45 H10        4.6214   -1.3052    2.6515 H         1 RES1    0.0000
     46 H11        4.0071    3.3644    0.0837 H         1 RES1    0.0000
     47 H12        4.2936    4.1235    1.4205 H         1 RES1    0.0000
     48 H13       -0.7083    2.2415    5.0195 H         1 RES1    0.0000
     49 H14        1.0205    1.5444    3.5755 H         1 RES1    0.0000
     50 H15        3.4535    6.0843    5.0636 H         1 RES1    0.0000
     51 H16        4.0530    5.2794    6.2534 H         1 RES1    0.0000
     52 H17        9.3005   -0.8947    0.4231 H         1 RES1    0.0000
     53 H18        8.5483    1.4112   -2.7837 H         1 RES1    0.0000
     54 H19        8.3752   -2.7343    3.1701 H         1 RES1    0.0000
     55 H20        1.8058    5.7111    6.6442 H         1 RES1    0.0000
     56 H21        1.4416    4.9783    5.3060 H         1 RES1    0.0000
     57 H22        2.0454    4.1684    6.5046 H         1 RES1    0.0000
     58 H23        9.5017   -0.4877   -1.8656 H         1 RES1    0.0000
     59 H24        2.8703   -0.2298    6.7176 H         1 RES1    0.0000
     60 H25       -0.6093    1.7768    7.2920 H         1 RES1    0.0000
     61 H26        1.1081    0.4614    8.1249 H         1 RES1    0.0000
@<TRIPOS>BOND
     1    1    3 1
     2    2    9 1
     3    3   12 1
     4    4   17 1
     5    5   17 2
     6    6   11 2
     7    7   16 1
     8    8   10 1
     9    9   10 1
    10   10    1 1
    11   11    2 1
    12   12   26 ar
    13   13    3 1
    14   14   13 1
    15   15   16 1
    16   16    2 1
    17   17    8 1
    18   18   15 ar
    19   19   14 ar
    20   20   19 ar
    21   21   15 ar
    22   22   23 ar
    23   23   14 ar
    24   24    7 1
    25   25   26 ar
    26   26   49 1
    27   27    4 1
    28   28   21 ar
    29   29   18 ar
    30   30   20 ar
    31   31   27 1
    32   32   28 ar
    33   33   12 ar
    34   34   25 ar
    35   35   33 ar
    36   36    9 1
    37   37   10 1
    38   38   13 1
    39   39   16 1
    40   40   18 1
    41   41   19 1
    42   42   20 1
    43   43   21 1
    44   44   22 1
    45   45   23 1
    46   46   24 1
    47   47   24 1
    48   48   25 1
    49   50   27 1
    50   51   27 1
    51   52   28 1
    52   53   29 1
    53   54   30 1
    54   55   31 1
    55   56   31 1
    56   57   31 1
    57   58   32 1
    58   59   33 1
    59   60   34 1
    60   61   35 1
    61    8   13 1
    62    8   11 1
    63    9   24 1
    64   22   30 ar
    65   29   32 ar
    66   34   35 ar
@<TRIPOS>SUBSTRUCTURE
     1 RES1 1

@<TRIPOS>CRYSIN
   9.8310    8.4810   14.7400  90.0000  94.7300  90.0000   4 1

