# MOL2 file generated by ConQuest
# Please check atom types

@<TRIPOS>MOLECULE
NOLFUQ
    30    30     1
SMALL
NO_CHARGES
****
Generated from CSD

@<TRIPOS>ATOM
      1 C1         4.3339    0.7223    3.5184 C.3       1 RES1    0.0000
      2 H1         3.7105   -0.0329    3.4842 H         1 RES1    0.0000
      3 C2         5.6507    0.3090    2.8614 C.3       1 RES1    0.0000
      4 H2         6.2438    1.0884    2.8214 H         1 RES1    0.0000
      5 C3         5.4555   -0.2275    1.4611 C.3       1 RES1    0.0000
      6 H3         6.3067   -0.4690    1.0890 H         1 RES1    0.0000
      7 H4         5.0473    0.4477    0.9146 H         1 RES1    0.0000
      8 H5         4.8878   -1.0013    1.4914 H         1 RES1    0.0000
      9 C4         6.2836   -0.7418    3.7412 C.2       1 RES1    0.0000
     10 C5         8.0994   -1.2765    5.1345 C.3       1 RES1    0.0000
     11 H6         8.9214   -0.8904    5.4469 H         1 RES1    0.0000
     12 H7         8.2879   -2.0881    4.6593 H         1 RES1    0.0000
     13 H8         7.5311   -1.4696    5.8838 H         1 RES1    0.0000
     14 C6         3.6928    1.9204    2.8476 C.ar      1 RES1    0.0000
     15 C7         2.6334    1.7711    1.9672 C.ar      1 RES1    0.0000
     16 H9         2.3211    0.9184    1.7647 H         1 RES1    0.0000
     17 C8         2.0345    2.8735    1.3844 C.ar      1 RES1    0.0000
     18 H10        1.3283    2.7715    0.7877 H         1 RES1    0.0000
     19 C9         2.5072    4.1208    1.7079 C.ar      1 RES1    0.0000
     20 C10        3.5511    4.3066    2.5763 C.ar      1 RES1    0.0000
     21 H11        3.8482    5.1619    2.7870 H         1 RES1    0.0000
     22 C11        4.1495    3.1962    3.1296 C.ar      1 RES1    0.0000
     23 H12        4.8730    3.3055    3.7037 H         1 RES1    0.0000
     24 N1         1.8630    5.3077    1.1273 N.pl3     1 RES1    0.0000
     25 O1         4.6588    0.9876    4.8695 O.3       1 RES1    0.0000
     26 H13        4.0516    1.3554    5.2963 H         1 RES1    0.0000
     27 O2         5.8074   -1.8259    3.9443 O.2       1 RES1    0.0000
     28 O3         7.4368   -0.3477    4.2560 O.3       1 RES1    0.0000
     29 O4         2.1586    6.3996    1.5527 O.2       1 RES1    0.0000
     30 O5         1.0788    5.1568    0.2225 O.2       1 RES1    0.0000
@<TRIPOS>BOND
     1    1    2 1
     2    3    1 1
     3    4    3 1
     4    5    3 1
     5    6    5 1
     6    7    5 1
     7    8    5 1
     8    9    3 1
     9   10   11 1
    10   12   10 1
    11   13   10 1
    12   14    1 1
    13   15   14 ar
    14   16   15 1
    15   17   15 ar
    16   18   17 1
    17   19   17 ar
    18   20   19 ar
    19   21   20 1
    20   22   14 ar
    21   23   22 1
    22   24   19 1
    23   25    1 1
    24   26   25 1
    25   27    9 2
    26   28    9 1
    27   29   24 2
    28   30   24 2
    29   10   28 1
    30   20   22 ar
@<TRIPOS>SUBSTRUCTURE
     1 RES1 1

@<TRIPOS>CRYSIN
   6.6231    8.2144   21.6135  90.0000  95.3060  90.0000 231 1

