# MOL2 file generated by ConQuest
# Please check atom types

@<TRIPOS>MOLECULE
NOLHIG
    37    39     1
SMALL
NO_CHARGES
****
Generated from CSD

@<TRIPOS>ATOM
      1 O1         9.6602    8.2799    4.8262 O.2       1 RES1    0.0000
      2 O2         7.7322    7.3254    5.3841 O.3       1 RES1    0.0000
      3 O3         3.2252    4.6250    8.4008 O.2       1 RES1    0.0000
      4 O4         1.8757    6.2471    7.9338 O.2       1 RES1    0.0000
      5 N1         7.3131    9.2534    7.4269 N.pl3     1 RES1    0.0000
      6 N2         2.9935    5.7716    8.0484 N.pl3     1 RES1    0.0000
      7 C1         8.4003    9.2331    6.5505 C.2       1 RES1    0.0000
      8 C2         9.1621   10.3535    6.8726 C.2       1 RES1    0.0000
      9 C3        10.3604   10.8810    6.3469 C.2       1 RES1    0.0000
     10 H1        10.7865   10.4749    5.6273 H         1 RES1    0.0000
     11 C4        10.8725   11.9963    6.9225 C.2       1 RES1    0.0000
     12 H2        11.6650   12.3481    6.5867 H         1 RES1    0.0000
     13 C5        10.2501   12.6471    8.0141 C.2       1 RES1    0.0000
     14 H3        10.6377   13.4118    8.3753 H         1 RES1    0.0000
     15 C6         9.1039   12.1719    8.5369 C.2       1 RES1    0.0000
     16 H4         8.6927   12.5992    9.2525 H         1 RES1    0.0000
     17 C7         8.5391   11.0038    7.9691 C.2       1 RES1    0.0000
     18 C8         7.3770   10.3247    8.2755 C.2       1 RES1    0.0000
     19 C9         6.2377    8.3150    7.4923 C.ar      1 RES1    0.0000
     20 C10        4.9730    8.7330    7.1144 C.ar      1 RES1    0.0000
     21 H5         4.8467    9.5801    6.7522 H         1 RES1    0.0000
     22 C11        3.9040    7.8801    7.2789 C.ar      1 RES1    0.0000
     23 H6         3.0443    8.1377    7.0341 H         1 RES1    0.0000
     24 C12        4.1421    6.6479    7.8114 C.ar      1 RES1    0.0000
     25 C13        5.4056    6.2109    8.1600 C.ar      1 RES1    0.0000
     26 H7         5.5301    5.3525    8.4967 H         1 RES1    0.0000
     27 C14        6.4653    7.0505    8.0053 C.ar      1 RES1    0.0000
     28 H8         7.3238    6.7799    8.2402 H         1 RES1    0.0000
     29 C15        6.3700   10.6423    9.3201 C.3       1 RES1    0.0000
     30 H9         5.5639   10.9551    8.9030 H         1 RES1    0.0000
     31 H10        6.7152   11.3244    9.9006 H         1 RES1    0.0000
     32 H11        6.1794    9.8525    9.8321 H         1 RES1    0.0000
     33 C16        8.6624    8.2599    5.5176 C.2       1 RES1    0.0000
     34 C17        7.9933    6.2780    4.4231 C.3       1 RES1    0.0000
     35 H12        8.2325    6.6698    3.5792 H         1 RES1    0.0000
     36 H13        7.2055    5.7405    4.3135 H         1 RES1    0.0000
     37 H14        8.7155    5.7287    4.7364 H         1 RES1    0.0000
@<TRIPOS>BOND
     1    1   33 2
     2    2   33 1
     3    3    6 2
     4    4    6 2
     5    5    7 1
     6    6   24 1
     7    7    8 2
     8    8    9 1
     9    9   10 1
    10   11    9 2
    11   12   11 1
    12   13   11 1
    13   14   13 1
    14   15   13 2
    15   16   15 1
    16   17    8 1
    17   18    5 1
    18   19    5 1
    19   20   19 ar
    20   21   20 1
    21   22   20 ar
    22   23   22 1
    23   24   22 ar
    24   25   24 ar
    25   26   25 1
    26   27   19 ar
    27   28   27 1
    28   29   18 1
    29   30   29 1
    30   31   29 1
    31   32   29 1
    32   33    7 1
    33   34    2 1
    34   35   34 1
    35   36   34 1
    36   37   34 1
    37   15   17 1
    38   17   18 2
    39   25   27 ar
@<TRIPOS>SUBSTRUCTURE
     1 RES1 1

@<TRIPOS>CRYSIN
   8.1962    9.6318   10.0970  82.7400  76.5100  76.5000   2 1

