# MOL2 file generated by ConQuest
# Please check atom types

@<TRIPOS>MOLECULE
NOLZUJ
    50    52     1
SMALL
NO_CHARGES
****
Generated from CSD

@<TRIPOS>ATOM
      1 O1        -3.2819   14.6877    5.3252 O.2       1 RES1    0.0000
      2 O2        -1.4248   15.2414    4.5360 O.2       1 RES1    0.0000
      3 O3        -0.0257    9.6821    5.7229 O.2       1 RES1    0.0000
      4 O4        -1.7302    8.8054    4.5374 O.3       1 RES1    0.0000
      5 O5         0.7013   11.6769    7.9601 O.3       1 RES1    0.0000
      6 O6        -1.4431   11.5138   -0.8243 O.3       1 RES1    0.0000
      7 N1        -1.8015   11.3530    7.0472 N.3       1 RES1    0.0000
      8 N2        -2.1270   14.4503    5.0861 N.pl3     1 RES1    0.0000
      9 C1        -1.8675   12.8299    6.9850 C.3       1 RES1    0.0000
     10 C2        -1.5364   13.0876    5.4895 C.3       1 RES1    0.0000
     11 C3        -2.3562   11.9683    4.7879 C.3       1 RES1    0.0000
     12 C4        -2.2066   10.7560    5.7669 C.3       1 RES1    0.0000
     13 C5        -1.1736    9.7075    5.3587 C.2       1 RES1    0.0000
     14 C6        -0.8424    7.7559    4.0561 C.3       1 RES1    0.0000
     15 C7        -0.9346   13.4836    7.9815 C.ar      1 RES1    0.0000
     16 C8         0.2741   12.9106    8.3960 C.ar      1 RES1    0.0000
     17 C9         1.1102   13.5845    9.2873 C.ar      1 RES1    0.0000
     18 C10        0.7517   14.8338    9.7544 C.ar      1 RES1    0.0000
     19 C11       -0.4356   15.4170    9.3606 C.ar      1 RES1    0.0000
     20 C12       -1.2759   14.7430    8.4917 C.ar      1 RES1    0.0000
     21 C13       -0.0561   13.1143    5.1770 C.3       1 RES1    0.0000
     22 C14       -2.1095   11.7732    3.3036 C.ar      1 RES1    0.0000
     23 C15       -3.1000   12.1597    2.4091 C.ar      1 RES1    0.0000
     24 C16       -2.9284   12.0931    1.0252 C.ar      1 RES1    0.0000
     25 C17       -1.7381   11.6151    0.5150 C.ar      1 RES1    0.0000
     26 C18       -0.7340   11.1958    1.3871 C.ar      1 RES1    0.0000
     27 C19       -0.9200   11.2759    2.7567 C.ar      1 RES1    0.0000
     28 C20       -2.4733   11.8852   -1.7506 C.3       1 RES1    0.0000
     29 H1        -2.3090   11.0396    7.7646 H         1 RES1    0.0000
     30 H2        -2.8331   13.1788    7.1428 H         1 RES1    0.0000
     31 H3        -3.2650   12.2525    4.8788 H         1 RES1    0.0000
     32 H4        -3.0852   10.3211    5.8514 H         1 RES1    0.0000
     33 H5        -0.0493   11.3019    7.5574 H         1 RES1    0.0000
     34 H6         1.9111   13.1385    9.5503 H         1 RES1    0.0000
     35 H7         1.3648   15.2778   10.4113 H         1 RES1    0.0000
     36 H8        -0.7829   16.2465    9.6779 H         1 RES1    0.0000
     37 H9        -2.1676   15.1163    8.2111 H         1 RES1    0.0000
     38 H10       -3.9290   12.4866    2.7423 H         1 RES1    0.0000
     39 H11       -3.6263   12.4119    0.5102 H         1 RES1    0.0000
     40 H12        0.0448   10.9043    1.0204 H         1 RES1    0.0000
     41 H13       -0.2318   10.9931    3.2844 H         1 RES1    0.0000
     42 H14       -1.4373    7.0637    3.6830 H         1 RES1    0.0000
     43 H15       -0.2809    7.3664    4.7991 H         1 RES1    0.0000
     44 H16       -0.3271    8.0728    3.3482 H         1 RES1    0.0000
     45 H17        0.3622   12.2101    5.3571 H         1 RES1    0.0000
     46 H18        0.0948   13.3564    4.2092 H         1 RES1    0.0000
     47 H19        0.4134   13.8045    5.7079 H         1 RES1    0.0000
     48 H20       -2.7180   12.8559   -1.6422 H         1 RES1    0.0000
     49 H21       -2.1278   11.7056   -2.5829 H         1 RES1    0.0000
     50 H22       -3.3051   11.3423   -1.5625 H         1 RES1    0.0000
@<TRIPOS>BOND
     1    1    8 2
     2    2    8 2
     3    3   13 2
     4    4   13 1
     5    5   16 1
     6    6   25 1
     7    7    9 1
     8    8   10 1
     9    9   10 1
    10   10   11 1
    11   11   12 1
    12   12    7 1
    13   13   12 1
    14   14    4 1
    15   15    9 1
    16   16   15 ar
    17   17   16 ar
    18   18   17 ar
    19   19   18 ar
    20   20   15 ar
    21   21   10 1
    22   22   11 1
    23   23   22 ar
    24   24   23 ar
    25   25   24 ar
    26   26   25 ar
    27   27   22 ar
    28   28    6 1
    29   29    7 1
    30   30    9 1
    31   31   11 1
    32   32   12 1
    33   33    5 1
    34   34   17 1
    35   35   18 1
    36   36   19 1
    37   37   20 1
    38   38   23 1
    39   39   24 1
    40   40   26 1
    41   41   27 1
    42   42   14 1
    43   43   14 1
    44   44   14 1
    45   45   21 1
    46   46   21 1
    47   47   21 1
    48   48   28 1
    49   49   28 1
    50   50   28 1
    51   19   20 ar
    52   26   27 ar
@<TRIPOS>SUBSTRUCTURE
     1 RES1 1

@<TRIPOS>CRYSIN
   5.9040   20.1820   16.0340  90.0000  96.0800  90.0000  14 1

