# MOL2 file generated by ConQuest
# Please check atom types

@<TRIPOS>MOLECULE
NOMBEA
    16    16     1
SMALL
NO_CHARGES
****
Generated from CSD

@<TRIPOS>ATOM
      1 C1         2.9935   -1.3464   -2.3052 C.ar      1 RES1    0.0000
      2 C2         3.6337   -0.2518   -2.8145 C.ar      1 RES1    0.0000
      3 C3         3.6902    0.0934   -4.1717 C.ar      1 RES1    0.0000
      4 C4         3.0725   -0.7556   -5.0777 C.ar      1 RES1    0.0000
      5 C5         2.3975   -1.8704   -4.6550 C.ar      1 RES1    0.0000
      6 C6         2.3818   -2.1671   -3.2867 C.ar      1 RES1    0.0000
      7 C7         2.8470   -1.6588   -0.8270 C.3       1 RES1    0.0000
      8 C8         3.1266   -0.3935   -6.5510 C.2       1 RES1    0.0000
      9 N1         1.6593   -3.3848   -2.8879 N.pl3     1 RES1    0.0000
     10 N2         4.2947    0.7252   -1.9027 N.pl3     1 RES1    0.0000
     11 O1         2.4852   -1.1585   -7.3398 O.co2     1 RES1    0.0000
     12 O2         3.7593    0.6001   -6.9049 O.co2     1 RES1    0.0000
     13 O3         4.1200    1.9308   -2.1514 O.2       1 RES1    0.0000
     14 O4         4.9698    0.2895   -0.9902 O.2       1 RES1    0.0000
     15 O5         0.5620   -3.5808   -3.4064 O.2       1 RES1    0.0000
     16 O6         2.2151   -4.1727   -2.1486 O.2       1 RES1    0.0000
@<TRIPOS>BOND
     1    1    2 ar
     2    2    3 ar
     3    3    4 ar
     4    4    5 ar
     5    5    6 ar
     6    6    1 ar
     7    7    1 1
     8    8    4 1
     9    9    6 1
    10   10    2 1
    11   11    8 1
    12   12    8 2
    13   13   10 2
    14   14   10 2
    15   15    9 2
    16   16    9 2
@<TRIPOS>SUBSTRUCTURE
     1 RES1 1

@<TRIPOS>CRYSIN
  12.3400    8.9400    9.0100  90.0000 111.0000  90.0000  14 2

