# MOL2 file generated by ConQuest
# Please check atom types

@<TRIPOS>MOLECULE
NOMBEA01
    22    22     1
SMALL
NO_CHARGES
****
Generated from CSD

@<TRIPOS>ATOM
      1 C1         3.1206    0.7435    1.0389 C.ar      1 RES1    0.0000
      2 C2         3.7645    1.8595    0.5762 C.ar      1 RES1    0.0000
      3 C3         5.0168    2.1477    1.0401 C.ar      1 RES1    0.0000
      4 C4         5.7096    1.3589    1.9530 C.ar      1 RES1    0.0000
      5 C5         5.0093    0.2321    2.3700 C.ar      1 RES1    0.0000
      6 C6         3.7586   -0.0818    1.9347 C.ar      1 RES1    0.0000
      7 C7         1.7624    0.4162    0.5659 C.2       1 RES1    0.0000
      8 C8         7.1286    1.6408    2.3528 C.3       1 RES1    0.0000
      9 N1         5.6393    3.3776    0.5166 N.pl3     1 RES1    0.0000
     10 N2         5.6218   -0.7266    3.3116 N.pl3     1 RES1    0.0000
     11 O1         5.5718    3.5545   -0.6907 O.2       1 RES1    0.0000
     12 O2         6.1416    4.1432    1.3013 O.2       1 RES1    0.0000
     13 O3         5.4556   -1.9120    3.0584 O.2       1 RES1    0.0000
     14 O4         6.2294   -0.2890    4.2543 O.2       1 RES1    0.0000
     15 O5         1.2085   -0.5994    1.0447 O.3       1 RES1    0.0000
     16 O6         1.2496    1.1614   -0.3127 O.2       1 RES1    0.0000
     17 H1         0.4902   -0.7221    0.6690 H         1 RES1    0.0000
     18 H2         3.4004    2.4136   -0.0126 H         1 RES1    0.0000
     19 H3         3.3420   -0.7844    2.2887 H         1 RES1    0.0000
     20 H4         7.5901    2.1992    1.6094 H         1 RES1    0.0000
     21 H5         7.1540    2.2099    3.0813 H         1 RES1    0.0000
     22 H6         7.6937    0.8084    2.5979 H         1 RES1    0.0000
@<TRIPOS>BOND
     1    1    2 ar
     2    2    3 ar
     3    3    4 ar
     4    4    5 ar
     5    5    6 ar
     6    6    1 ar
     7    7    1 1
     8    8    4 1
     9    9    3 1
    10   10    5 1
    11   11    9 2
    12   12    9 2
    13   13   10 2
    14   14   10 2
    15   15    7 1
    16   16    7 2
    17   17   15 1
    18   18    2 1
    19   19    6 1
    20   20    8 1
    21   21    8 1
    22   22    8 1
@<TRIPOS>SUBSTRUCTURE
     1 RES1 1

@<TRIPOS>CRYSIN
   8.8960    8.8930   12.2550  90.0000 110.8200  90.0000  14 1

