# MOL2 file generated by ConQuest
# Please check atom types

@<TRIPOS>MOLECULE
NOMKAC
    22    21     1
SMALL
NO_CHARGES
****
Generated from CSD

@<TRIPOS>ATOM
      1 N1         8.4747   13.4167   -1.2427 N.pl3     1 RES1    0.0000
      2 O1         7.6456   10.3974    0.7632 O.3       1 RES1    0.0000
      3 O2         7.8746   14.4911   -1.2352 O.2       1 RES1    0.0000
      4 C1         8.7248   10.3974   -0.2142 C.3       1 RES1    0.0000
      5 O3         8.8048   12.8204   -2.2658 O.2       1 RES1    0.0000
      6 O4         5.5277   10.3974    1.1430 O.2       1 RES1    0.0000
      7 N2         6.3389   10.3974    0.2634 N.pl3     1 RES1    0.0000
      8 O5         6.1721   10.3974   -0.9051 O.2       1 RES1    0.0000
      9 C2         9.5374   11.6523    0.0219 C.3       1 RES1    0.0000
     10 N3         8.7713   12.8681   -0.0729 N.3       1 RES1    0.0000
     11 H1        10.1969   11.6950   -0.5882 H         1 RES1    0.0000
     12 H2         9.8689   11.6506    0.8867 H         1 RES1    0.0000
     13 H3         8.5362   13.2934    0.5443 H         1 RES1    0.0000
     14 H4         8.3038   10.3974   -1.0359 H         1 RES1    0.0000
     15 N1G        8.4747    7.3781   -1.2427 N.pl3     1 RES1    0.0000
     16 O2G        7.8746    6.3037   -1.2352 O.2       1 RES1    0.0000
     17 O3G        8.8048    7.9744   -2.2658 O.2       1 RES1    0.0000
     18 C2G        9.5374    9.1425    0.0219 C.3       1 RES1    0.0000
     19 N3G        8.7713    7.9267   -0.0729 N.3       1 RES1    0.0000
     20 H1G       10.1969    9.0998   -0.5882 H         1 RES1    0.0000
     21 H2G        9.8689    9.1442    0.8867 H         1 RES1    0.0000
     22 H3G        8.5362    7.5014    0.5443 H         1 RES1    0.0000
@<TRIPOS>BOND
     1    1    3 2
     2    2    4 1
     3    4    9 1
     4    5    1 2
     5    6    7 2
     6    7    2 1
     7    8    7 2
     8    9   10 1
     9   10    1 1
    10   11    9 1
    11   12    9 1
    12   13   10 1
    13   14    4 1
    14   15   16 2
    15   17   15 2
    16   18    4 1
    17   19   15 1
    18   20   18 1
    19   21   18 1
    20   22   19 1
    21   18   19 1
@<TRIPOS>SUBSTRUCTURE
     1 RES1 1

@<TRIPOS>CRYSIN
   6.8344   13.8632    8.7788  90.0000  90.0000  90.0000  62 1

