# MOL2 file generated by ConQuest
# Please check atom types

@<TRIPOS>MOLECULE
NONYOE
    29    29     1
SMALL
NO_CHARGES
****
Generated from CSD

@<TRIPOS>ATOM
      1 N1         7.9195    3.4847    3.1388 N.pl3     1 RES1    0.0000
      2 O1         4.8088    1.6961    2.4779 O.3       1 RES1    0.0000
      3 O2         5.2883    3.4655    3.9312 O.3       1 RES1    0.0000
      4 O3         8.3792    3.8426    4.2075 O.2       1 RES1    0.0000
      5 O4         7.6942    4.2492    2.2148 O.2       1 RES1    0.0000
      6 O5         7.9282    2.0697    0.5504 O.3       1 RES1    0.0000
      7 C1         5.2677    2.0799    3.7666 C.3       1 RES1    0.0000
      8 C2         6.6559    1.5610    4.0373 C.3       1 RES1    0.0000
      9 C3         7.6647    1.9772    2.9664 C.3       1 RES1    0.0000
     10 C4         7.0614    1.6498    1.6070 C.3       1 RES1    0.0000
     11 C5         5.6448    2.1778    1.4036 C.3       1 RES1    0.0000
     12 C6         5.0428    1.6252    0.1149 C.3       1 RES1    0.0000
     13 C7         3.9965    4.0877    3.8108 C.3       1 RES1    0.0000
     14 C8         9.0316    1.3171    3.1576 C.3       1 RES1    0.0000
     15 H1         7.5874    1.8853   -0.1724 H         1 RES1    0.0000
     16 H2         4.6604    1.6997    4.4352 H         1 RES1    0.0000
     17 H3         6.6279    0.5928    4.0860 H         1 RES1    0.0000
     18 H4         6.9547    1.8925    4.8983 H         1 RES1    0.0000
     19 H5         7.0072    0.6733    1.5528 H         1 RES1    0.0000
     20 H6         5.6458    3.1574    1.3859 H         1 RES1    0.0000
     21 H7         4.1527    1.9676    0.0055 H         1 RES1    0.0000
     22 H8         5.0136    0.6667    0.1614 H         1 RES1    0.0000
     23 H9         5.5832    1.8937   -0.6311 H         1 RES1    0.0000
     24 H10        4.0848    5.0354    3.9346 H         1 RES1    0.0000
     25 H11        3.4063    3.7315    4.4794 H         1 RES1    0.0000
     26 H12        3.6353    3.9105    2.9388 H         1 RES1    0.0000
     27 H13        9.3785    1.5453    4.0230 H         1 RES1    0.0000
     28 H14        9.6353    1.6276    2.4790 H         1 RES1    0.0000
     29 H15        8.9385    0.3634    3.0913 H         1 RES1    0.0000
@<TRIPOS>BOND
     1    1    4 2
     2    2    7 1
     3    3    7 1
     4    5    1 2
     5    6   10 1
     6    7    8 1
     7    8    9 1
     8    9    1 1
     9   10    9 1
    10   11    2 1
    11   12   11 1
    12   13    3 1
    13   14    9 1
    14   15    6 1
    15   16    7 1
    16   17    8 1
    17   18    8 1
    18   19   10 1
    19   20   11 1
    20   21   12 1
    21   22   12 1
    22   23   12 1
    23   24   13 1
    24   25   13 1
    25   26   13 1
    26   27   14 1
    27   28   14 1
    28   29   14 1
    29   10   11 1
@<TRIPOS>SUBSTRUCTURE
     1 RES1 1

@<TRIPOS>CRYSIN
   7.7800    6.0060   11.2530  90.0000 100.8420  90.0000   4 1

