# MOL2 file generated by ConQuest
# Please check atom types

@<TRIPOS>MOLECULE
NONZAR
    21    22     1
SMALL
NO_CHARGES
****
Generated from CSD

@<TRIPOS>ATOM
      1 O1         4.5304    2.3173    4.5378 O.3       1 RES1    0.0000
      2 N1         4.3778    2.3587    3.1518 N.2       1 RES1    0.0000
      3 N2         3.4712    1.6699    5.1572 N.2       1 RES1    0.0000
      4 N3         5.2488    3.1629    0.0562 N.1       1 RES1    0.0000
      5 N4         1.6758    0.6601    7.7871 N.1       1 RES1    0.0000
      6 N5         1.8322    1.2503   -1.7196 N.1       1 RES1    0.0000
      7 N6        -1.3847   -1.1179    5.3224 N.1       1 RES1    0.0000
      8 C1         3.2411    1.7430    2.9404 C.2       1 RES1    0.0000
      9 C2         2.6880    1.3213    4.1760 C.2       1 RES1    0.0000
     10 C3         2.5837    1.4750    1.6668 C.2       1 RES1    0.0000
     11 C4         1.4254    0.5976    4.2487 C.2       1 RES1    0.0000
     12 C5         1.3491    0.7322    1.7907 C.2       1 RES1    0.0000
     13 C6         0.8341    0.3200    2.9586 C.2       1 RES1    0.0000
     14 C7         3.0529    1.8596    0.4592 C.2       1 RES1    0.0000
     15 C8         0.8277    0.2013    5.4034 C.2       1 RES1    0.0000
     16 C9         4.2824    2.5950    0.2643 C.1       1 RES1    0.0000
     17 C10        1.3274    0.4768    6.7249 C.1       1 RES1    0.0000
     18 C11        2.3612    1.5205   -0.7566 C.1       1 RES1    0.0000
     19 C12       -0.4094   -0.5457    5.3654 C.1       1 RES1    0.0000
     20 H1         0.8646    0.5510    0.9581 H         1 RES1    0.0000
     21 H2         0.0000   -0.2119    2.9569 H         1 RES1    0.0000
@<TRIPOS>BOND
     1    1    2 1
     2    2    8 2
     3    3    1 1
     4    4   16 3
     5    5   17 3
     6    6   18 3
     7    7   19 3
     8    8    9 1
     9    9    3 2
    10   10    8 1
    11   11    9 1
    12   12   10 1
    13   13   11 1
    14   14   10 2
    15   15   11 2
    16   16   14 1
    17   17   15 1
    18   18   14 1
    19   19   15 1
    20   20   12 1
    21   21   13 1
    22   12   13 2
@<TRIPOS>SUBSTRUCTURE
     1 RES1 1

@<TRIPOS>CRYSIN
  12.7150   10.5960   16.5190  90.0000  90.0000  90.0000  61 1

