# MOL2 file generated by ConQuest
# Please check atom types

@<TRIPOS>MOLECULE
NOPLUA
    33    36     1
SMALL
NO_CHARGES
****
Generated from CSD

@<TRIPOS>ATOM
      1 N1         2.5106    8.1713    5.7857 N.pl3     1 RES1    0.0000
      2 O1         3.1505    7.4284    5.0229 O.2       1 RES1    0.0000
      3 O2         2.1732    9.3244    5.5007 O.2       1 RES1    0.0000
      4 O3         0.3351    6.8499    4.8450 O.2       1 RES1    0.0000
      5 C1         1.3042    4.9608    3.7735 C.3       1 RES1    0.0000
      6 H1         0.7896    4.1521    3.8219 H         1 RES1    0.0000
      7 H2         2.2398    4.7444    3.7717 H         1 RES1    0.0000
      8 H3         1.0845    5.4331    2.9664 H         1 RES1    0.0000
      9 C2         0.9937    5.8237    4.9601 C.2       1 RES1    0.0000
     10 C3         1.4516    5.3819    6.3122 C.ar      1 RES1    0.0000
     11 C4         1.2631    4.0704    6.6506 C.ar      1 RES1    0.0000
     12 H4         1.0689    3.4633    5.9737 H         1 RES1    0.0000
     13 C5         1.3481    3.5853    7.9878 C.ar      1 RES1    0.0000
     14 C6         1.1440    2.2472    8.3226 C.ar      1 RES1    0.0000
     15 H5         0.9966    1.6234    7.6494 H         1 RES1    0.0000
     16 C7         1.1553    1.8330    9.6375 C.ar      1 RES1    0.0000
     17 H6         0.9866    0.9416    9.8439 H         1 RES1    0.0000
     18 C8         1.4176    2.7372   10.6548 C.ar      1 RES1    0.0000
     19 H7         1.4389    2.4381   11.5345 H         1 RES1    0.0000
     20 C9         1.6501    4.0970   10.3851 C.ar      1 RES1    0.0000
     21 C10        1.9605    5.0238   11.4173 C.ar      1 RES1    0.0000
     22 H8         1.9889    4.7385   12.3026 H         1 RES1    0.0000
     23 C11        2.2157    6.3275   11.1179 C.ar      1 RES1    0.0000
     24 H9         2.4354    6.9168   11.8023 H         1 RES1    0.0000
     25 C12        2.1519    6.8115    9.7677 C.ar      1 RES1    0.0000
     26 C13        2.3929    8.1516    9.4571 C.ar      1 RES1    0.0000
     27 H10        2.5347    8.7626   10.1452 H         1 RES1    0.0000
     28 C14        2.4255    8.5806    8.1496 C.ar      1 RES1    0.0000
     29 H11        2.5928    9.4740    7.9525 H         1 RES1    0.0000
     30 C15        2.2044    7.6695    7.1249 C.ar      1 RES1    0.0000
     31 C16        1.8471    6.3255    7.3481 C.ar      1 RES1    0.0000
     32 C17        1.8627    5.8995    8.7113 C.ar      1 RES1    0.0000
     33 C18        1.6005    4.5289    9.0312 C.ar      1 RES1    0.0000
@<TRIPOS>BOND
     1    1    2 2
     2    3    1 2
     3    4    9 2
     4    5    6 1
     5    7    5 1
     6    8    5 1
     7    9    5 1
     8   10    9 1
     9   11   10 ar
    10   12   11 1
    11   13   11 ar
    12   14   13 ar
    13   15   14 1
    14   16   14 ar
    15   17   16 1
    16   18   16 ar
    17   19   18 1
    18   20   18 ar
    19   21   20 ar
    20   22   21 1
    21   23   21 ar
    22   24   23 1
    23   25   23 ar
    24   26   25 ar
    25   27   26 1
    26   28   26 ar
    27   29   28 1
    28   30    1 1
    29   31   10 ar
    30   32   25 ar
    31   33   13 ar
    32   20   33 ar
    33   28   30 ar
    34   30   31 ar
    35   31   32 ar
    36   32   33 ar
@<TRIPOS>SUBSTRUCTURE
     1 RES1 1

@<TRIPOS>CRYSIN
  14.1760    9.8390   18.5980  90.0000  90.0000  90.0000  61 1

