# MOL2 file generated by ConQuest
# Please check atom types

@<TRIPOS>MOLECULE
NORJIO
    40    41     1
SMALL
NO_CHARGES
****
Generated from CSD

@<TRIPOS>ATOM
      1 O1         6.7315    7.9718    6.7962 O.3       1 RES1    0.0000
      2 O2         9.4087    5.6628    6.3159 O.2       1 RES1    0.0000
      3 O3         9.3821    4.5461    8.2464 O.3       1 RES1    0.0000
      4 O4        10.2234    8.3327    7.4720 O.2       1 RES1    0.0000
      5 O5         9.0018    8.6393    5.6184 O.3       1 RES1    0.0000
      6 N1         6.3346    6.6059    6.4225 N.3       1 RES1    0.0000
      7 C1         6.3514    4.4042    7.5541 C.ar      1 RES1    0.0000
      8 C2         6.6554    3.7210    6.3931 C.ar      1 RES1    0.0000
      9 H1         6.9686    4.1849    5.6500 H         1 RES1    0.0000
     10 C3         6.4942    2.3397    6.3323 C.ar      1 RES1    0.0000
     11 H2         6.6948    1.8964    5.5394 H         1 RES1    0.0000
     12 C4         6.0482    1.6140    7.4081 C.ar      1 RES1    0.0000
     13 C5         5.7647    2.3070    8.5726 C.ar      1 RES1    0.0000
     14 H3         5.4780    1.8371    9.3217 H         1 RES1    0.0000
     15 C6         5.8976    3.6785    8.6463 C.ar      1 RES1    0.0000
     16 H4         5.6810    4.1195    9.4352 H         1 RES1    0.0000
     17 C7         5.8359    0.1148    7.3434 C.3       1 RES1    0.0000
     18 H5         4.9334   -0.0911    7.5964 H         1 RES1    0.0000
     19 H6         6.4440   -0.3207    7.9441 H         1 RES1    0.0000
     20 H7         5.9948   -0.1920    6.4469 H         1 RES1    0.0000
     21 C8         6.5311    5.8958    7.6890 C.3       1 RES1    0.0000
     22 H8         5.8841    6.2337    8.3435 H         1 RES1    0.0000
     23 C9         7.9470    6.3816    8.0912 C.3       1 RES1    0.0000
     24 H9         8.0531    6.3644    9.0657 H         1 RES1    0.0000
     25 C10        7.9088    7.8332    7.5763 C.3       1 RES1    0.0000
     26 H10        7.8008    8.4113    8.3604 H         1 RES1    0.0000
     27 C11        4.9389    6.7290    6.0365 C.3       1 RES1    0.0000
     28 H11        4.8780    7.2017    5.2027 H         1 RES1    0.0000
     29 H12        4.4611    7.2136    6.7138 H         1 RES1    0.0000
     30 H13        4.5565    5.8536    5.9369 H         1 RES1    0.0000
     31 C12        8.9947    5.5250    7.4302 C.2       1 RES1    0.0000
     32 C13       10.2431    3.5326    7.6841 C.3       1 RES1    0.0000
     33 H14       10.4590    2.8862    8.3594 H         1 RES1    0.0000
     34 H15       11.0498    3.9414    7.3633 H         1 RES1    0.0000
     35 H16        9.7929    3.0981    6.9569 H         1 RES1    0.0000
     36 C14        9.1741    8.2775    6.8752 C.2       1 RES1    0.0000
     37 C15       10.1804    9.1087    4.9477 C.3       1 RES1    0.0000
     38 H17        9.9606    9.3496    4.0442 H         1 RES1    0.0000
     39 H18       10.8436    8.4133    4.9408 H         1 RES1    0.0000
     40 H19       10.5267    9.8762    5.4079 H         1 RES1    0.0000
@<TRIPOS>BOND
     1    1    6 1
     2    2   31 2
     3    3   31 1
     4    4   36 2
     5    5   36 1
     6    6   21 1
     7    7    8 ar
     8    8    9 1
     9   10    8 ar
    10   11   10 1
    11   12   10 ar
    12   13   12 ar
    13   14   13 1
    14   15    7 ar
    15   16   15 1
    16   17   12 1
    17   18   17 1
    18   19   17 1
    19   20   17 1
    20   21    7 1
    21   22   21 1
    22   23   21 1
    23   24   23 1
    24   25    1 1
    25   26   25 1
    26   27    6 1
    27   28   27 1
    28   29   27 1
    29   30   27 1
    30   31   23 1
    31   32    3 1
    32   33   32 1
    33   34   32 1
    34   35   32 1
    35   36   25 1
    36   37    5 1
    37   38   37 1
    38   39   37 1
    39   40   37 1
    40   13   15 ar
    41   23   25 1
@<TRIPOS>SUBSTRUCTURE
     1 RES1 1

@<TRIPOS>CRYSIN
  15.3832   19.7959    9.9612  90.0000  90.0000  90.0000  37 1

