# MOL2 file generated by ConQuest
# Please check atom types

@<TRIPOS>MOLECULE
NORPUG
    31    31     1
SMALL
NO_CHARGES
****
Generated from CSD

@<TRIPOS>ATOM
      1 O1        -6.2591   -1.3425    9.1804 O.3       1 RES1    0.0000
      2 O2        -4.4588   -2.0145    8.0380 O.2       1 RES1    0.0000
      3 O3        -5.8050    1.8612   12.7733 O.2       1 RES1    0.0000
      4 O4        -3.9557    2.9143   13.0455 O.2       1 RES1    0.0000
      5 O5         0.0153    1.4228   10.7640 O.2       1 RES1    0.0000
      6 O6        -0.0920   -0.2885    9.4677 O.2       1 RES1    0.0000
      7 N1        -4.6356    2.0494   12.5137 N.pl3     1 RES1    0.0000
      8 N2        -0.6073    0.5330   10.1908 N.pl3     1 RES1    0.0000
      9 C1        -8.4758   -2.9420   10.2393 C.3       1 RES1    0.0000
     10 H1        -7.9231   -2.4472   10.8494 H         1 RES1    0.0000
     11 H2        -8.1373   -3.8356   10.1533 H         1 RES1    0.0000
     12 H3        -9.3752   -2.9726   10.5756 H         1 RES1    0.0000
     13 C2        -9.3542   -2.9989    7.9149 C.3       1 RES1    0.0000
     14 H4       -10.2400   -3.0777    8.2731 H         1 RES1    0.0000
     15 H5        -8.9978   -3.8743    7.7444 H         1 RES1    0.0000
     16 H6        -9.3821   -2.5012    7.0937 H         1 RES1    0.0000
     17 C3        -8.4662   -2.2777    8.9113 C.3       1 RES1    0.0000
     18 H7        -8.8207   -1.3707    9.0271 H         1 RES1    0.0000
     19 C4        -7.1132   -2.1664    8.3263 C.3       1 RES1    0.0000
     20 H8        -6.7257   -3.0500    8.2340 H         1 RES1    0.0000
     21 H9        -7.1718   -1.7681    7.4441 H         1 RES1    0.0000
     22 C5        -4.9572   -1.3588    8.8957 C.2       1 RES1    0.0000
     23 C6        -4.1850   -0.4303    9.7951 C.ar      1 RES1    0.0000
     24 C7        -2.8095   -0.3897    9.6089 C.ar      1 RES1    0.0000
     25 H10       -2.3973   -0.9304    8.9723 H         1 RES1    0.0000
     26 C8        -2.0710    0.4719   10.3879 C.ar      1 RES1    0.0000
     27 C9        -2.6395    1.2814   11.3437 C.ar      1 RES1    0.0000
     28 H11       -2.1249    1.8631   11.8536 H         1 RES1    0.0000
     29 C10       -3.9964    1.1954   11.5110 C.ar      1 RES1    0.0000
     30 C11       -4.7819    0.3486   10.7555 C.ar      1 RES1    0.0000
     31 H12       -5.7000    0.3061   10.8947 H         1 RES1    0.0000
@<TRIPOS>BOND
     1    1   19 1
     2    2   22 2
     3    3    7 2
     4    4    7 2
     5    5    8 2
     6    6    8 2
     7    7   29 1
     8    8   26 1
     9    9   10 1
    10   11    9 1
    11   12    9 1
    12   13   14 1
    13   15   13 1
    14   16   13 1
    15   17    9 1
    16   18   17 1
    17   19   17 1
    18   20   19 1
    19   21   19 1
    20   22    1 1
    21   23   22 1
    22   24   23 ar
    23   25   24 1
    24   26   24 ar
    25   27   26 ar
    26   28   27 1
    27   29   27 ar
    28   30   23 ar
    29   31   30 1
    30   13   17 1
    31   29   30 ar
@<TRIPOS>SUBSTRUCTURE
     1 RES1 1

@<TRIPOS>CRYSIN
  16.6660    4.7760   16.6780  90.0000 110.3000  90.0000 231 1

