# MOL2 file generated by ConQuest
# Please check atom types

@<TRIPOS>MOLECULE
NOTFEJ
    62    64     2
SMALL
NO_CHARGES
****
Generated from CSD

@<TRIPOS>ATOM
      1 C1         0.8864    6.9761    4.4849 C.ar      1 RES1    0.0000
      2 C2         0.8285    7.2129    3.1163 C.ar      1 RES1    0.0000
      3 H1         0.6795    8.0745    2.7992 H         1 RES1    0.0000
      4 C3         0.9925    6.1620    2.2215 C.ar      1 RES1    0.0000
      5 H2         0.9537    6.3202    1.3053 H         1 RES1    0.0000
      6 C4         1.2142    4.8740    2.6951 C.ar      1 RES1    0.0000
      7 C5         1.2720    4.6371    4.0636 C.ar      1 RES1    0.0000
      8 C6         1.1080    5.6884    4.9584 C.ar      1 RES1    0.0000
      9 H3         1.1478    5.5292    5.8737 H         1 RES1    0.0000
     10 C7         1.4722    3.2012    4.5342 C.3       1 RES1    0.0000
     11 H4         2.0899    3.1901    5.2820 H         1 RES1    0.0000
     12 H5         0.6246    2.8407    4.8377 H         1 RES1    0.0000
     13 C8         3.3789    2.2589    3.2176 C.ar      1 RES1    0.0000
     14 C9         4.4272    2.4001    4.1045 C.ar      1 RES1    0.0000
     15 H6         4.2806    2.6264    4.9950 H         1 RES1    0.0000
     16 C10        5.7100    2.1878    3.6111 C.ar      1 RES1    0.0000
     17 H7         6.4335    2.2629    4.1890 H         1 RES1    0.0000
     18 C11        5.9403    1.8744    2.3039 C.ar      1 RES1    0.0000
     19 H8         6.8145    1.7653    2.0031 H         1 RES1    0.0000
     20 C12        4.8840    1.7172    1.4212 C.ar      1 RES1    0.0000
     21 H9         5.0390    1.4819    0.5347 H         1 RES1    0.0000
     22 C13        3.5954    1.9155    1.8844 C.ar      1 RES1    0.0000
     23 C14        2.2578    1.7513    1.2027 C.3       1 RES1    0.0000
     24 C15        2.2094    2.2689   -0.2186 C.3       1 RES1    0.0000
     25 H10        2.4930    3.1861   -0.2339 H         1 RES1    0.0000
     26 H11        1.3119    2.2079   -0.5504 H         1 RES1    0.0000
     27 H12        2.7920    1.7433   -0.7706 H         1 RES1    0.0000
     28 C16        1.8790    0.2613    1.2325 C.3       1 RES1    0.0000
     29 H13        1.0013    0.1472    0.8630 H         1 RES1    0.0000
     30 H14        1.8874   -0.0521    2.1407 H         1 RES1    0.0000
     31 H15        2.5119   -0.2403    0.7155 H         1 RES1    0.0000
     32 C17        1.3446    2.5403    2.1901 C.3       1 RES1    0.0000
     33 C18       -0.0957    2.1618    2.2510 C.2       1 RES1    0.0000
     34 H16       -0.3068    1.3558    2.6636 H         1 RES1    0.0000
     35 C19       -1.0996    2.8797    1.7647 C.2       1 RES1    0.0000
     36 H17       -0.8674    3.6798    1.3505 H         1 RES1    0.0000
     37 C20       -2.5260    2.5633    1.8008 C.ar      1 RES1    0.0000
     38 C21       -3.4607    3.5456    1.4930 C.ar      1 RES1    0.0000
     39 H18       -3.1587    4.3797    1.2129 H         1 RES1    0.0000
     40 C22       -4.8136    3.3263    1.5870 C.ar      1 RES1    0.0000
     41 H19       -5.4040    4.0162    1.3859 H         1 RES1    0.0000
     42 C23       -5.3145    2.0867    1.9795 C.ar      1 RES1    0.0000
     43 C24       -4.3768    1.0854    2.2679 C.ar      1 RES1    0.0000
     44 H20       -4.6735    0.2413    2.5201 H         1 RES1    0.0000
     45 C25       -3.0330    1.3277    2.1840 C.ar      1 RES1    0.0000
     46 H21       -2.4384    0.6428    2.3904 H         1 RES1    0.0000
     47 C26       -7.6055    2.9338    1.8852 C.3       1 RES1    0.0000
     48 H22       -7.4349    3.6427    2.5103 H         1 RES1    0.0000
     49 H23       -8.4991    2.6044    2.0129 H         1 RES1    0.0000
     50 H24       -7.5111    3.2662    0.9888 H         1 RES1    0.0000
     51 C27       -7.1895    0.5637    2.3707 C.3       1 RES1    0.0000
     52 H25       -6.8261   -0.0631    1.7417 H         1 RES1    0.0000
     53 H26       -8.1446    0.5808    2.2881 H         1 RES1    0.0000
     54 H27       -6.9478    0.2994    3.2612 H         1 RES1    0.0000
     55 N1         0.8071    8.1085    5.3980 N.pl3     1 RES1    0.0000
     56 N2         1.9963    2.3681    3.4643 N.3       1 RES1    0.0000
     57 N3        -6.6662    1.8644    2.1018 N.3       1 RES1    0.0000
     58 O1         0.4198    9.1799    4.9419 O.2       1 RES1    0.0000
     59 O2         0.9888    7.7180    6.6010 O.2       1 RES1    0.0000
     60 O3         1.4414    3.9415    1.7617 O.3       1 RES1    0.0000
     61 O4         1.2075    9.2660    4.8495 Du        2 SUP2    0.0000
     62 O5         0.5255    8.1756    6.4477 Du        2 SUP2    0.0000
@<TRIPOS>BOND
     1    1    2 ar
     2    2    3 1
     3    4    2 ar
     4    5    4 1
     5    6    4 ar
     6    7    6 ar
     7    8    1 ar
     8    9    8 1
     9   10    7 1
    10   11   10 1
    11   12   10 1
    12   13   14 ar
    13   14   15 1
    14   16   14 ar
    15   17   16 1
    16   18   16 ar
    17   19   18 1
    18   20   18 ar
    19   21   20 1
    20   22   13 ar
    21   23   22 1
    22   24   23 1
    23   25   24 1
    24   26   24 1
    25   27   24 1
    26   28   23 1
    27   29   28 1
    28   30   28 1
    29   31   28 1
    30   32   23 1
    31   33   32 1
    32   34   33 1
    33   35   33 2
    34   36   35 1
    35   37   35 1
    36   38   37 ar
    37   39   38 1
    38   40   38 ar
    39   41   40 1
    40   42   40 ar
    41   43   42 ar
    42   44   43 1
    43   45   37 ar
    44   46   45 1
    45   47   48 1
    46   49   47 1
    47   50   47 1
    48   51   52 1
    49   53   51 1
    50   54   51 1
    51   55    1 1
    52   56   10 1
    53   57   42 1
    54   58   55 2
    55   59   55 2
    56   60    6 1
    57    7    8 ar
    58   13   56 1
    59   20   22 ar
    60   32   56 1
    61   32   60 1
    62   43   45 ar
    63   47   57 1
    64   51   57 1
@<TRIPOS>SUBSTRUCTURE
     1 RES1 1
     2 SUP2 61

@<TRIPOS>CRYSIN
  24.1740   10.0130   19.9690  90.0000 100.1320  90.0000  15 1

