# MOL2 file generated by ConQuest
# Please check atom types

@<TRIPOS>MOLECULE
NOVHIR
    47    50     1
SMALL
NO_CHARGES
****
Generated from CSD

@<TRIPOS>ATOM
      1 O1         8.0198   11.1889    4.6422 O.2       1 RES1    0.0000
      2 O2        10.1283    8.9102    4.8429 O.3       1 RES1    0.0000
      3 O3        16.1446    9.6727    2.0790 O.2       1 RES1    0.0000
      4 O4        15.7400    7.9769    0.8678 O.2       1 RES1    0.0000
      5 O5         8.5712   15.1930   -0.7786 O.3       1 RES1    0.0000
      6 N1         9.2075   10.8521    2.6450 N.am      1 RES1    0.0000
      7 N2        15.3770    8.9000    1.5570 N.pl3     1 RES1    0.0000
      8 C1         8.6616   10.5430    3.8621 C.2       1 RES1    0.0000
      9 C2         9.1915    9.1248    3.8076 C.3       1 RES1    0.0000
     10 C3         9.7565    9.5140    2.3953 C.3       1 RES1    0.0000
     11 C4        10.7688    7.6872    4.9090 C.ar      1 RES1    0.0000
     12 C5        11.7046    7.5683    5.9186 C.ar      1 RES1    0.0000
     13 C6        12.4012    6.3959    6.0589 C.ar      1 RES1    0.0000
     14 C7        12.1806    5.3354    5.2147 C.ar      1 RES1    0.0000
     15 C8        11.2530    5.4592    4.2181 C.ar      1 RES1    0.0000
     16 C9        10.5406    6.6337    4.0529 C.ar      1 RES1    0.0000
     17 C10       11.2433    9.4002    2.1736 C.ar      1 RES1    0.0000
     18 C11       12.1524   10.1722    2.8839 C.ar      1 RES1    0.0000
     19 C12       13.5122   10.0102    2.6861 C.ar      1 RES1    0.0000
     20 C13       13.9350    9.0862    1.7670 C.ar      1 RES1    0.0000
     21 C14       13.0611    8.3026    1.0425 C.ar      1 RES1    0.0000
     22 C15       11.7122    8.4789    1.2479 C.ar      1 RES1    0.0000
     23 C16        9.0561   11.9522    1.7689 C.ar      1 RES1    0.0000
     24 C17        8.0595   12.9008    1.9722 C.ar      1 RES1    0.0000
     25 C18        7.9392   13.9605    1.1089 C.ar      1 RES1    0.0000
     26 C19        8.7955   14.1076    0.0301 C.ar      1 RES1    0.0000
     27 C20        9.7775   13.1661   -0.1783 C.ar      1 RES1    0.0000
     28 C21        9.8987   12.0944    0.6868 C.ar      1 RES1    0.0000
     29 C22        9.5606   15.5074   -1.7496 C.3       1 RES1    0.0000
     30 H1         8.4863    8.4456    3.7719 H         1 RES1    0.0000
     31 H2         9.2606    9.0594    1.6824 H         1 RES1    0.0000
     32 H3        11.8616    8.2792    6.4991 H         1 RES1    0.0000
     33 H4        13.0333    6.3181    6.7377 H         1 RES1    0.0000
     34 H5        12.6554    4.5428    5.3190 H         1 RES1    0.0000
     35 H6        11.0991    4.7453    3.6436 H         1 RES1    0.0000
     36 H7         9.9138    6.7102    3.3699 H         1 RES1    0.0000
     37 H8        11.8457   10.8018    3.4962 H         1 RES1    0.0000
     38 H9        14.1257   10.5173    3.1663 H         1 RES1    0.0000
     39 H10       13.3749    7.6737    0.4331 H         1 RES1    0.0000
     40 H11       11.1049    7.9722    0.7580 H         1 RES1    0.0000
     41 H12        7.4760   12.8169    2.6911 H         1 RES1    0.0000
     42 H13        7.2698   14.5905    1.2503 H         1 RES1    0.0000
     43 H14       10.3574   13.2500   -0.9004 H         1 RES1    0.0000
     44 H15       10.5605   11.4587    0.5364 H         1 RES1    0.0000
     45 H16       10.4012   15.6586   -1.3125 H         1 RES1    0.0000
     46 H17        9.3006   16.2992   -2.2259 H         1 RES1    0.0000
     47 H18        9.6468   14.7766   -2.3662 H         1 RES1    0.0000
@<TRIPOS>BOND
     1    1    8 2
     2    2    9 1
     3    3    7 2
     4    4    7 2
     5    5   26 1
     6    6    8 1
     7    7   20 1
     8    8    9 1
     9    9   10 1
    10   10    6 1
    11   11    2 1
    12   12   11 ar
    13   13   12 ar
    14   14   13 ar
    15   15   14 ar
    16   16   11 ar
    17   17   10 1
    18   18   17 ar
    19   19   18 ar
    20   20   19 ar
    21   21   20 ar
    22   22   17 ar
    23   23    6 1
    24   24   23 ar
    25   25   24 ar
    26   26   25 ar
    27   27   26 ar
    28   28   23 ar
    29   29    5 1
    30   30    9 1
    31   31   10 1
    32   32   12 1
    33   33   13 1
    34   34   14 1
    35   35   15 1
    36   36   16 1
    37   37   18 1
    38   38   19 1
    39   39   21 1
    40   40   22 1
    41   41   24 1
    42   42   25 1
    43   43   27 1
    44   44   28 1
    45   45   29 1
    46   46   29 1
    47   47   29 1
    48   15   16 ar
    49   21   22 ar
    50   27   28 ar
@<TRIPOS>SUBSTRUCTURE
     1 RES1 1

@<TRIPOS>CRYSIN
   9.8044   10.6483   11.1573  66.9570  70.1050  65.9730   2 1

