# MOL2 file generated by ConQuest
# Please check atom types

@<TRIPOS>MOLECULE
NOXBEH
    33    32     1
SMALL
NO_CHARGES
****
Generated from CSD

@<TRIPOS>ATOM
      1 O1         3.6866    5.7301    2.5680 O.3       1 RES1    0.0000
      2 O2         1.8054   -2.3880   -4.4023 O.3       1 RES1    0.0000
      3 O3         0.3660    3.2918    0.6139 O.2       1 RES1    0.0000
      4 O4         4.4122   -1.8211   -0.7019 O.2       1 RES1    0.0000
      5 N1         3.1158    4.4947    2.2858 N.2       1 RES1    0.0000
      6 N2         1.9065   -2.2600   -3.0245 N.2       1 RES1    0.0000
      7 N3         2.1710    2.1771    1.3058 N.am      1 RES1    0.0000
      8 N4         2.1662   -1.7212   -0.4707 N.am      1 RES1    0.0000
      9 C1         1.6887    5.8357    0.8041 C.3       1 RES1    0.0000
     10 C2         4.2900   -1.8777   -3.5463 C.3       1 RES1    0.0000
     11 C3         2.1759    4.5850    1.4306 C.2       1 RES1    0.0000
     12 C4         3.1038   -2.0019   -2.6635 C.2       1 RES1    0.0000
     13 C5         1.5024    3.2955    1.0847 C.2       1 RES1    0.0000
     14 C6         3.2769   -1.8416   -1.1902 C.2       1 RES1    0.0000
     15 C7         1.6263    0.8644    0.9917 C.3       1 RES1    0.0000
     16 C8         2.1665   -1.6041    0.9708 C.3       1 RES1    0.0000
     17 C9         2.5707   -0.2185    1.4356 C.3       1 RES1    0.0000
     18 H1         4.2328    5.5447    3.2414 H         1 RES1    0.0000
     19 H2         1.0041   -2.7941   -4.5062 H         1 RES1    0.0000
     20 H3         2.2900    6.4133    0.6366 H         1 RES1    0.0000
     21 H4         4.0628   -1.8531   -4.4811 H         1 RES1    0.0000
     22 H5         1.1857    6.3699    1.4239 H         1 RES1    0.0000
     23 H6         4.8116   -2.5624   -3.4843 H         1 RES1    0.0000
     24 H7         1.1943    5.6895    0.0921 H         1 RES1    0.0000
     25 H8         4.8006   -1.2305   -3.2749 H         1 RES1    0.0000
     26 H9         3.0397    2.2295    1.4909 H         1 RES1    0.0000
     27 H10        1.3536   -1.8965   -0.8878 H         1 RES1    0.0000
     28 H11        0.7843    0.7528    1.4071 H         1 RES1    0.0000
     29 H12        2.7349   -2.2005    1.3150 H         1 RES1    0.0000
     30 H13        1.4145    0.8107    0.0419 H         1 RES1    0.0000
     31 H14        1.3013   -1.8096    1.2899 H         1 RES1    0.0000
     32 H15        3.4725   -0.0145    1.0805 H         1 RES1    0.0000
     33 H16        2.5561   -0.2172    2.3704 H         1 RES1    0.0000
@<TRIPOS>BOND
     1    1    5 1
     2    2    6 1
     3    3   13 2
     4    4   14 2
     5    5   11 2
     6    6   12 2
     7    7   13 1
     8    8   14 1
     9    9   11 1
    10   10   12 1
    11   11   13 1
    12   12   14 1
    13   15    7 1
    14   16    8 1
    15   17   15 1
    16   18    1 1
    17   19    2 1
    18   20    9 1
    19   21   10 1
    20   22    9 1
    21   23   10 1
    22   24    9 1
    23   25   10 1
    24   26    7 1
    25   27    8 1
    26   28   15 1
    27   29   16 1
    28   30   15 1
    29   31   16 1
    30   32   17 1
    31   33   17 1
    32   16   17 1
@<TRIPOS>SUBSTRUCTURE
     1 RES1 1

@<TRIPOS>CRYSIN
   9.5590   14.4770    8.3760  90.0000  90.3700  90.0000  14 1

