# MOL2 file generated by ConQuest
# Please check atom types

@<TRIPOS>MOLECULE
NOYGIR
    35    36     1
SMALL
NO_CHARGES
****
Generated from CSD

@<TRIPOS>ATOM
      1 N1         4.8496    1.1861    6.9697 N.pl3     1 RES1    0.0000
      2 N2         2.7266    1.3094    8.0803 N.pl3     1 RES1    0.0000
      3 N3         4.6596    2.6597    8.9280 N.pl3     1 RES1    0.0000
      4 O1         2.6260    4.3342    8.6604 O.3       1 RES1    0.0000
      5 O2         4.0331    4.5914    3.3218 O.3       1 RES1    0.0000
      6 O3         6.0274    1.2140    7.2355 O.2       1 RES1    0.0000
      7 O4         4.2763    0.4486    6.1736 O.2       1 RES1    0.0000
      8 O5         3.0145    0.2661    8.6438 O.2       1 RES1    0.0000
      9 O6         1.6116    1.7007    7.8009 O.2       1 RES1    0.0000
     10 O7         4.3803    2.1419    9.9782 O.2       1 RES1    0.0000
     11 O8         5.4786    3.5367    8.7441 O.2       1 RES1    0.0000
     12 C1         2.9613    4.4111    7.3308 C.ar      1 RES1    0.0000
     13 C2         3.5892    3.3370    6.7566 C.ar      1 RES1    0.0000
     14 C3         3.9706    3.3487    5.3872 C.ar      1 RES1    0.0000
     15 C4         3.7355    4.4710    4.6416 C.ar      1 RES1    0.0000
     16 C5         3.1853    5.6395    5.2324 C.ar      1 RES1    0.0000
     17 C6         3.0487    6.8462    4.5073 C.ar      1 RES1    0.0000
     18 C7         2.5665    7.9709    5.1078 C.ar      1 RES1    0.0000
     19 C8         2.1919    7.9524    6.4636 C.ar      1 RES1    0.0000
     20 C9         2.2937    6.8019    7.1907 C.ar      1 RES1    0.0000
     21 C10        2.7873    5.6139    6.5941 C.ar      1 RES1    0.0000
     22 C11        1.2052    4.4214    8.9747 C.3       1 RES1    0.0000
     23 C12        3.9204    2.1872    7.6442 C.3       1 RES1    0.0000
     24 C13        4.5102    3.4361    2.6318 C.3       1 RES1    0.0000
     25 H1         4.3830    2.5877    4.9959 H         1 RES1    0.0000
     26 H2         3.2977    6.8737    3.5914 H         1 RES1    0.0000
     27 H3         2.4817    8.7729    4.6066 H         1 RES1    0.0000
     28 H4         1.8671    8.7446    6.8753 H         1 RES1    0.0000
     29 H5         2.0314    6.7969    8.1036 H         1 RES1    0.0000
     30 H6         1.0546    5.1533    9.6083 H         1 RES1    0.0000
     31 H7         0.9062    3.5774    9.3738 H         1 RES1    0.0000
     32 H8         0.6986    4.5909    8.1533 H         1 RES1    0.0000
     33 H9         4.6493    3.6546    1.6867 H         1 RES1    0.0000
     34 H10        3.8511    2.7147    2.7067 H         1 RES1    0.0000
     35 H11        5.3588    3.1460    3.0279 H         1 RES1    0.0000
@<TRIPOS>BOND
     1    1    6 2
     2    2    8 2
     3    3   10 2
     4    4   12 1
     5    5   15 1
     6    7    1 2
     7    9    2 2
     8   11    3 2
     9   12   13 ar
    10   13   14 ar
    11   14   15 ar
    12   15   16 ar
    13   16   17 ar
    14   17   18 ar
    15   18   19 ar
    16   19   20 ar
    17   20   21 ar
    18   21   12 ar
    19   22    4 1
    20   23    1 1
    21   24    5 1
    22   25   14 1
    23   26   17 1
    24   27   18 1
    25   28   19 1
    26   29   20 1
    27   30   22 1
    28   31   22 1
    29   32   22 1
    30   33   24 1
    31   34   24 1
    32   35   24 1
    33    2   23 1
    34    3   23 1
    35   13   23 1
    36   16   21 ar
@<TRIPOS>SUBSTRUCTURE
     1 RES1 1

@<TRIPOS>CRYSIN
   7.3780    9.5620    9.9760  83.7400  78.3300  82.9900   2 1

