# MOL2 file generated by ConQuest
# Please check atom types

@<TRIPOS>MOLECULE
NOZYIK
    46    45     1
SMALL
NO_CHARGES
****
Generated from CSD

@<TRIPOS>ATOM
      1 C1        -3.3642    2.0844   -2.7866 C.3       1 RES1    0.0000
      2 C2        -2.5040    0.9167   -3.2000 C.3       1 RES1    0.0000
      3 C3        -1.0761    1.0518   -2.7238 C.3       1 RES1    0.0000
      4 C4        -0.2018   -0.1576   -3.0029 C.3       1 RES1    0.0000
      5 C5         2.1307    0.5908   -2.9166 C.2       1 RES1    0.0000
      6 C6         3.3932    0.6380   -2.1113 C.3       1 RES1    0.0000
      7 C7         3.5347    1.9707   -1.4093 C.3       1 RES1    0.0000
      8 H1         2.7329    2.0972   -0.7766 H         1 RES1    0.0000
      9 H2         3.4977    2.7202   -2.1134 H         1 RES1    0.0000
     10 C8         4.8230    2.1219   -0.6008 C.3       1 RES1    0.0000
     11 H3         5.6187    1.9503   -1.2325 H         1 RES1    0.0000
     12 H4         4.8884    3.0997   -0.2834 H         1 RES1    0.0000
     13 C9         4.9637    1.3102    0.4900 C.3       1 RES1    0.0000
     14 H5         5.0185    0.3345    0.1640 H         1 RES1    0.0000
     15 H6         4.1179    1.3949    1.0706 H         1 RES1    0.0000
     16 C10        6.2264    1.6040    1.3986 C.3       1 RES1    0.0000
     17 H7         7.0832    1.5515    0.8309 H         1 RES1    0.0000
     18 H8         6.1570    2.5529    1.7938 H         1 RES1    0.0000
     19 C11        6.2867    0.6229    2.4788 C.3       1 RES1    0.0000
     20 H9         6.3770   -0.3163    2.0644 H         1 RES1    0.0000
     21 H10        5.3959    0.6487    2.9954 H         1 RES1    0.0000
     22 C12        7.3671    0.8159    3.4162 C.3       1 RES1    0.0000
     23 H11        8.2663    0.7645    2.9187 H         1 RES1    0.0000
     24 H12        7.3306    0.0815    4.1384 H         1 RES1    0.0000
     25 H13        7.2731    1.7402    3.8615 H         1 RES1    0.0000
     26 C13       -2.5477    0.7312   -4.7190 C.3       1 RES1    0.0000
     27 N1         1.1079   -0.0633   -2.3914 N.am      1 RES1    0.0000
     28 N2        -1.0566    1.2856   -1.2442 N.pl3     1 RES1    0.0000
     29 N3        -0.3744    2.2945   -0.8788 N.2       1 RES1    0.0000
     30 O1         2.0653    1.1483   -4.0276 O.2       1 RES1    0.0000
     31 O2        -1.6496    0.4589   -0.4921 O.2       1 RES1    0.0000
     32 O3        -0.3800    2.3481    0.4889 O.3       1 RES1    0.0000
     33 H14       -4.2849    2.0447   -3.2170 H         1 RES1    0.0000
     34 H15       -3.3331    2.1412   -1.9078 H         1 RES1    0.0000
     35 H16       -2.9389    2.9250   -3.2830 H         1 RES1    0.0000
     36 H17       -2.8773    0.1254   -2.7771 H         1 RES1    0.0000
     37 H18       -0.6991    1.8249   -3.0817 H         1 RES1    0.0000
     38 H19       -0.0997   -0.2359   -3.9062 H         1 RES1    0.0000
     39 H20       -0.6646   -0.9392   -2.6503 H         1 RES1    0.0000
     40 H21        4.1540    0.4975   -2.7451 H         1 RES1    0.0000
     41 H22        3.3589   -0.0633   -1.4540 H         1 RES1    0.0000
     42 H23       -2.2078    1.4914   -5.0130 H         1 RES1    0.0000
     43 H24       -1.9900    0.0064   -5.1131 H         1 RES1    0.0000
     44 H25       -3.5607    0.7334   -5.0716 H         1 RES1    0.0000
     45 H26        1.1519   -0.3881   -1.6415 H         1 RES1    0.0000
     46 H27        0.3105    3.0836    0.6828 H         1 RES1    0.0000
@<TRIPOS>BOND
     1    1    2 1
     2    2    3 1
     3    3    4 1
     4    4   27 1
     5    5    6 1
     6    6    7 1
     7    7    8 1
     8    9    7 1
     9   10    7 1
    10   11   10 1
    11   12   10 1
    12   13   10 1
    13   14   13 1
    14   15   13 1
    15   16   13 1
    16   17   16 1
    17   18   16 1
    18   19   16 1
    19   20   19 1
    20   21   19 1
    21   22   19 1
    22   23   22 1
    23   24   22 1
    24   25   22 1
    25   26    2 1
    26   27    5 1
    27   28    3 1
    28   29   28 2
    29   30    5 2
    30   31   28 1
    31   32   29 1
    32   33    1 1
    33   34    1 1
    34   35    1 1
    35   36    2 1
    36   37    3 1
    37   38    4 1
    38   39    4 1
    39   40    6 1
    40   41    6 1
    41   42   26 1
    42   43   26 1
    43   44   26 1
    44   45   27 1
    45   46   32 1
@<TRIPOS>SUBSTRUCTURE
     1 RES1 1

@<TRIPOS>CRYSIN
  14.6690   10.7220   10.8020  90.0000  99.5500  90.0000  14 1

