# MOL2 file generated by ConQuest
# Please check atom types

@<TRIPOS>MOLECULE
NPBDXY
    32    33     1
SMALL
NO_CHARGES
****
Generated from CSD

@<TRIPOS>ATOM
      1 C1        -2.4880    2.5226   -7.7675 C.3       1 RES1    0.0000
      2 C2        -5.5664    1.1142  -10.3163 C.ar      1 RES1    0.0000
      3 C3        -4.4968    1.6298   -9.5916 C.ar      1 RES1    0.0000
      4 C4        -1.3452    2.6000   -6.7731 C.3       1 RES1    0.0000
      5 C5        -1.1521    4.0448   -6.3182 C.3       1 RES1    0.0000
      6 C6        -1.1235    5.0287   -7.4840 C.3       1 RES1    0.0000
      7 C7        -2.2102    4.7135   -8.5127 C.3       1 RES1    0.0000
      8 C8        -3.6918    0.7844   -8.8670 C.ar      1 RES1    0.0000
      9 C9        -3.9378   -0.5803   -8.8327 C.ar      1 RES1    0.0000
     10 C10       -5.0085   -1.1014   -9.5048 C.ar      1 RES1    0.0000
     11 C11       -5.7898   -0.2514  -10.2500 C.ar      1 RES1    0.0000
     12 H1        -3.4608    2.8423   -7.2692 H         1 RES1    0.0000
     13 H2        -6.1402    1.6945  -10.8352 H         1 RES1    0.0000
     14 H3        -4.2806    2.6055   -9.6236 H         1 RES1    0.0000
     15 H4        -1.2930    1.2298   -5.7148 H         1 RES1    0.0000
     16 H5         0.1155    3.6440   -4.9833 H         1 RES1    0.0000
     17 H6        -1.8927    6.4954   -6.5148 H         1 RES1    0.0000
     18 H7        -3.1526    4.8921   -8.0921 H         1 RES1    0.0000
     19 H8        -0.4787    2.2411   -7.2234 H         1 RES1    0.0000
     20 H9        -1.9587    4.3364   -5.6462 H         1 RES1    0.0000
     21 H10       -0.2421    5.0105   -8.0007 H         1 RES1    0.0000
     22 H11       -2.1293    5.2474   -9.4179 H         1 RES1    0.0000
     23 H12       -3.3067   -1.1479   -8.2521 H         1 RES1    0.0000
     24 H13       -5.2324   -2.0133   -9.4408 H         1 RES1    0.0000
     25 N1        -6.9188   -0.8135  -11.0043 N.pl3     1 RES1    0.0000
     26 O1        -2.5738    1.1898   -8.1721 O.3       1 RES1    0.0000
     27 O2        -1.6545    1.8348   -5.6073 O.3       1 RES1    0.0000
     28 O3         0.0644    4.1569   -5.6187 O.3       1 RES1    0.0000
     29 O4        -1.2847    6.3670   -6.9949 O.3       1 RES1    0.0000
     30 O5        -2.1667    3.3343   -8.8830 O.3       1 RES1    0.0000
     31 O6        -7.3017   -1.9350  -10.6980 O.2       1 RES1    0.0000
     32 O7        -7.4244   -0.1503  -11.8935 O.2       1 RES1    0.0000
@<TRIPOS>BOND
     1    1    4 1
     2    2    3 ar
     3    3    8 ar
     4    4    5 1
     5    5    6 1
     6    6    7 1
     7    7   18 1
     8    8    9 ar
     9    9   10 ar
    10   10   11 ar
    11   11    2 ar
    12   12    1 1
    13   13    2 1
    14   14    3 1
    15   15   27 1
    16   16   28 1
    17   17   29 1
    18   19    4 1
    19   20    5 1
    20   21    6 1
    21   22    7 1
    22   23    9 1
    23   24   10 1
    24   25   11 1
    25   26    1 1
    26   27    4 1
    27   28    5 1
    28   29    6 1
    29   30    1 1
    30   31   25 2
    31   32   25 2
    32    7   30 1
    33    8   26 1
@<TRIPOS>SUBSTRUCTURE
     1 RES1 1

@<TRIPOS>CRYSIN
   5.5020    9.1100   22.8590  90.0000  90.0000  90.0000  19 1

