# MOL2 file generated by ConQuest
# Please check atom types

@<TRIPOS>MOLECULE
NPGLPN
    36    37     1
SMALL
NO_CHARGES
****
Generated from CSD

@<TRIPOS>ATOM
      1 C1         2.6724    3.7749    4.8858 C.3       1 RES1    0.0000
      2 C2         1.6744    2.8371    5.5173 C.3       1 RES1    0.0000
      3 C3         0.3468    3.5430    5.7255 C.3       1 RES1    0.0000
      4 C4         0.5883    4.7791    6.5757 C.3       1 RES1    0.0000
      5 C5         1.6336    5.6777    5.9268 C.3       1 RES1    0.0000
      6 C6         2.0318    6.7791    6.8758 C.3       1 RES1    0.0000
      7 C7         1.8744    0.5013    5.0853 C.2       1 RES1    0.0000
      8 C8         1.4003   -0.5865    4.1866 C.3       1 RES1    0.0000
      9 C9        -1.7593    2.4296    5.9528 C.2       1 RES1    0.0000
     10 C10       -2.4692    1.3759    6.7231 C.3       1 RES1    0.0000
     11 C11       -1.2811    5.5771    7.8266 C.2       1 RES1    0.0000
     12 C12       -2.5704    6.3307    7.6930 C.3       1 RES1    0.0000
     13 C13        3.2371    8.7842    6.8949 C.2       1 RES1    0.0000
     14 C14        3.8923    9.8447    6.0742 C.3       1 RES1    0.0000
     15 C15        2.9278    4.8780    2.7656 C.ar      1 RES1    0.0000
     16 C16        2.2579    5.4782    1.7038 C.ar      1 RES1    0.0000
     17 C17        2.9082    6.2267    0.7408 C.ar      1 RES1    0.0000
     18 C18        4.2693    6.3852    0.8901 C.ar      1 RES1    0.0000
     19 C19        4.9743    5.8106    1.9259 C.ar      1 RES1    0.0000
     20 C20        4.2971    5.0604    2.8784 C.ar      1 RES1    0.0000
     21 O1         2.1706    4.1039    3.5949 O.3       1 RES1    0.0000
     22 O2         1.4345    1.7067    4.6637 O.3       1 RES1    0.0000
     23 O3        -0.5059    2.6291    6.4403 O.3       1 RES1    0.0000
     24 O4        -0.6422    5.5310    6.6398 O.3       1 RES1    0.0000
     25 O5         2.8503    4.9257    5.6769 O.3       1 RES1    0.0000
     26 O6         2.7638    7.7731    6.1332 O.3       1 RES1    0.0000
     27 O7         2.5459    0.3649    6.0656 O.2       1 RES1    0.0000
     28 O8        -2.1950    3.0383    5.0228 O.2       1 RES1    0.0000
     29 O9        -0.8796    5.0673    8.8277 O.2       1 RES1    0.0000
     30 O10        3.1204    8.8046    8.0886 O.2       1 RES1    0.0000
     31 N1         0.8103    5.3384    1.5754 N.pl3     1 RES1    0.0000
     32 N2         4.9825    7.1951   -0.1006 N.pl3     1 RES1    0.0000
     33 O11        0.3664    4.9854    0.4893 O.2       1 RES1    0.0000
     34 O12        0.1257    5.5822    2.5643 O.2       1 RES1    0.0000
     35 O13        6.1934    7.2122   -0.0642 O.2       1 RES1    0.0000
     36 O14        4.3330    7.8345   -0.9161 O.2       1 RES1    0.0000
@<TRIPOS>BOND
     1    1    2 1
     2    2    3 1
     3    3    4 1
     4    4    5 1
     5    5    6 1
     6    6   26 1
     7    7    8 1
     8    9   10 1
     9   11   12 1
    10   13   14 1
    11   15   16 ar
    12   16   17 ar
    13   17   18 ar
    14   18   19 ar
    15   19   20 ar
    16   20   15 ar
    17   21    1 1
    18   22    2 1
    19   23    3 1
    20   24    4 1
    21   25    1 1
    22   26   13 1
    23   27    7 2
    24   28    9 2
    25   29   11 2
    26   30   13 2
    27   31   16 1
    28   32   18 1
    29   33   31 2
    30   34   31 2
    31   35   32 2
    32   36   32 2
    33    5   25 1
    34    7   22 1
    35    9   23 1
    36   11   24 1
    37   15   21 1
@<TRIPOS>SUBSTRUCTURE
     1 RES1 1

@<TRIPOS>CRYSIN
   8.1600   17.0500   17.3500  90.0000  90.0000  90.0000  19 1

