# MOL2 file generated by ConQuest
# Please check atom types

@<TRIPOS>MOLECULE
NPHDZA
    28    28     1
SMALL
NO_CHARGES
****
Generated from CSD

@<TRIPOS>ATOM
      1 N1         0.4689    5.9027    0.3827 N.pl3     1 RES1    0.0000
      2 O1        -0.0305    6.9549    0.8586 O.2       1 RES1    0.0000
      3 O2         0.3407    5.6824   -0.8391 O.2       1 RES1    0.0000
      4 C1         1.1337    4.9531    1.1898 C.ar      1 RES1    0.0000
      5 C2         1.6493    3.7889    0.6151 C.ar      1 RES1    0.0000
      6 C3         2.3099    2.8564    1.4110 C.ar      1 RES1    0.0000
      7 C4         2.5004    3.0824    2.8081 C.ar      1 RES1    0.0000
      8 C5         1.9080    4.2827    3.3341 C.ar      1 RES1    0.0000
      9 C6         1.2960    5.1715    2.5618 C.ar      1 RES1    0.0000
     10 N2         3.1816    2.2221    3.6361 N.3       1 RES1    0.0000
     11 N3         3.6002    1.0920    2.9960 N.2       1 RES1    0.0000
     12 C7         4.2893    0.3722    3.7683 C.2       1 RES1    0.0000
     13 C8         4.6124    0.5109    5.2405 C.3       1 RES1    0.0000
     14 C9         4.8144   -0.9743    3.2715 C.3       1 RES1    0.0000
     15 C10        4.5149   -1.2307    1.8104 C.3       1 RES1    0.0000
     16 H1         0.9115    6.0774    3.0057 H         1 RES1    0.0000
     17 H2         1.9942    4.4821    4.3833 H         1 RES1    0.0000
     18 H3         2.7068    1.9562    0.9741 H         1 RES1    0.0000
     19 H4         1.5379    3.5895   -0.4453 H         1 RES1    0.0000
     20 H5         3.3163    2.0511    4.6199 H         1 RES1    0.0000
     21 H6         5.1913   -0.3419    5.5522 H         1 RES1    0.0000
     22 H7         3.6957    0.5508    5.8305 H         1 RES1    0.0000
     23 H8         5.1744    1.4054    5.3992 H         1 RES1    0.0000
     24 H9         5.8849   -0.9496    3.3814 H         1 RES1    0.0000
     25 H10        4.4044   -1.7852    3.8685 H         1 RES1    0.0000
     26 H11        4.9826   -2.1841    1.5029 H         1 RES1    0.0000
     27 H12        4.9241   -0.4368    1.1967 H         1 RES1    0.0000
     28 H13        3.4477   -1.2725    1.6838 H         1 RES1    0.0000
@<TRIPOS>BOND
     1    1    2 2
     2    3    1 2
     3    4    1 1
     4    5    4 ar
     5    6    5 ar
     6    7    6 ar
     7    8    7 ar
     8    9    4 ar
     9   10    7 1
    10   11   10 1
    11   12   11 2
    12   13   12 1
    13   14   12 1
    14   15   14 1
    15   16    9 1
    16   17    8 1
    17   18    6 1
    18   19    5 1
    19   20   10 1
    20   21   13 1
    21   22   13 1
    22   23   13 1
    23   24   14 1
    24   25   14 1
    25   26   15 1
    26   27   15 1
    27   28   15 1
    28    8    9 ar
@<TRIPOS>SUBSTRUCTURE
     1 RES1 1

@<TRIPOS>CRYSIN
   4.1190   18.9920   13.9920  90.0000  96.0000  90.0000  14 1

