# MOL2 file generated by ConQuest
# Please check atom types

@<TRIPOS>MOLECULE
NPHOPN01
    57    60     1
SMALL
NO_CHARGES
****
Generated from CSD

@<TRIPOS>ATOM
      1 O1        14.5510   21.5374    2.7294 O.3       1 RES1    0.0000
      2 O2        22.6710   26.8619    1.4273 O.3       1 RES1    0.0000
      3 O3         9.0514   21.6778   -0.2523 O.2       1 RES1    0.0000
      4 O4        28.7718   28.1151    1.7465 O.2       1 RES1    0.0000
      5 O5        10.2688   20.7644   -1.7924 O.2       1 RES1    0.0000
      6 O6        28.8734   25.9492    1.7808 O.2       1 RES1    0.0000
      7 N1        10.1217   21.2430   -0.6692 N.pl3     1 RES1    0.0000
      8 N2        28.2367   27.0036    1.7214 N.pl3     1 RES1    0.0000
      9 C1        19.7166   22.0760    0.2964 C.3       1 RES1    0.0000
     10 C2        19.3385   21.9904   -1.2036 C.3       1 RES1    0.0000
     11 H1        20.1433   21.8101   -1.7334 H         1 RES1    0.0000
     12 H2        18.9440   22.8410   -1.4902 H         1 RES1    0.0000
     13 H3        18.6886   21.2673   -1.3365 H         1 RES1    0.0000
     14 C3        20.6789   20.9131    0.6206 C.3       1 RES1    0.0000
     15 H4        21.4878   20.9958    0.0746 H         1 RES1    0.0000
     16 H5        20.2401   20.0589    0.4228 H         1 RES1    0.0000
     17 H6        20.9204   20.9436    1.5699 H         1 RES1    0.0000
     18 C4        18.4030   21.9784    1.0862 C.ar      1 RES1    0.0000
     19 C5        20.4671   23.3856    0.5934 C.ar      1 RES1    0.0000
     20 C6        13.4972   21.4805    1.8391 C.ar      1 RES1    0.0000
     21 C7        24.0362   26.8120    1.4578 C.ar      1 RES1    0.0000
     22 C8        18.0757   20.8920    1.8903 C.ar      1 RES1    0.0000
     23 H7        18.7396   20.2364    2.0706 H         1 RES1    0.0000
     24 C9        21.3286   23.9340   -0.3593 C.ar      1 RES1    0.0000
     25 H8        21.4098   23.5169   -1.2087 H         1 RES1    0.0000
     26 C10       13.6408   20.9943    0.5421 C.ar      1 RES1    0.0000
     27 H9        14.4937   20.7244    0.2205 H         1 RES1    0.0000
     28 C11       24.7794   25.6298    1.5304 C.ar      1 RES1    0.0000
     29 H10       24.3381   24.7879    1.5258 H         1 RES1    0.0000
     30 C12       16.8030   20.7372    2.4389 C.ar      1 RES1    0.0000
     31 H11       16.6019   19.9858    2.9823 H         1 RES1    0.0000
     32 C13       22.0710   25.0794   -0.0901 C.ar      1 RES1    0.0000
     33 H12       22.6414   25.4508   -0.7522 H         1 RES1    0.0000
     34 C14       12.5176   20.9074   -0.2769 C.ar      1 RES1    0.0000
     35 H13       12.5926   20.5704   -1.1621 H         1 RES1    0.0000
     36 C15       26.1551   25.6888    1.6082 C.ar      1 RES1    0.0000
     37 H14       26.6695   24.8897    1.6510 H         1 RES1    0.0000
     38 C16       15.8414   21.6890    2.1821 C.ar      1 RES1    0.0000
     39 C17       21.9643   25.6682    1.1523 C.ar      1 RES1    0.0000
     40 C18       11.2887   21.3187    0.2153 C.ar      1 RES1    0.0000
     41 C19       26.7824   26.9344    1.6231 C.ar      1 RES1    0.0000
     42 C20       16.1477   22.8274    1.4487 C.ar      1 RES1    0.0000
     43 H15       15.4940   23.5039    1.3151 H         1 RES1    0.0000
     44 C21       21.1296   25.1587    2.1198 C.ar      1 RES1    0.0000
     45 H16       21.0656   25.5786    2.9700 H         1 RES1    0.0000
     46 C22       11.1351   21.7939    1.5045 C.ar      1 RES1    0.0000
     47 H17       10.2827   22.0606    1.8261 H         1 RES1    0.0000
     48 C23       26.0521   28.1164    1.5518 C.ar      1 RES1    0.0000
     49 H18       26.4947   28.9557    1.5680 H         1 RES1    0.0000
     50 C24       17.4220   22.9660    0.9124 C.ar      1 RES1    0.0000
     51 H19       17.6345   23.7492    0.4170 H         1 RES1    0.0000
     52 C25       20.3805   24.0177    1.8332 C.ar      1 RES1    0.0000
     53 H20       19.7991   23.6631    2.4960 H         1 RES1    0.0000
     54 C26       12.2554   21.8740    2.3189 C.ar      1 RES1    0.0000
     55 H21       12.1731   22.1990    3.2080 H         1 RES1    0.0000
     56 C27       24.6783   28.0522    1.4558 C.ar      1 RES1    0.0000
     57 H22       24.1687   28.8513    1.3884 H         1 RES1    0.0000
@<TRIPOS>BOND
     1    1   20 1
     2    2   21 1
     3    3    7 2
     4    4    8 2
     5    5    7 2
     6    6    8 2
     7    7   40 1
     8    8   41 1
     9    9   10 1
    10   10   11 1
    11   12   10 1
    12   13   10 1
    13   14    9 1
    14   15   14 1
    15   16   14 1
    16   17   14 1
    17   18    9 1
    18   19    9 1
    19   20   26 ar
    20   21   28 ar
    21   22   18 ar
    22   23   22 1
    23   24   19 ar
    24   25   24 1
    25   26   27 1
    26   28   29 1
    27   30   22 ar
    28   31   30 1
    29   32   24 ar
    30   33   32 1
    31   34   26 ar
    32   35   34 1
    33   36   28 ar
    34   37   36 1
    35   38    1 1
    36   39    2 1
    37   40   34 ar
    38   41   36 ar
    39   42   38 ar
    40   43   42 1
    41   44   39 ar
    42   45   44 1
    43   46   40 ar
    44   47   46 1
    45   48   41 ar
    46   49   48 1
    47   50   18 ar
    48   51   50 1
    49   52   19 ar
    50   53   52 1
    51   54   20 ar
    52   55   54 1
    53   56   21 ar
    54   57   56 1
    55   30   38 ar
    56   32   39 ar
    57   42   50 ar
    58   44   52 ar
    59   46   54 ar
    60   48   56 ar
@<TRIPOS>SUBSTRUCTURE
     1 RES1 1

@<TRIPOS>CRYSIN
  26.8900   26.0980    6.4847  90.0000  90.0000  90.0000  61 1

