# MOL2 file generated by ConQuest
# Please check atom types

@<TRIPOS>MOLECULE
NPHOAC01
    21    21     1
SMALL
NO_CHARGES
****
Generated from CSD

@<TRIPOS>ATOM
      1 O1         7.1971    4.5696    7.3108 O.2       1 RES1    0.0000
      2 O2         6.0783    3.2811    5.9638 O.2       1 RES1    0.0000
      3 O3         5.7722    8.7656    2.8663 O.3       1 RES1    0.0000
      4 O4         5.3907   10.9934    1.5122 O.3       1 RES1    0.0000
      5 H1         5.2395   11.6618    1.0270 H         1 RES1    0.0000
      6 O5         4.3299    9.9348   -0.1667 O.2       1 RES1    0.0000
      7 N1         6.5523    4.3897    6.2681 N.pl3     1 RES1    0.0000
      8 C1         6.3290    5.5198    5.3622 C.ar      1 RES1    0.0000
      9 C2         6.7970    6.7866    5.7302 C.ar      1 RES1    0.0000
     10 H2         7.2437    6.9159    6.5590 H         1 RES1    0.0000
     11 C3         6.5964    7.8453    4.8644 C.ar      1 RES1    0.0000
     12 H3         6.9066    8.7121    5.0996 H         1 RES1    0.0000
     13 C4         5.9360    7.6480    3.6401 C.ar      1 RES1    0.0000
     14 C5         5.4875    6.3667    3.2838 C.ar      1 RES1    0.0000
     15 H4         5.0468    6.2292    2.4534 H         1 RES1    0.0000
     16 C6         5.6898    5.2988    4.1520 C.ar      1 RES1    0.0000
     17 H5         5.3936    4.4268    3.9177 H         1 RES1    0.0000
     18 C7         5.1421    8.5975    1.5979 C.3       1 RES1    0.0000
     19 H6         4.2675    8.1495    1.7182 H         1 RES1    0.0000
     20 H7         5.7053    8.0241    1.0199 H         1 RES1    0.0000
     21 C8         4.9378    9.9357    0.9381 C.2       1 RES1    0.0000
@<TRIPOS>BOND
     1    1    7 2
     2    2    7 2
     3    3   13 1
     4    4    5 1
     5    6   21 2
     6    7    8 1
     7    8    9 ar
     8    9   10 1
     9   11    9 ar
    10   12   11 1
    11   13   11 ar
    12   14   13 ar
    13   15   14 1
    14   16    8 ar
    15   17   16 1
    16   18    3 1
    17   19   18 1
    18   20   18 1
    19   21    4 1
    20   14   16 ar
    21   18   21 1
@<TRIPOS>SUBSTRUCTURE
     1 RES1 1

@<TRIPOS>CRYSIN
   6.9044    7.7579    8.3051  71.2360  87.9320  84.3270   2 1

