# MOL2 file generated by ConQuest
# Please check atom types

@<TRIPOS>MOLECULE
NPHYAC01
    25    25     1
SMALL
NO_CHARGES
****
Generated from CSD

@<TRIPOS>ATOM
      1 C1        14.2555    2.6727   13.3620 C.ar      1 RES1    0.0000
      2 C2        15.2405    2.2126   12.4914 C.ar      1 RES1    0.0000
      3 C3        16.5669    2.3812   12.8377 C.ar      1 RES1    0.0000
      4 N1        17.5906    1.8598   11.9293 N.pl3     1 RES1    0.0000
      5 O1        17.2274    1.2120   10.9423 O.2       1 RES1    0.0000
      6 O2        18.7725    2.0621   12.1778 O.2       1 RES1    0.0000
      7 C4        16.9738    2.9925   14.0151 C.ar      1 RES1    0.0000
      8 C5        15.9837    3.4492   14.8639 C.ar      1 RES1    0.0000
      9 C6        14.6401    3.3028   14.5531 C.ar      1 RES1    0.0000
     10 N2        12.9296    2.5110   13.0131 N.3       1 RES1    0.0000
     11 N3        11.9566    2.7987   13.9475 N.2       1 RES1    0.0000
     12 C7        10.7451    2.5555   13.6138 C.2       1 RES1    0.0000
     13 C8         9.6939    2.8623   14.6352 C.3       1 RES1    0.0000
     14 C9        10.3124    1.9889   12.2966 C.3       1 RES1    0.0000
     15 H1        15.0047    1.7905   11.6728 H         1 RES1    0.0000
     16 H2        17.8950    3.0925   14.2290 H         1 RES1    0.0000
     17 H3        16.2282    3.8728   15.6771 H         1 RES1    0.0000
     18 H4        13.9778    3.6311   15.1509 H         1 RES1    0.0000
     19 H5        12.7533    1.9759   12.3894 H         1 RES1    0.0000
     20 H6        10.1081    3.2917   15.4119 H         1 RES1    0.0000
     21 H7         9.2580    2.0307   14.9156 H         1 RES1    0.0000
     22 H8         9.0268    3.4656   14.2461 H         1 RES1    0.0000
     23 H9        10.5909    2.5915   11.5744 H         1 RES1    0.0000
     24 H10        9.3381    1.8943   12.2867 H         1 RES1    0.0000
     25 H11       10.7265    1.1109   12.1669 H         1 RES1    0.0000
@<TRIPOS>BOND
     1    1    2 ar
     2    2    3 ar
     3    3    4 1
     4    4    5 2
     5    6    4 2
     6    7    3 ar
     7    8    7 ar
     8    9    1 ar
     9   10    1 1
    10   11   10 1
    11   12   11 2
    12   13   12 1
    13   14   12 1
    14   15    2 1
    15   16    7 1
    16   17    8 1
    17   18    9 1
    18   19   10 1
    19   20   13 1
    20   21   13 1
    21   22   13 1
    22   23   14 1
    23   24   14 1
    24   25   14 1
    25    8    9 ar
@<TRIPOS>SUBSTRUCTURE
     1 RES1 1

@<TRIPOS>CRYSIN
  22.7837    3.8307   21.7292  90.0000 100.1290  90.0000  15 1

