# MOL2 file generated by ConQuest
# Please check atom types

@<TRIPOS>MOLECULE
NPMALA
    24    24     1
SMALL
NO_CHARGES
****
Generated from CSD

@<TRIPOS>ATOM
      1 N1        -3.1442   -2.3077    0.9686 N.3       1 RES1    0.0000
      2 N2         0.7748    1.5517    2.0607 N.pl3     1 RES1    0.0000
      3 N3        -3.4815   -0.4943    3.1895 N.pl3     1 RES1    0.0000
      4 O1         1.7906    1.5064    1.3746 O.2       1 RES1    0.0000
      5 O2         0.5886    2.3731    2.9526 O.2       1 RES1    0.0000
      6 O3        -3.5066    0.3126    4.0981 O.2       1 RES1    0.0000
      7 O4        -4.4238   -1.2286    2.9793 O.2       1 RES1    0.0000
      8 O5        -5.3728   -3.5331    0.3581 O.2       1 RES1    0.0000
      9 O6        -4.4873   -4.6049   -1.3668 O.3       1 RES1    0.0000
     10 C1        -2.2073   -1.3796    1.2322 C.ar      1 RES1    0.0000
     11 C2        -1.0190   -1.3102    0.4904 C.ar      1 RES1    0.0000
     12 C3        -0.0505   -0.3562    0.7473 C.ar      1 RES1    0.0000
     13 C4        -0.2507    0.5662    1.7593 C.ar      1 RES1    0.0000
     14 C5        -1.3831    0.5678    2.5512 C.ar      1 RES1    0.0000
     15 C6        -2.3371   -0.4233    2.3065 C.ar      1 RES1    0.0000
     16 C7        -3.0122   -3.3150   -0.0756 C.3       1 RES1    0.0000
     17 C8        -2.0789   -4.5128    0.3670 C.3       1 RES1    0.0000
     18 C9        -4.4476   -3.8247   -0.3225 C.2       1 RES1    0.0000
     19 C10       -5.8136   -5.1833   -1.7026 C.3       1 RES1    0.0000
     20 H1        -0.8565   -1.9870   -0.2636 H         1 RES1    0.0000
     21 H2         0.8119   -0.3417    0.1946 H         1 RES1    0.0000
     22 H3        -1.5131    1.2682    3.2940 H         1 RES1    0.0000
     23 H4        -4.0002   -2.3118    1.5347 H         1 RES1    0.0000
     24 H5        -2.6373   -2.8820   -0.9264 H         1 RES1    0.0000
@<TRIPOS>BOND
     1    1   10 1
     2    2    4 2
     3    3    6 2
     4    5    2 2
     5    7    3 2
     6    8   18 2
     7    9   18 1
     8   10   11 ar
     9   11   12 ar
    10   12   13 ar
    11   13    2 1
    12   14   13 ar
    13   15    3 1
    14   16    1 1
    15   17   16 1
    16   18   16 1
    17   19    9 1
    18   20   11 1
    19   21   12 1
    20   22   14 1
    21   23    1 1
    22   24   16 1
    23   10   15 ar
    24   14   15 ar
@<TRIPOS>SUBSTRUCTURE
     1 RES1 1

@<TRIPOS>CRYSIN
   6.8290    8.1160   11.1210  90.0000  90.0000  95.5900   4 3

