# MOL2 file generated by ConQuest
# Please check atom types

@<TRIPOS>MOLECULE
NPNFPR
    29    30     1
SMALL
NO_CHARGES
****
Generated from CSD

@<TRIPOS>ATOM
      1 C1        -3.8890   -0.8791    3.3150 C.ar      1 RES1    0.0000
      2 C2        -2.5907   -0.8199    2.8029 C.ar      1 RES1    0.0000
      3 C3        -2.3434   -0.2525    1.5594 C.ar      1 RES1    0.0000
      4 C4        -3.4190    0.2476    0.8509 C.ar      1 RES1    0.0000
      5 C5        -4.7115    0.2205    1.3282 C.ar      1 RES1    0.0000
      6 C6        -4.9439   -0.3792    2.5555 C.ar      1 RES1    0.0000
      7 C7        -4.2002   -1.5101    4.6271 C.2       1 RES1    0.0000
      8 O1        -5.3600   -1.8057    4.8838 O.2       1 RES1    0.0000
      9 C8        -3.1144   -1.7636    5.6084 C.2       1 RES1    0.0000
     10 C9        -3.4012   -2.3764    6.7470 C.2       1 RES1    0.0000
     11 C10       -2.4709   -2.6677    7.8104 C.2       1 RES1    0.0000
     12 C11       -2.6445   -3.2999    9.0122 C.2       1 RES1    0.0000
     13 C12       -1.3785   -3.3029    9.6561 C.2       1 RES1    0.0000
     14 C13       -0.5513   -2.6832    8.7823 C.2       1 RES1    0.0000
     15 O2        -1.1569   -2.2882    7.6571 O.3       1 RES1    0.0000
     16 N1         0.8389   -2.3895    8.9033 N.pl3     1 RES1    0.0000
     17 O3         1.3790   -1.7318    8.0416 O.2       1 RES1    0.0000
     18 O4         1.3831   -2.8246    9.9088 O.2       1 RES1    0.0000
     19 N2        -3.1671    0.8619   -0.4597 N.pl3     1 RES1    0.0000
     20 O5        -4.1101    1.2966   -1.0929 O.2       1 RES1    0.0000
     21 O6        -2.0329    0.9198   -0.8577 O.2       1 RES1    0.0000
     22 H1        -1.8171   -1.1986    3.3339 H         1 RES1    0.0000
     23 H2        -1.4202   -0.2123    1.1830 H         1 RES1    0.0000
     24 H3        -5.4919    0.6290    0.7797 H         1 RES1    0.0000
     25 H4        -5.8754   -0.4479    2.9440 H         1 RES1    0.0000
     26 H5        -2.1811   -1.4726    5.4310 H         1 RES1    0.0000
     27 H6        -4.3209   -2.6645    6.8962 H         1 RES1    0.0000
     28 H7        -3.5180   -3.6699    9.3832 H         1 RES1    0.0000
     29 H8        -1.1145   -3.7045   10.5124 H         1 RES1    0.0000
@<TRIPOS>BOND
     1    1    2 ar
     2    2    3 ar
     3    3    4 ar
     4    4    5 ar
     5    5    6 ar
     6    6    1 ar
     7    7    1 1
     8    8    7 2
     9    9    7 1
    10   10    9 2
    11   11   10 1
    12   12   11 2
    13   13   12 1
    14   14   13 2
    15   15   11 1
    16   16   14 1
    17   17   16 2
    18   18   16 2
    19   19    4 1
    20   20   19 2
    21   21   19 2
    22   22    2 1
    23   23    3 1
    24   24    5 1
    25   25    6 1
    26   26    9 1
    27   27   10 1
    28   28   12 1
    29   29   13 1
    30   14   15 1
@<TRIPOS>SUBSTRUCTURE
     1 RES1 1

@<TRIPOS>CRYSIN
  12.1600    3.8840   13.7160  81.7100  81.0600  81.9200   2 1

