# MOL2 file generated by ConQuest
# Please check atom types

@<TRIPOS>MOLECULE
NPOXBZ11
    52    53     1
SMALL
NO_CHARGES
****
Generated from CSD

@<TRIPOS>ATOM
      1 O1        -7.0742    7.2746   10.2442 O.2       1 RES1    0.0000
      2 O2        -6.1312    5.8610   11.5706 O.2       1 RES1    0.0000
      3 O3        -1.7937    6.1093    7.0744 O.3       1 RES1    0.0000
      4 O4        -1.1249    8.2373    7.4112 O.2       1 RES1    0.0000
      5 O5         3.3415    5.9159    3.4792 O.3       1 RES1    0.0000
      6 N1        -6.1433    6.5356   10.5514 N.pl3     1 RES1    0.0000
      7 C1        -4.9988    6.4375    9.6335 C.ar      1 RES1    0.0000
      8 C2        -4.0512    5.4709    9.8527 C.ar      1 RES1    0.0000
      9 H1        -4.1302    4.8723   10.5860 H         1 RES1    0.0000
     10 C3        -2.9790    5.3836    8.9858 C.ar      1 RES1    0.0000
     11 H2        -2.3162    4.7145    9.1121 H         1 RES1    0.0000
     12 C4        -2.8763    6.2718    7.9389 C.ar      1 RES1    0.0000
     13 C5        -3.8425    7.2343    7.7148 C.ar      1 RES1    0.0000
     14 H3        -3.7679    7.8317    6.9796 H         1 RES1    0.0000
     15 C6        -4.9194    7.3147    8.5759 C.ar      1 RES1    0.0000
     16 H4        -5.5969    7.9667    8.4404 H         1 RES1    0.0000
     17 C7         0.1415    6.8447    5.9452 C.ar      1 RES1    0.0000
     18 C8         1.0846    7.8251    5.6532 C.ar      1 RES1    0.0000
     19 H5         0.9896    8.6901    6.0336 H         1 RES1    0.0000
     20 C9         2.1549    7.5657    4.8228 C.ar      1 RES1    0.0000
     21 H6         2.7863    8.2486    4.6301 H         1 RES1    0.0000
     22 C10        2.3050    6.2971    4.2692 C.ar      1 RES1    0.0000
     23 C11        1.3564    5.3164    4.5381 C.ar      1 RES1    0.0000
     24 H7         1.4423    4.4554    4.1461 H         1 RES1    0.0000
     25 C12        0.2936    5.5883    5.3704 C.ar      1 RES1    0.0000
     26 H8        -0.3437    4.9079    5.5541 H         1 RES1    0.0000
     27 C13       -0.9571    7.1810    6.8643 C.2       1 RES1    0.0000
     28 C14        4.2372    6.9170    2.9802 C.3       1 RES1    0.0000
     29 H9         4.6455    7.4148    3.7325 H         1 RES1    0.0000
     30 H10        3.7461    7.5598    2.4096 H         1 RES1    0.0000
     31 C15        5.3047    6.2228    2.1792 C.3       1 RES1    0.0000
     32 H11        4.8758    5.6423    1.5018 H         1 RES1    0.0000
     33 H12        5.8368    5.6441    2.7807 H         1 RES1    0.0000
     34 C16        6.2371    7.2063    1.4770 C.3       1 RES1    0.0000
     35 H13        5.7343    7.6784    0.7670 H         1 RES1    0.0000
     36 H14        6.5462    7.8828    2.1310 H         1 RES1    0.0000
     37 C17        7.4495    6.5199    0.8583 C.3       1 RES1    0.0000
     38 H15        8.0065    6.1449    1.5854 H         1 RES1    0.0000
     39 H16        7.1358    5.7645    0.3007 H         1 RES1    0.0000
     40 C18        8.3137    7.4268    0.0037 C.3       1 RES1    0.0000
     41 H17        8.6736    8.1546    0.5705 H         1 RES1    0.0000
     42 H18        7.7498    7.8408   -0.6966 H         1 RES1    0.0000
     43 C19        9.4735    6.7039   -0.6629 C.3       1 RES1    0.0000
     44 H19       10.0320    6.2872    0.0396 H         1 RES1    0.0000
     45 H20        9.1090    5.9752   -1.2261 H         1 RES1    0.0000
     46 C20       10.3575    7.5848   -1.5228 C.3       1 RES1    0.0000
     47 H21       10.8289    8.2340   -0.9416 H         1 RES1    0.0000
     48 H22        9.7890    8.0980   -2.1501 H         1 RES1    0.0000
     49 C21       11.3867    6.7935   -2.3193 C.3       1 RES1    0.0000
     50 H23       11.9335    7.4093   -2.8482 H         1 RES1    0.0000
     51 H24       10.9265    6.1686   -2.9186 H         1 RES1    0.0000
     52 H25       11.9622    6.2918   -1.7042 H         1 RES1    0.0000
@<TRIPOS>BOND
     1    1    6 2
     2    2    6 2
     3    3   12 1
     4    4   27 2
     5    5   22 1
     6    6    7 1
     7    7    8 ar
     8    8    9 1
     9   10    8 ar
    10   11   10 1
    11   12   10 ar
    12   13   12 ar
    13   14   13 1
    14   15    7 ar
    15   16   15 1
    16   17   18 ar
    17   18   19 1
    18   20   18 ar
    19   21   20 1
    20   22   20 ar
    21   23   22 ar
    22   24   23 1
    23   25   17 ar
    24   26   25 1
    25   27    3 1
    26   28    5 1
    27   29   28 1
    28   30   28 1
    29   31   28 1
    30   32   31 1
    31   33   31 1
    32   34   31 1
    33   35   34 1
    34   36   34 1
    35   37   34 1
    36   38   37 1
    37   39   37 1
    38   40   37 1
    39   41   40 1
    40   42   40 1
    41   43   40 1
    42   44   43 1
    43   45   43 1
    44   46   43 1
    45   47   46 1
    46   48   46 1
    47   49   46 1
    48   50   49 1
    49   51   49 1
    50   52   49 1
    51   13   15 ar
    52   17   27 1
    53   23   25 ar
@<TRIPOS>SUBSTRUCTURE
     1 RES1 1

@<TRIPOS>CRYSIN
  14.3448    9.1225   16.3262  90.0000 116.0620  90.0000  14 1

