# MOL2 file generated by ConQuest
# Please check atom types

@<TRIPOS>MOLECULE
NPXMBZ10
    40    41     1
SMALL
NO_CHARGES
****
Generated from CSD

@<TRIPOS>ATOM
      1 C1         2.3369    2.6999    2.0146 C.ar      1 RES1    0.0000
      2 C2         1.9059    5.9634    1.8896 C.ar      1 RES1    0.0000
      3 C3         1.0155    7.0065    1.6578 C.ar      1 RES1    0.0000
      4 C4        -0.3134    6.9296    2.0071 C.ar      1 RES1    0.0000
      5 C5        -0.7635    5.7755    2.6183 C.ar      1 RES1    0.0000
      6 C6         0.0719    4.6984    2.8942 C.ar      1 RES1    0.0000
      7 C7         3.3508    6.0493    1.4789 C.3       1 RES1    0.0000
      8 C8        -1.2381    8.0997    1.7484 C.3       1 RES1    0.0000
      9 C9        -0.4309    3.4675    3.5959 C.3       1 RES1    0.0000
     10 C10        3.1124    1.6139    2.4232 C.ar      1 RES1    0.0000
     11 C11        3.1033    0.4223    1.7258 C.ar      1 RES1    0.0000
     12 C12        2.3618    0.3060    0.5724 C.ar      1 RES1    0.0000
     13 C13        1.6504    1.4009    0.1250 C.ar      1 RES1    0.0000
     14 C14        1.6263    2.5836    0.8343 C.ar      1 RES1    0.0000
     15 C15        2.2730   -0.9662   -0.1897 C.2       1 RES1    0.0000
     16 C16        2.7202   -3.2796   -0.1563 C.3       1 RES1    0.0000
     17 C17        1.3987    4.8344    2.5029 C.ar      1 RES1    0.0000
     18 H1         1.3865    7.8009    1.2504 H         1 RES1    0.0000
     19 H2        -1.6676    5.7075    2.8888 H         1 RES1    0.0000
     20 H3         3.5255    5.4213    0.7545 H         1 RES1    0.0000
     21 H4         3.5551    6.9421    1.1318 H         1 RES1    0.0000
     22 H5         3.8973    5.6718    2.0265 H         1 RES1    0.0000
     23 H6        -1.2031    8.7492    2.4145 H         1 RES1    0.0000
     24 H7        -2.0934    7.8367    1.6816 H         1 RES1    0.0000
     25 H8        -1.0834    8.4629    0.9701 H         1 RES1    0.0000
     26 H9        -0.5413    2.7733    3.0290 H         1 RES1    0.0000
     27 H10        0.2767    3.0774    4.1931 H         1 RES1    0.0000
     28 H11       -1.1794    3.6321    4.0745 H         1 RES1    0.0000
     29 H12        3.6618   -0.2684    2.0804 H         1 RES1    0.0000
     30 H13        1.1292    1.3240   -0.6791 H         1 RES1    0.0000
     31 H14        1.0394    3.2742    0.5605 H         1 RES1    0.0000
     32 H15        1.8763   -3.5426   -0.1186 H         1 RES1    0.0000
     33 H16        3.1496   -3.8289    0.4419 H         1 RES1    0.0000
     34 H17        3.1714   -3.3100   -0.9701 H         1 RES1    0.0000
     35 N1         3.9467    1.6980    3.6207 N.pl3     1 RES1    0.0000
     36 O1         4.5123    2.7393    3.8568 O.2       1 RES1    0.0000
     37 O2         4.0411    0.6978    4.2955 O.2       1 RES1    0.0000
     38 O3         1.7936   -1.0735   -1.2709 O.2       1 RES1    0.0000
     39 O4         2.7991   -1.9842    0.4851 O.3       1 RES1    0.0000
     40 O5         2.3066    3.7985    2.8155 O.3       1 RES1    0.0000
@<TRIPOS>BOND
     1    1   10 ar
     2    2    3 ar
     3    3    4 ar
     4    4    5 ar
     5    5    6 ar
     6    6    9 1
     7    7    2 1
     8    8    4 1
     9    9   26 1
    10   10   11 ar
    11   11   12 ar
    12   12   13 ar
    13   13   14 ar
    14   14    1 ar
    15   15   12 1
    16   16   32 1
    17   17    2 ar
    18   18    3 1
    19   19    5 1
    20   20    7 1
    21   21    7 1
    22   22    7 1
    23   23    8 1
    24   24    8 1
    25   25    8 1
    26   27    9 1
    27   28    9 1
    28   29   11 1
    29   30   13 1
    30   31   14 1
    31   33   16 1
    32   34   16 1
    33   35   10 1
    34   36   35 2
    35   37   35 2
    36   38   15 2
    37   39   15 1
    38   40    1 1
    39    6   17 ar
    40   16   39 1
    41   17   40 1
@<TRIPOS>SUBSTRUCTURE
     1 RES1 1

@<TRIPOS>CRYSIN
   8.3520   17.8920   10.9660  90.0000 100.5900  90.0000  14 1

