# MOL2 file generated by ConQuest
# Please check atom types

@<TRIPOS>MOLECULE
NPXODC
    39    41     1
SMALL
NO_CHARGES
****
Generated from CSD

@<TRIPOS>ATOM
      1 O1         3.4229    0.0209    1.1017 O.3       1 RES1    0.0000
      2 C1         2.0129   -0.0145    1.1670 C.3       1 RES1    0.0000
      3 C2         1.5362   -0.2384    2.5751 C.3       1 RES1    0.0000
      4 C3         2.1023    0.8612    3.4830 C.3       1 RES1    0.0000
      5 C4         4.1976    2.1927    4.0890 C.3       1 RES1    0.0000
      6 C5         5.6882    2.3398    3.8254 C.3       1 RES1    0.0000
      7 C6         5.9816    2.4611    2.3362 C.3       1 RES1    0.0000
      8 C7         5.4188    1.2741    1.5635 C.3       1 RES1    0.0000
      9 C8         3.9316    1.1661    1.8271 C.3       1 RES1    0.0000
     10 C9         3.6068    1.0110    3.3072 C.3       1 RES1    0.0000
     11 C10        1.7819   -1.0545   -0.9845 C.ar      1 RES1    0.0000
     12 C11        1.2050   -2.0977   -1.7032 C.ar      1 RES1    0.0000
     13 C12        1.3687   -2.1589   -3.0820 C.ar      1 RES1    0.0000
     14 C13        2.1036   -1.1592   -3.6970 C.ar      1 RES1    0.0000
     15 C14        2.6539   -0.1101   -3.0076 C.ar      1 RES1    0.0000
     16 C15        2.4857   -0.0440   -1.6288 C.ar      1 RES1    0.0000
     17 O2         1.5832   -1.1162    0.3740 O.3       1 RES1    0.0000
     18 N1         2.3459   -1.2537   -5.1411 N.pl3     1 RES1    0.0000
     19 O3         1.7841   -2.1170   -5.7719 O.2       1 RES1    0.0000
     20 O4         3.1105   -0.4429   -5.6480 O.2       1 RES1    0.0000
     21 H1         1.6147    0.9267    0.8178 H         1 RES1    0.0000
     22 H2         0.4571   -0.2072    2.5998 H         1 RES1    0.0000
     23 H3         1.8768   -1.2032    2.9220 H         1 RES1    0.0000
     24 H4         1.8914    0.6115    4.5125 H         1 RES1    0.0000
     25 H5         1.6259    1.7992    3.2352 H         1 RES1    0.0000
     26 H6         4.0422    2.0284    5.1456 H         1 RES1    0.0000
     27 H7         3.6956    3.1001    3.7871 H         1 RES1    0.0000
     28 H8         6.2007    1.4727    4.2152 H         1 RES1    0.0000
     29 H9         6.0479    3.2262    4.3278 H         1 RES1    0.0000
     30 H10        5.5333    3.3696    1.9623 H         1 RES1    0.0000
     31 H11        7.0504    2.4998    2.1898 H         1 RES1    0.0000
     32 H12        5.9089    0.3678    1.8879 H         1 RES1    0.0000
     33 H13        5.5890    1.4169    0.5069 H         1 RES1    0.0000
     34 H14        3.4666    2.0826    1.4959 H         1 RES1    0.0000
     35 H15        4.0572    0.1154    3.7083 H         1 RES1    0.0000
     36 H16        0.6304   -2.8552   -1.1918 H         1 RES1    0.0000
     37 H17        0.9358   -2.9637   -3.6587 H         1 RES1    0.0000
     38 H18        3.2097    0.6556   -3.5280 H         1 RES1    0.0000
     39 H19        2.8948    0.7817   -1.0656 H         1 RES1    0.0000
@<TRIPOS>BOND
     1    1    2 1
     2    2    3 1
     3    3    4 1
     4    4   10 1
     5    5    6 1
     6    6    7 1
     7    7    8 1
     8    8    9 1
     9    9    1 1
    10   10    5 1
    11   11   12 ar
    12   12   13 ar
    13   13   14 ar
    14   14   15 ar
    15   15   16 ar
    16   16   11 ar
    17   17    2 1
    18   18   14 1
    19   19   18 2
    20   20   18 2
    21   21    2 1
    22   22    3 1
    23   23    3 1
    24   24    4 1
    25   25    4 1
    26   26    5 1
    27   27    5 1
    28   28    6 1
    29   29    6 1
    30   30    7 1
    31   31    7 1
    32   32    8 1
    33   33    8 1
    34   34    9 1
    35   35   10 1
    36   36   12 1
    37   37   13 1
    38   38   15 1
    39   39   16 1
    40    9   10 1
    41   11   17 1
@<TRIPOS>SUBSTRUCTURE
     1 RES1 1

@<TRIPOS>CRYSIN
  11.3600    5.3690   22.8800  90.0000 100.0500  90.0000  14 1

