# MOL2 file generated by ConQuest
# Please check atom types

@<TRIPOS>MOLECULE
NSCYHX
    38    39     1
SMALL
NO_CHARGES
****
Generated from CSD

@<TRIPOS>ATOM
      1 C1         1.5488    1.0527   -0.2736 C.3       1 RES1    0.0000
      2 C2         2.0105    2.0995    0.7462 C.3       1 RES1    0.0000
      3 C3         3.0767    2.9871    0.0679 C.3       1 RES1    0.0000
      4 C4         4.2590    2.1447   -0.3937 C.3       1 RES1    0.0000
      5 C5         3.8082    1.0620   -1.3560 C.3       1 RES1    0.0000
      6 C6         2.7180    0.1736   -0.7215 C.3       1 RES1    0.0000
      7 H1         1.1948    1.4664   -1.1038 H         1 RES1    0.0000
      8 H2         3.1257   -0.4145    0.0888 H         1 RES1    0.0000
      9 H3         2.3413   -0.3070   -1.5930 H         1 RES1    0.0000
     10 H4         2.4542    1.4326    1.5589 H         1 RES1    0.0000
     11 H5         1.2676    2.6718    1.1480 H         1 RES1    0.0000
     12 H6         2.5834    3.5809   -0.9176 H         1 RES1    0.0000
     13 H7         3.3404    3.7689    0.8830 H         1 RES1    0.0000
     14 H8         4.6084    1.6155    0.4769 H         1 RES1    0.0000
     15 H9         4.9022    2.6179   -1.1295 H         1 RES1    0.0000
     16 H10        3.3194    1.4615   -2.2528 H         1 RES1    0.0000
     17 H11        4.6008    0.5807   -1.6914 H         1 RES1    0.0000
     18 N1         0.5198    0.1855    0.3610 N.3       1 RES1    0.0000
     19 O1         0.6344   -0.2061    1.5655 O.2       1 RES1    0.0000
     20 N1A       -0.5198   -0.1855   -0.3610 N.3       1 RES1    0.0000
     21 C1A       -1.5488   -1.0527    0.2736 C.3       1 RES1    0.0000
     22 O1A       -0.6344    0.2061   -1.5655 O.2       1 RES1    0.0000
     23 C2A       -2.0105   -2.0995   -0.7462 C.3       1 RES1    0.0000
     24 C6A       -2.7180   -0.1736    0.7215 C.3       1 RES1    0.0000
     25 H1A       -1.1948   -1.4664    1.1038 H         1 RES1    0.0000
     26 C3A       -3.0767   -2.9871   -0.0679 C.3       1 RES1    0.0000
     27 H4A       -2.4542   -1.4326   -1.5589 H         1 RES1    0.0000
     28 H5A       -1.2676   -2.6718   -1.1480 H         1 RES1    0.0000
     29 C5A       -3.8082   -1.0620    1.3560 C.3       1 RES1    0.0000
     30 H2A       -3.1257    0.4145   -0.0888 H         1 RES1    0.0000
     31 H3A       -2.3413    0.3070    1.5930 H         1 RES1    0.0000
     32 C4A       -4.2590   -2.1447    0.3937 C.3       1 RES1    0.0000
     33 H6A       -2.5834   -3.5809    0.9176 H         1 RES1    0.0000
     34 H7A       -3.3404   -3.7689   -0.8830 H         1 RES1    0.0000
     35 H10A      -3.3194   -1.4615    2.2528 H         1 RES1    0.0000
     36 H11A      -4.6008   -0.5807    1.6914 H         1 RES1    0.0000
     37 H8A       -4.6084   -1.6155   -0.4769 H         1 RES1    0.0000
     38 H9A       -4.9022   -2.6179    1.1295 H         1 RES1    0.0000
@<TRIPOS>BOND
     1    1    2 1
     2    2    3 1
     3    3    4 1
     4    4    5 1
     5    5    6 1
     6    6    1 1
     7    7    1 1
     8    8    6 1
     9    9    6 1
    10   10    2 1
    11   11    2 1
    12   12    3 1
    13   13    3 1
    14   14    4 1
    15   15    4 1
    16   16    5 1
    17   17    5 1
    18   18    1 1
    19   19   18 1
    20   20   18 1
    21   21   20 1
    22   22   20 1
    23   23   21 1
    24   24   21 1
    25   25   21 1
    26   26   23 1
    27   27   23 1
    28   28   23 1
    29   29   24 1
    30   30   24 1
    31   31   24 1
    32   32   26 1
    33   33   26 1
    34   34   26 1
    35   35   29 1
    36   36   29 1
    37   37   32 1
    38   38   32 1
    39   29   32 1
@<TRIPOS>SUBSTRUCTURE
     1 RES1 1

@<TRIPOS>CRYSIN
  10.1330    6.7580    5.5830 121.7000  96.8300  78.1000   2 1

