# MOL2 file generated by ConQuest
# Please check atom types

@<TRIPOS>MOLECULE
NSPIBP
    47    51     1
SMALL
NO_CHARGES
****
Generated from CSD

@<TRIPOS>ATOM
      1 O1         2.2278    1.7404   -4.6313 O.3       1 RES1    0.0000
      2 O2         3.1349   -0.3299   -7.5402 O.2       1 RES1    0.0000
      3 O3         3.9672    1.4680   -6.8802 O.2       1 RES1    0.0000
      4 N1         2.5178    1.4928   -2.3325 N.pl3     1 RES1    0.0000
      5 N2         3.0191    0.7855   -7.0972 N.pl3     1 RES1    0.0000
      6 C1         1.9842    2.3922   -3.3111 C.3       1 RES1    0.0000
      7 C2         2.9618    3.6225   -3.2221 C.3       1 RES1    0.0000
      8 C3         4.2312    2.9212   -2.7969 C.ar      1 RES1    0.0000
      9 C4         3.9135    1.6899   -2.2276 C.ar      1 RES1    0.0000
     10 C5         4.8823    0.8568   -1.7187 C.ar      1 RES1    0.0000
     11 C6         6.2272    1.2887   -1.7934 C.ar      1 RES1    0.0000
     12 C7         6.5438    2.5279   -2.3770 C.ar      1 RES1    0.0000
     13 C8         5.5597    3.3402   -2.8627 C.ar      1 RES1    0.0000
     14 C9         3.0643    4.4189   -4.5245 C.3       1 RES1    0.0000
     15 C10        2.5092    4.5566   -2.0941 C.3       1 RES1    0.0000
     16 C11        1.8544    0.3338   -1.8504 C.ar      1 RES1    0.0000
     17 C12        2.0181   -0.0535   -0.5409 C.ar      1 RES1    0.0000
     18 C13        1.3803   -1.1748   -0.0231 C.ar      1 RES1    0.0000
     19 C14        0.5628   -1.9187   -0.8718 C.ar      1 RES1    0.0000
     20 C15        0.3547   -1.5304   -2.1724 C.ar      1 RES1    0.0000
     21 C16        1.0119   -0.4141   -2.6866 C.ar      1 RES1    0.0000
     22 C17        0.5418    2.7250   -3.1011 C.2       1 RES1    0.0000
     23 C18       -0.3471    2.7102   -4.0975 C.2       1 RES1    0.0000
     24 C19        0.0216    2.2743   -5.4426 C.ar      1 RES1    0.0000
     25 C20        1.3226    1.8058   -5.6383 C.ar      1 RES1    0.0000
     26 C21        1.6735    1.3313   -6.8891 C.ar      1 RES1    0.0000
     27 C22        0.7903    1.3175   -7.9495 C.ar      1 RES1    0.0000
     28 C23       -0.4910    1.7830   -7.7626 C.ar      1 RES1    0.0000
     29 C24       -0.8703    2.2615   -6.5279 C.ar      1 RES1    0.0000
     30 H1         4.7687   -0.0000   -1.3344 H         1 RES1    0.0000
     31 H2         6.9436    0.5943   -1.5123 H         1 RES1    0.0000
     32 H3         7.4730    2.7736   -2.4909 H         1 RES1    0.0000
     33 H4         5.7164    4.2099   -3.2915 H         1 RES1    0.0000
     34 H5         2.0959    4.9627   -4.5903 H         1 RES1    0.0000
     35 H6         3.5106    3.8632   -5.1597 H         1 RES1    0.0000
     36 H7         2.4265    4.0118   -1.3522 H         1 RES1    0.0000
     37 H8         3.2361    5.2005   -1.9927 H         1 RES1    0.0000
     38 H9         1.7162    4.9627   -2.2418 H         1 RES1    0.0000
     39 H10        2.5009    0.4557    0.0890 H         1 RES1    0.0000
     40 H11        1.5389   -1.3967    0.9964 H         1 RES1    0.0000
     41 H12        0.1699   -2.8231   -0.6227 H         1 RES1    0.0000
     42 H13       -0.2955   -2.0307   -2.8645 H         1 RES1    0.0000
     43 H14        0.9403   -0.1387   -3.6652 H         1 RES1    0.0000
     44 H15        0.2689    2.9222   -2.2240 H         1 RES1    0.0000
     45 H16        1.0520    0.7825   -8.7892 H         1 RES1    0.0000
     46 H17       -1.1895    1.8028   -8.5046 H         1 RES1    0.0000
     47 H18       -1.8033    2.4962   -6.4051 H         1 RES1    0.0000
@<TRIPOS>BOND
     1    1    6 1
     2    2    5 2
     3    3    5 2
     4    4    6 1
     5    5   26 1
     6    6    7 1
     7    7    8 1
     8    8    9 ar
     9    9    4 1
    10   10    9 ar
    11   11   10 ar
    12   12   11 ar
    13   13    8 ar
    14   14    7 1
    15   15    7 1
    16   16    4 1
    17   17   16 ar
    18   18   17 ar
    19   19   18 ar
    20   20   19 ar
    21   21   16 ar
    22   22    6 1
    23   23   22 2
    24   24   23 1
    25   25    1 1
    26   26   25 ar
    27   27   26 ar
    28   28   27 ar
    29   29   24 ar
    30   30   10 1
    31   31   11 1
    32   32   12 1
    33   33   13 1
    34   34   14 1
    35   35   14 1
    36   36   15 1
    37   37   15 1
    38   38   15 1
    39   39   17 1
    40   40   18 1
    41   41   19 1
    42   42   20 1
    43   43   21 1
    44   44   22 1
    45   45   27 1
    46   46   28 1
    47   47   29 1
    48   12   13 ar
    49   20   21 ar
    50   24   25 ar
    51   28   29 ar
@<TRIPOS>SUBSTRUCTURE
     1 RES1 1

