# MOL2 file generated by ConQuest
# Please check atom types

@<TRIPOS>MOLECULE
NSTYRO01
    19    20     1
SMALL
NO_CHARGES
****
Generated from CSD

@<TRIPOS>ATOM
      1 O1         1.9492    4.2139    5.3658 O.3       1 RES1    0.0000
      2 O2        -3.4057    5.7722    1.1960 O.2       1 RES1    0.0000
      3 O3        -2.1883    5.3771   -0.5335 O.2       1 RES1    0.0000
      4 N1        -2.3530    5.4666    0.6646 N.pl3     1 RES1    0.0000
      5 C1        -1.1891    5.2285    1.5507 C.ar      1 RES1    0.0000
      6 C2        -1.3506    5.2835    2.8891 C.ar      1 RES1    0.0000
      7 C3        -0.2518    5.0715    3.7218 C.ar      1 RES1    0.0000
      8 C4         0.9889    4.8265    3.1598 C.ar      1 RES1    0.0000
      9 C5         1.1119    4.7411    1.8107 C.ar      1 RES1    0.0000
     10 C6         0.0257    4.9559    0.9659 C.ar      1 RES1    0.0000
     11 C7         2.1785    4.6324    4.0338 C.3       1 RES1    0.0000
     12 C8         2.4479    5.5258    5.1172 C.3       1 RES1    0.0000
     13 H1        -2.2376    5.4239    3.2481 H         1 RES1    0.0000
     14 H2        -0.4439    5.3138    4.7083 H         1 RES1    0.0000
     15 H3         2.0400    4.4465    1.3534 H         1 RES1    0.0000
     16 H4         0.1414    4.6943   -0.1425 H         1 RES1    0.0000
     17 H5         3.0181    4.1299    3.4547 H         1 RES1    0.0000
     18 H6         1.8059    6.3738    5.3351 H         1 RES1    0.0000
     19 H7         3.4496    5.7406    5.3209 H         1 RES1    0.0000
@<TRIPOS>BOND
     1    1   11 1
     2    2    4 2
     3    3    4 2
     4    4    5 1
     5    5    6 ar
     6    6    7 ar
     7    7    8 ar
     8    8    9 ar
     9    9   10 ar
    10   10    5 ar
    11   11    8 1
    12   12    1 1
    13   13    6 1
    14   14    7 1
    15   15    9 1
    16   16   10 1
    17   17   11 1
    18   18   12 1
    19   19   12 1
    20   11   12 1
@<TRIPOS>SUBSTRUCTURE
     1 RES1 1

@<TRIPOS>CRYSIN
   7.8140   14.1940    7.1230  90.0000  90.0000 104.1000  14 3

