# MOL2 file generated by ConQuest
# Please check atom types

@<TRIPOS>MOLECULE
NSTYRO
    19    20     1
SMALL
NO_CHARGES
****
Generated from CSD

@<TRIPOS>ATOM
      1 C1         3.3682   -2.0179    1.6623 C.ar      1 RES1    0.0000
      2 C2         3.5394   -0.6529    1.5948 C.ar      1 RES1    0.0000
      3 C3         2.4373    0.1582    1.7945 C.ar      1 RES1    0.0000
      4 C4         1.1912   -0.3970    2.0562 C.ar      1 RES1    0.0000
      5 C5         1.0616   -1.7769    2.1416 C.ar      1 RES1    0.0000
      6 C6         2.1507   -2.5980    1.9405 C.ar      1 RES1    0.0000
      7 C7        -0.0100    0.4604    2.2394 C.3       1 RES1    0.0000
      8 C8        -0.2960    1.5674    1.3497 C.3       1 RES1    0.0000
      9 H1         4.4387   -0.2630    1.4667 H         1 RES1    0.0000
     10 H2         2.5662    1.1283    1.7394 H         1 RES1    0.0000
     11 H3         0.1653   -2.2032    2.2545 H         1 RES1    0.0000
     12 H4         2.0458   -3.5974    2.0493 H         1 RES1    0.0000
     13 H5        -0.7611    0.0114    2.7186 H         1 RES1    0.0000
     14 H6         0.3050    1.7848    0.6101 H         1 RES1    0.0000
     15 H7        -1.2449    1.8133    1.2409 H         1 RES1    0.0000
     16 N1         4.5277   -2.8953    1.4241 N.pl3     1 RES1    0.0000
     17 O1         5.5929   -2.3721    1.1321 O.2       1 RES1    0.0000
     18 O2         4.3647   -4.1070    1.5149 O.2       1 RES1    0.0000
     19 O3         0.2276    1.8111    2.6580 O.3       1 RES1    0.0000
@<TRIPOS>BOND
     1    1    2 ar
     2    2    3 ar
     3    3    4 ar
     4    4    5 ar
     5    5    6 ar
     6    6    1 ar
     7    7    4 1
     8    8    7 1
     9    9    2 1
    10   10    3 1
    11   11    5 1
    12   12    6 1
    13   13    7 1
    14   14    8 1
    15   15    8 1
    16   16    1 1
    17   17   16 2
    18   18   16 2
    19   19    7 1
    20    8   19 1
@<TRIPOS>SUBSTRUCTURE
     1 RES1 1

@<TRIPOS>CRYSIN
   7.8244    7.1277   14.2059  90.0000 104.1930  90.0000  14 1

