# MOL2 file generated by ConQuest
# Please check atom types

@<TRIPOS>MOLECULE
NTBYPY
    28    29     1
SMALL
NO_CHARGES
****
Generated from CSD

@<TRIPOS>ATOM
      1 C1        -3.1439   -4.4466    4.4014 C.ar      1 RES1    0.0000
      2 C2        -6.9632   -7.4758    2.6553 C.ar      1 RES1    0.0000
      3 C3        -6.6553   -6.3356    1.9478 C.ar      1 RES1    0.0000
      4 C4        -5.4458   -5.7104    2.2079 C.ar      1 RES1    0.0000
      5 C5        -4.1445   -3.5172    4.6092 C.ar      1 RES1    0.0000
      6 C6        -3.9659   -2.5271    5.5660 C.ar      1 RES1    0.0000
      7 C7        -1.9123   -3.3081    6.1063 C.ar      1 RES1    0.0000
      8 C8        -1.9955   -4.3225    5.1788 C.ar      1 RES1    0.0000
      9 C9        -3.2091   -5.5176    3.3374 C.3       1 RES1    0.0000
     10 C10       -4.5475   -6.1980    3.1618 C.ar      1 RES1    0.0000
     11 C11       -4.9449   -7.3455    3.8533 C.ar      1 RES1    0.0000
     12 C12       -6.1299   -8.0124    3.6110 C.ar      1 RES1    0.0000
     13 H1        -4.9565   -3.5642    4.1046 H         1 RES1    0.0000
     14 H2        -4.6156   -1.8735    5.6926 H         1 RES1    0.0000
     15 H3        -1.1175   -3.2439    6.6446 H         1 RES1    0.0000
     16 H4        -1.3137   -4.9466    5.1228 H         1 RES1    0.0000
     17 H5        -2.5383   -6.2076    3.5312 H         1 RES1    0.0000
     18 H6        -3.0274   -5.1001    2.5240 H         1 RES1    0.0000
     19 H7        -6.3304   -8.7070    4.0090 H         1 RES1    0.0000
     20 H8        -7.2320   -5.9781    1.3306 H         1 RES1    0.0000
     21 H9        -5.2513   -4.9173    1.7399 H         1 RES1    0.0000
     22 N1        -2.8728   -2.4078    6.3179 N.ar      1 RES1    0.0000
     23 N2        -4.0681   -7.9512    4.8729 N.pl3     1 RES1    0.0000
     24 N3        -8.2223   -8.1765    2.3526 N.pl3     1 RES1    0.0000
     25 O1        -4.0197   -9.1675    4.9237 O.2       1 RES1    0.0000
     26 O2        -3.4632   -7.2072    5.6282 O.2       1 RES1    0.0000
     27 O3        -8.8617   -7.7964    1.3820 O.2       1 RES1    0.0000
     28 O4        -8.5532   -9.0925    3.0655 O.2       1 RES1    0.0000
@<TRIPOS>BOND
     1    1    5 ar
     2    2    3 ar
     3    3    4 ar
     4    4   10 ar
     5    5    6 ar
     6    6   14 1
     7    7    8 ar
     8    8    1 ar
     9    9    1 1
    10   10    9 1
    11   11   10 ar
    12   12    2 ar
    13   13    5 1
    14   15    7 1
    15   16    8 1
    16   17    9 1
    17   18    9 1
    18   19   12 1
    19   20    3 1
    20   21    4 1
    21   22    6 ar
    22   23   11 1
    23   24    2 1
    24   25   23 2
    25   26   23 2
    26   27   24 2
    27   28   24 2
    28    7   22 ar
    29   11   12 ar
@<TRIPOS>SUBSTRUCTURE
     1 RES1 1

@<TRIPOS>CRYSIN
   7.2140   13.3440   12.5530  90.0000 102.5600  90.0000  14 1

