# MOL2 file generated by ConQuest
# Please check atom types

@<TRIPOS>MOLECULE
NTBZAM11
    18    18     1
SMALL
NO_CHARGES
****
Generated from CSD

@<TRIPOS>ATOM
      1 C1         0.7139    5.8502    5.1249 C.ar      1 RES1    0.0000
      2 C2         1.0515    5.0472    6.2161 C.ar      1 RES1    0.0000
      3 H1         1.2740    5.4499    7.0467 H         1 RES1    0.0000
      4 C3         1.0646    3.6598    6.0955 C.ar      1 RES1    0.0000
      5 H2         1.3026    3.1058    6.8300 H         1 RES1    0.0000
      6 C4         0.7192    3.1126    4.8687 C.ar      1 RES1    0.0000
      7 C5         0.3982    3.8797    3.7567 C.ar      1 RES1    0.0000
      8 H3         0.1781    3.4704    2.9283 H         1 RES1    0.0000
      9 C6         0.4088    5.2637    3.8891 C.ar      1 RES1    0.0000
     10 H4         0.2088    5.8125    3.1400 H         1 RES1    0.0000
     11 C7         0.6482    7.3401    5.3588 C.2       1 RES1    0.0000
     12 N1         0.6929    8.1433    4.2886 N.am      1 RES1    0.0000
     13 H5         0.6805    8.9916    4.4221 H         1 RES1    0.0000
     14 H6         0.9606    7.8613    3.4724 H         1 RES1    0.0000
     15 N2         0.6877    1.6389    4.7538 N.pl3     1 RES1    0.0000
     16 O1         0.5328    7.7805    6.5107 O.2       1 RES1    0.0000
     17 O2         0.9803    0.9674    5.7336 O.2       1 RES1    0.0000
     18 O3         0.3621    1.1428    3.6791 O.2       1 RES1    0.0000
@<TRIPOS>BOND
     1    1    2 ar
     2    2    3 1
     3    4    2 ar
     4    5    4 1
     5    6    4 ar
     6    7    6 ar
     7    8    7 1
     8    9    1 ar
     9   10    9 1
    10   11    1 1
    11   12   11 1
    12   13   12 1
    13   14   12 1
    14   15    6 1
    15   16   11 2
    16   17   15 2
    17   18   15 2
    18    7    9 ar
@<TRIPOS>SUBSTRUCTURE
     1 RES1 1

@<TRIPOS>CRYSIN
   7.0993   10.1830   10.1298  90.0000 102.4170  90.0000  14 1

