# MOL2 file generated by ConQuest
# Please check atom types

@<TRIPOS>MOLECULE
NTMCPO
    25    25     1
SMALL
NO_CHARGES
****
Generated from CSD

@<TRIPOS>ATOM
      1 C1        -2.4655    7.5649    2.6863 C.2       1 RES1    0.0000
      2 C2        -1.7397    6.4230    1.9731 C.3       1 RES1    0.0000
      3 C3        -2.8027    5.3257    1.7629 C.3       1 RES1    0.0000
      4 C4        -2.5129    4.4201    0.5794 C.3       1 RES1    0.0000
      5 C5        -4.0779    6.1765    1.6121 C.3       1 RES1    0.0000
      6 C6        -3.9710    7.2961    2.6618 C.3       1 RES1    0.0000
      7 C7        -4.7686    8.5629    2.3041 C.3       1 RES1    0.0000
      8 C8        -4.3539    6.8134    4.0697 C.3       1 RES1    0.0000
      9 N1        -0.5764    5.9882    2.7901 N.pl3     1 RES1    0.0000
     10 O1        -1.8957    8.5013    3.1777 O.2       1 RES1    0.0000
     11 O2         0.5184    6.0995    2.3178 O.2       1 RES1    0.0000
     12 O3        -0.7903    5.5329    3.9032 O.2       1 RES1    0.0000
     13 H1        -1.3911    6.7620    0.9903 H         1 RES1    0.0000
     14 H2        -2.8558    4.7231    2.6563 H         1 RES1    0.0000
     15 H3        -1.5316    3.9476    0.7023 H         1 RES1    0.0000
     16 H4        -3.2640    3.6772    0.4737 H         1 RES1    0.0000
     17 H5        -2.4663    5.0313   -0.3378 H         1 RES1    0.0000
     18 H6        -4.1351    6.5703    0.6122 H         1 RES1    0.0000
     19 H7        -4.9400    5.5654    1.8093 H         1 RES1    0.0000
     20 H8        -5.7997    8.3147    2.2304 H         1 RES1    0.0000
     21 H9        -4.6118    9.3025    3.0904 H         1 RES1    0.0000
     22 H10       -4.3996    8.9652    1.3670 H         1 RES1    0.0000
     23 H11       -3.6575    6.0225    4.3332 H         1 RES1    0.0000
     24 H12       -4.2534    7.6334    4.7550 H         1 RES1    0.0000
     25 H13       -5.3491    6.4453    4.0356 H         1 RES1    0.0000
@<TRIPOS>BOND
     1    1    2 1
     2    2    3 1
     3    3    4 1
     4    4   15 1
     5    5    3 1
     6    6    1 1
     7    7    6 1
     8    8    6 1
     9    9    2 1
    10   10    1 2
    11   11    9 2
    12   12    9 2
    13   13    2 1
    14   14    3 1
    15   16    4 1
    16   17    4 1
    17   18    5 1
    18   19    5 1
    19   20    7 1
    20   21    7 1
    21   22    7 1
    22   23    8 1
    23   24    8 1
    24   25    8 1
    25    5    6 1
@<TRIPOS>SUBSTRUCTURE
     1 RES1 1

@<TRIPOS>CRYSIN
   8.1640   17.1190    6.8250  90.0000  90.0000  90.0000  19 1

