# MOL2 file generated by ConQuest
# Please check atom types

@<TRIPOS>MOLECULE
NTPYRO12
    14    14     1
SMALL
NO_CHARGES
****
Generated from CSD

@<TRIPOS>ATOM
      1 C1         2.0547    1.4535   -3.7853 C.ar      1 RES1    0.0000
      2 C2         3.8306    1.4535   -2.2134 C.ar      1 RES1    0.0000
      3 C3         4.7642    1.4535   -3.2251 C.ar      1 RES1    0.0000
      4 C4         4.3081    1.4535   -4.5364 C.ar      1 RES1    0.0000
      5 C5         2.9520    1.4535   -4.8298 C.ar      1 RES1    0.0000
      6 H1         4.0681    1.4535   -1.1540 H         1 RES1    0.0000
      7 H2         5.8241    1.4535   -2.9864 H         1 RES1    0.0000
      8 H3         2.5846    1.4535   -5.8508 H         1 RES1    0.0000
      9 H4         0.9711    1.4535   -3.9104 H         1 RES1    0.0000
     10 N1         2.4884    1.4535   -2.4872 N.pl3     1 RES1    0.0000
     11 N2         5.2792    1.4535   -5.6247 N.pl3     1 RES1    0.0000
     12 O1         1.6372    1.4535   -1.5163 O.2       1 RES1    0.0000
     13 O2         4.8480    1.4535   -6.7756 O.2       1 RES1    0.0000
     14 O3         6.4665    1.4535   -5.3281 O.2       1 RES1    0.0000
@<TRIPOS>BOND
     1    1    5 ar
     2    2    3 ar
     3    3    4 ar
     4    4    5 ar
     5    5    8 1
     6    6    2 1
     7    7    3 1
     8    9    1 1
     9   10    1 ar
    10   11    4 1
    11   12   10 1
    12   13   11 2
    13   14   11 2
    14    2   10 ar
@<TRIPOS>SUBSTRUCTURE
     1 RES1 1

@<TRIPOS>CRYSIN
  12.4980    5.8140    7.8240  90.0000  90.0000  90.0000  62 1

