# MOL2 file generated by ConQuest
# Please check atom types

@<TRIPOS>MOLECULE
NTPYRO
    10    10     1
SMALL
NO_CHARGES
****
Generated from CSD

@<TRIPOS>ATOM
      1 O1         1.7154    1.5100   -1.5535 O.2       1 RES1    0.0000
      2 O2         4.8754    1.5100   -6.8388 O.2       1 RES1    0.0000
      3 O3         6.4542    1.5100   -5.4146 O.2       1 RES1    0.0000
      4 N1         2.5386    1.5100   -2.5075 N.pl3     1 RES1    0.0000
      5 N2         5.3090    1.5100   -5.7350 N.pl3     1 RES1    0.0000
      6 C1         3.9031    1.5100   -2.2751 C.ar      1 RES1    0.0000
      7 C2         4.7902    1.5100   -3.2703 C.ar      1 RES1    0.0000
      8 C3         4.3429    1.5100   -4.6240 C.ar      1 RES1    0.0000
      9 C4         2.9420    1.5100   -4.8635 C.ar      1 RES1    0.0000
     10 C5         2.1038    1.5100   -3.8191 C.ar      1 RES1    0.0000
@<TRIPOS>BOND
     1    1    4 1
     2    2    5 2
     3    3    5 2
     4    4    6 ar
     5    5    8 1
     6    6    7 ar
     7    7    8 ar
     8    8    9 ar
     9    9   10 ar
    10   10    4 ar
@<TRIPOS>SUBSTRUCTURE
     1 RES1 1

@<TRIPOS>CRYSIN
  12.5300    6.0400    7.9300  90.0000  90.0000  90.0000  62 1

