# MOL2 file generated by ConQuest
# Please check atom types

@<TRIPOS>MOLECULE
NTPYRO11
    14    14     1
SMALL
NO_CHARGES
****
Generated from CSD

@<TRIPOS>ATOM
      1 C1         2.1025    1.5025   -3.8065 C.ar      1 RES1    0.0000
      2 C2         3.8793    1.5025   -2.2615 C.ar      1 RES1    0.0000
      3 C3         4.7902    1.5025   -3.2741 C.ar      1 RES1    0.0000
      4 C4         4.3316    1.5025   -4.5751 C.ar      1 RES1    0.0000
      5 C5         2.9746    1.5025   -4.8405 C.ar      1 RES1    0.0000
      6 H1         1.1503    1.5025   -3.9061 H         1 RES1    0.0000
      7 H2         4.0998    1.5025   -1.3965 H         1 RES1    0.0000
      8 H3         5.7187    1.5025   -3.0632 H         1 RES1    0.0000
      9 H4         2.7190    1.5025   -5.7197 H         1 RES1    0.0000
     10 N1         2.5436    1.5025   -2.5158 N.pl3     1 RES1    0.0000
     11 N2         5.2789    1.5025   -5.6778 N.pl3     1 RES1    0.0000
     12 O1         1.7041    1.5025   -1.5261 O.2       1 RES1    0.0000
     13 O2         4.8516    1.5025   -6.8255 O.2       1 RES1    0.0000
     14 O3         6.4730    1.5025   -5.4061 O.2       1 RES1    0.0000
@<TRIPOS>BOND
     1    1    5 ar
     2    2    3 ar
     3    3    4 ar
     4    4    5 ar
     5    5    9 1
     6    6    1 1
     7    7    2 1
     8    8    3 1
     9   10    1 ar
    10   11    4 1
    11   12   10 1
    12   13   11 2
    13   14   11 2
    14    2   10 ar
@<TRIPOS>SUBSTRUCTURE
     1 RES1 1

@<TRIPOS>CRYSIN
  12.5300    6.0100    7.8990  90.0000  90.0000  90.0000  62 1

