# MOL2 file generated by ConQuest
# Please check atom types

@<TRIPOS>MOLECULE
NTRANT01
    26    28     1
SMALL
NO_CHARGES
****
Generated from CSD

@<TRIPOS>ATOM
      1 N1         2.3609    6.3416    0.7306 N.pl3     1 RES1    0.0000
      2 O1         2.5755    6.8503   -0.3535 O.2       1 RES1    0.0000
      3 O2         2.0146    6.9805    1.7110 O.2       1 RES1    0.0000
      4 C1         2.5296    4.8855    0.8719 C.ar      1 RES1    0.0000
      5 C2         3.6018    4.4338    1.6443 C.ar      1 RES1    0.0000
      6 C3         4.5506    5.2873    2.2866 C.ar      1 RES1    0.0000
      7 H1         4.4594    6.2298    2.2174 H         1 RES1    0.0000
      8 C4         5.5834    4.7576    2.9969 C.ar      1 RES1    0.0000
      9 H2         6.2160    5.3375    3.4050 H         1 RES1    0.0000
     10 C5         5.7309    3.3527    3.1375 C.ar      1 RES1    0.0000
     11 H3         6.4502    3.0005    3.6480 H         1 RES1    0.0000
     12 C6         4.8445    2.5122    2.5427 C.ar      1 RES1    0.0000
     13 H4         4.9484    1.5734    2.6470 H         1 RES1    0.0000
     14 C7         3.7593    3.0157    1.7635 C.ar      1 RES1    0.0000
     15 C8         2.8543    2.1614    1.1282 C.ar      1 RES1    0.0000
     16 H5         2.9726    1.2227    1.2107 H         1 RES1    0.0000
     17 C9         1.7826    2.6421    0.3777 C.ar      1 RES1    0.0000
     18 C10        0.8447    1.7650   -0.2459 C.ar      1 RES1    0.0000
     19 H6         0.9527    0.8246   -0.1584 H         1 RES1    0.0000
     20 C11       -0.1996    2.2535   -0.9627 C.ar      1 RES1    0.0000
     21 H7        -0.8122    1.6546   -1.3734 H         1 RES1    0.0000
     22 C12       -0.3805    3.6585   -1.1018 C.ar      1 RES1    0.0000
     23 H8        -1.1184    3.9889   -1.6005 H         1 RES1    0.0000
     24 C13        0.4895    4.5336   -0.5296 C.ar      1 RES1    0.0000
     25 H9         0.3572    5.4688   -0.6357 H         1 RES1    0.0000
     26 C14        1.6018    4.0565    0.2300 C.ar      1 RES1    0.0000
@<TRIPOS>BOND
     1    1    2 2
     2    3    1 2
     3    4    1 1
     4    5    4 ar
     5    6    5 ar
     6    7    6 1
     7    8    6 ar
     8    9    8 1
     9   10    8 ar
    10   11   10 1
    11   12   10 ar
    12   13   12 1
    13   14    5 ar
    14   15   14 ar
    15   16   15 1
    16   17   15 ar
    17   18   17 ar
    18   19   18 1
    19   20   18 ar
    20   21   20 1
    21   22   20 ar
    22   23   22 1
    23   24   22 ar
    24   25   24 1
    25   26    4 ar
    26   12   14 ar
    27   17   26 ar
    28   24   26 ar
@<TRIPOS>SUBSTRUCTURE
     1 RES1 1

@<TRIPOS>CRYSIN
  10.5117   13.5401    7.4285  90.0000 103.1970  90.0000  14 1

