# MOL2 file generated by ConQuest
# Please check atom types

@<TRIPOS>MOLECULE
NTROMA06
     4     3     1
SMALL
NO_CHARGES
****
Generated from CSD

@<TRIPOS>ATOM
      1 C1         0.5793    6.3057    3.1434 C.3       1 RES1    0.0000
      2 N1         1.7978    5.5025    3.1682 N.pl3     1 RES1    0.0000
      3 O1         2.5719    5.5984    4.0781 O.2       1 RES1    0.0000
      4 O2         1.9377    4.7233    2.2334 O.2       1 RES1    0.0000
@<TRIPOS>BOND
     1    1    2 1
     2    2    3 2
     3    4    2 2
@<TRIPOS>SUBSTRUCTURE
     1 RES1 1

@<TRIPOS>CRYSIN
   4.9940    5.9940    8.2720  90.0000  90.0000  90.0000  19 1

