# MOL2 file generated by ConQuest
# Please check atom types

@<TRIPOS>MOLECULE
NTROMA03
     4     3     1
SMALL
NO_CHARGES
****
Generated from CSD

@<TRIPOS>ATOM
      1 C1         0.6542    6.6170    3.2965 C.3       1 RES1    0.0000
      2 N1         1.8951    5.6879    3.3052 N.pl3     1 RES1    0.0000
      3 O1         2.6687    5.8825    4.2161 O.2       1 RES1    0.0000
      4 O2         1.9937    4.9973    2.3856 O.2       1 RES1    0.0000
@<TRIPOS>BOND
     1    1    2 1
     2    2    3 2
     3    4    2 2
@<TRIPOS>SUBSTRUCTURE
     1 RES1 1

@<TRIPOS>CRYSIN
   5.1920    6.2780    8.6750  90.0000  90.0000  90.0000  19 1

