# MOL2 file generated by ConQuest
# Please check atom types

@<TRIPOS>MOLECULE
NTRYQV
    67    72     1
SMALL
NO_CHARGES
****
Generated from CSD

@<TRIPOS>ATOM
      1 N1         4.8012    3.3811    3.6728 N.am      1 RES1    0.0000
      2 C1         5.0360    3.6190    5.0946 C.3       1 RES1    0.0000
      3 C2         4.9708    5.1591    5.2723 C.3       1 RES1    0.0000
      4 C3         4.3213    5.6018    3.9888 C.ar      1 RES1    0.0000
      5 C4         3.9686    6.8750    3.5692 C.ar      1 RES1    0.0000
      6 C5         3.5332    7.0229    2.2610 C.ar      1 RES1    0.0000
      7 C6         3.4804    5.9462    1.3724 C.ar      1 RES1    0.0000
      8 C7         3.8704    4.6999    1.7722 C.ar      1 RES1    0.0000
      9 C8         4.3089    4.5447    3.0508 C.ar      1 RES1    0.0000
     10 O1         6.3134    5.7466    5.2525 O.3       1 RES1    0.0000
     11 C9         6.5275    6.5719    6.2645 C.2       1 RES1    0.0000
     12 C10        5.2636    6.6909    7.1531 C.3       1 RES1    0.0000
     13 C11        4.3327    5.6028    6.6200 C.3       1 RES1    0.0000
     14 C12        5.6473    2.4441    3.1693 C.2       1 RES1    0.0000
     15 C13        6.3247    1.8183    4.3738 C.3       1 RES1    0.0000
     16 N2         6.3144    2.9684    5.3118 N.3       1 RES1    0.0000
     17 N3         5.6266    6.5523    8.5699 N.am      1 RES1    0.0000
     18 C14        6.5295    5.5356    8.8711 C.2       1 RES1    0.0000
     19 C15        6.9329    5.3908   10.2434 C.ar      1 RES1    0.0000
     20 C16        7.9176    4.5095   10.6186 C.ar      1 RES1    0.0000
     21 C17        8.3230    4.4434   11.9268 C.ar      1 RES1    0.0000
     22 C18        7.7314    5.2522   12.8352 C.ar      1 RES1    0.0000
     23 C19        6.7374    6.1644   12.5192 C.ar      1 RES1    0.0000
     24 C20        6.3465    6.2410   11.1913 C.ar      1 RES1    0.0000
     25 N4         5.3804    7.1656   10.8260 N.2       1 RES1    0.0000
     26 C21        5.0526    7.3001    9.5869 C.2       1 RES1    0.0000
     27 C22        3.9303    8.2847    9.3104 C.3       1 RES1    0.0000
     28 C23        4.3544    9.7235    9.6066 C.3       1 RES1    0.0000
     29 C24        3.1598   10.6595    9.6116 C.3       1 RES1    0.0000
     30 C25        5.4673   10.1361    8.6391 C.3       1 RES1    0.0000
     31 C26        5.5925    0.5575    4.8231 C.3       1 RES1    0.0000
     32 O2         5.8086    2.1586    2.0191 O.2       1 RES1    0.0000
     33 O3         6.3578    2.4441    6.6792 O.3       1 RES1    0.0000
     34 O4         7.5225    7.2287    6.3534 O.2       1 RES1    0.0000
     35 O5         6.9443    4.8002    7.9331 O.2       1 RES1    0.0000
     36 O6         2.8505    7.9858   10.2237 O.3       1 RES1    0.0000
     37 C27        2.3323    6.7602   10.1398 C.2       1 RES1    0.0000
     38 O7         2.7388    5.9493    9.3845 O.2       1 RES1    0.0000
     39 C28        1.3053    6.4902   11.1863 C.3       1 RES1    0.0000
     40 H1         4.2717    3.2994    5.5290 H         1 RES1    0.0000
     41 H2         4.2096    7.7366    4.2948 H         1 RES1    0.0000
     42 H3         3.2787    7.8814    2.0240 H         1 RES1    0.0000
     43 H4         3.1546    6.1748    0.3456 H         1 RES1    0.0000
     44 H5         3.7235    4.1372    0.9380 H         1 RES1    0.0000
     45 H6         4.9646    7.6021    7.1581 H         1 RES1    0.0000
     46 H7         4.2096    4.9233    7.2074 H         1 RES1    0.0000
     47 H8         3.3098    5.8852    6.5657 H         1 RES1    0.0000
     48 H9         7.3125    1.6652    4.2948 H         1 RES1    0.0000
     49 H10        8.1503    4.0027   10.0707 H         1 RES1    0.0000
     50 H11        9.1122    3.8373   12.2428 H         1 RES1    0.0000
     51 H12        6.3403    6.9091   13.0326 H         1 RES1    0.0000
     52 H13        3.7338    8.1606    8.2441 H         1 RES1    0.0000
     53 H14        4.6957    9.7845   10.3669 H         1 RES1    0.0000
     54 H15        3.0305   10.5912    8.8365 H         1 RES1    0.0000
     55 H16        2.3272   10.3430   10.4162 H         1 RES1    0.0000
     56 H17        3.6097   11.6876    9.8238 H         1 RES1    0.0000
     57 H18        6.1024    9.3914    8.4910 H         1 RES1    0.0000
     58 H19        5.1612   10.2396    7.6024 H         1 RES1    0.0000
     59 H20        5.6887   11.1187    8.8365 H         1 RES1    0.0000
     60 H21        4.7474    0.7757    4.9860 H         1 RES1    0.0000
     61 H22        5.4921   -0.1034    4.1467 H         1 RES1    0.0000
     62 H23        6.1644    0.1965    5.5784 H         1 RES1    0.0000
     63 H24        6.5471    3.2167    7.2568 H         1 RES1    0.0000
     64 H25        0.8274    6.9505   11.2554 H         1 RES1    0.0000
     65 H26        1.0964    5.7507   11.0580 H         1 RES1    0.0000
     66 H27        1.7169    6.5781   12.1440 H         1 RES1    0.0000
     67 H28        7.8607    5.1922   13.8718 H         1 RES1    0.0000
@<TRIPOS>BOND
     1    1    2 1
     2    2    3 1
     3    3    4 1
     4    4    5 ar
     5    5    6 ar
     6    6    7 ar
     7    7    8 ar
     8    8    9 ar
     9    9    1 1
    10   10    3 1
    11   11   10 1
    12   12   11 1
    13   13    3 1
    14   14    1 1
    15   15   14 1
    16   16    2 1
    17   17   12 1
    18   18   17 1
    19   19   18 1
    20   20   19 ar
    21   21   20 ar
    22   22   21 ar
    23   23   22 ar
    24   24   19 ar
    25   25   24 1
    26   26   17 1
    27   27   26 1
    28   28   27 1
    29   29   28 1
    30   30   28 1
    31   31   15 1
    32   32   14 2
    33   33   16 1
    34   34   11 2
    35   35   18 2
    36   36   27 1
    37   37   36 1
    38   38   37 2
    39   39   37 1
    40   40    2 1
    41   41    5 1
    42   42    6 1
    43   43    7 1
    44   44    8 1
    45   45   12 1
    46   46   13 1
    47   47   13 1
    48   48   15 1
    49   49   20 1
    50   50   21 1
    51   51   23 1
    52   52   27 1
    53   53   28 1
    54   54   29 1
    55   55   29 1
    56   56   29 1
    57   57   30 1
    58   58   30 1
    59   59   30 1
    60   60   31 1
    61   61   31 1
    62   62   31 1
    63   63   33 1
    64   64   39 1
    65   65   39 1
    66   66   39 1
    67   67   22 1
    68    4    9 ar
    69   12   13 1
    70   15   16 1
    71   23   24 ar
    72   25   26 2
@<TRIPOS>SUBSTRUCTURE
     1 RES1 1

@<TRIPOS>CRYSIN
  10.3430   10.3430   49.3660  90.0000  90.0000  90.0000  96 1

