# MOL2 file generated by ConQuest
# Please check atom types

@<TRIPOS>MOLECULE
NTSDMA
    11    10     1
SMALL
NO_CHARGES
****
Generated from CSD

@<TRIPOS>ATOM
      1 C1         1.2961    1.6575    3.8903 C.3       1 RES1    0.0000
      2 C2         1.7156    1.6575    6.3908 C.3       1 RES1    0.0000
      3 H1         2.2525    1.6575    3.9079 H         1 RES1    0.0000
      4 H2         0.9832    0.8752    3.4233 H         1 RES1    0.0000
      5 H3         1.2216    1.6575    7.2074 H         1 RES1    0.0000
      6 H4         2.2644    0.8752    6.3516 H         1 RES1    0.0000
      7 N1         0.7848    1.6575    5.2596 N.3       1 RES1    0.0000
      8 N2        -0.5059    1.6575    5.5360 N.2       1 RES1    0.0000
      9 O1        -1.2532    1.6575    4.5214 O.2       1 RES1    0.0000
     10 H2G        0.9832    2.4398    3.4233 H         1 RES1    0.0000
     11 H4G        2.2644    2.4398    6.3516 H         1 RES1    0.0000
@<TRIPOS>BOND
     1    1    3 1
     2    2    5 1
     3    4    1 1
     4    6    2 1
     5    7    1 1
     6    8    7 1
     7    9    8 2
     8   10    1 1
     9   11    2 1
    10    2    7 1
@<TRIPOS>SUBSTRUCTURE
     1 RES1 1

@<TRIPOS>CRYSIN
   5.9590    6.6300   10.3110  90.0000  90.0000  90.0000  62 1

