# MOL2 file generated by ConQuest
# Please check atom types

@<TRIPOS>MOLECULE
NUBDUJ
    30    30     1
SMALL
NO_CHARGES
****
Generated from CSD

@<TRIPOS>ATOM
      1 O1         1.3458   10.3282    4.7372 O.2       1 RES1    0.0000
      2 O2         2.9314    9.0017    5.3514 O.2       1 RES1    0.0000
      3 O3         1.4940   14.3732    5.0198 O.3       1 RES1    0.0000
      4 O4        -0.1895   14.2336    3.5605 O.2       1 RES1    0.0000
      5 O5         4.3748   15.9884    7.5085 O.2       1 RES1    0.0000
      6 N1         5.0768   13.9903    8.3495 N.am      1 RES1    0.0000
      7 N2         2.3670   10.0949    5.3766 N.pl3     1 RES1    0.0000
      8 C1         2.6108   12.5022    5.9909 C.ar      1 RES1    0.0000
      9 C2         3.3025   13.4534    6.7364 C.ar      1 RES1    0.0000
     10 C3         4.2992   13.0757    7.6398 C.ar      1 RES1    0.0000
     11 C4         4.5760   11.7149    7.8428 C.ar      1 RES1    0.0000
     12 C5         3.9167   10.7681    7.1158 C.ar      1 RES1    0.0000
     13 C6         2.9638   11.1619    6.1779 C.ar      1 RES1    0.0000
     14 C7         1.5565   12.9373    5.0052 C.3       1 RES1    0.0000
     15 C8         0.5412   14.9048    4.2345 C.2       1 RES1    0.0000
     16 C9         0.5412   16.3939    4.3074 C.3       1 RES1    0.0000
     17 C10        5.1236   15.3547    8.2288 C.2       1 RES1    0.0000
     18 C11        6.1956   16.0105    9.0566 C.3       1 RES1    0.0000
     19 H1         5.5896   13.6601    8.9279 H         1 RES1    0.0000
     20 H2         3.1104   14.3556    6.6329 H         1 RES1    0.0000
     21 H3         5.2263   11.5201    8.5167 H         1 RES1    0.0000
     22 H4         4.0888    9.8616    7.1370 H         1 RES1    0.0000
     23 H5         1.8480   12.6258    4.1389 H         1 RES1    0.0000
     24 H6         0.7164   12.6079    5.2267 H         1 RES1    0.0000
     25 H7         0.1536   16.7274    3.6216 H         1 RES1    0.0000
     26 H8         0.1375   16.7095    5.0808 H         1 RES1    0.0000
     27 H9         1.3448   16.7630    4.5236 H         1 RES1    0.0000
     28 H10        6.3525   15.5682    9.8167 H         1 RES1    0.0000
     29 H11        6.9978   16.1389    8.3442 H         1 RES1    0.0000
     30 H12        5.8695   16.9057    9.3524 H         1 RES1    0.0000
@<TRIPOS>BOND
     1    1    7 2
     2    2    7 2
     3    3   14 1
     4    4   15 2
     5    5   17 2
     6    6   10 1
     7    7   13 1
     8    8    9 ar
     9    9   10 ar
    10   10   11 ar
    11   11   12 ar
    12   12   13 ar
    13   13    8 ar
    14   14    8 1
    15   15    3 1
    16   16   15 1
    17   17    6 1
    18   18   17 1
    19   19    6 1
    20   20    9 1
    21   21   11 1
    22   22   12 1
    23   23   14 1
    24   24   14 1
    25   25   16 1
    26   26   16 1
    27   27   16 1
    28   28   18 1
    29   29   18 1
    30   30   18 1
@<TRIPOS>SUBSTRUCTURE
     1 RES1 1

@<TRIPOS>CRYSIN
   4.8740   17.8330   13.2770  90.0000  92.3500  90.0000 231 1

