# MOL2 file generated by ConQuest
# Please check atom types

@<TRIPOS>MOLECULE
NUCGEX
    39    39     2
SMALL
NO_CHARGES
****
Generated from CSD

@<TRIPOS>ATOM
      1 O1         2.0030   15.8021    2.0073 O.3       1 RES1    0.0000
      2 N1         3.1240   15.7563    1.0868 N.3       1 RES1    0.0000
      3 C1         4.2997   15.1673    1.7759 C.3       1 RES1    0.0000
      4 C2         3.9694   13.7694    2.2665 C.3       1 RES1    0.0000
      5 C3         5.4289   15.1520    0.7532 C.3       1 RES1    0.0000
      6 C4         5.6408   16.4772    0.0703 C.ar      1 RES1    0.0000
      7 C5         6.8299   16.7656   -0.6017 C.ar      1 RES1    0.0000
      8 C6         7.0160   17.9701   -1.2390 C.ar      1 RES1    0.0000
      9 C7         6.0100   18.9229   -1.2362 C.ar      1 RES1    0.0000
     10 C8         4.8197   18.6516   -0.5888 C.ar      1 RES1    0.0000
     11 C9         4.6337   17.4415    0.0723 C.ar      1 RES1    0.0000
     12 C10        3.3285   17.1774    0.7785 C.3       1 RES1    0.0000
     13 C11        3.1365   17.8977    2.1512 C.3       1 RES1    0.0000
     14 C12        2.3751   19.1914    2.0154 C.2       1 RES1    0.0000
     15 O2         2.7812   20.2437    1.5862 O.2       1 RES1    0.0000
     16 N2         1.0772   18.9740    2.4350 N.am      1 RES1    0.0000
     17 C13        0.0301   19.9875    2.3565 C.3       1 RES1    0.0000
     18 C14        0.8662   17.7072    2.9351 C.2       1 RES1    0.0000
     19 O3        -0.1956   17.3045    3.3437 O.2       1 RES1    0.0000
     20 C15        2.1834   16.9558    2.8662 C.3       1 RES1    0.0000
     21 H1         4.5522   15.7317    2.5359 H         1 RES1    0.0000
     22 H2         3.3271   13.8236    2.9780 H         1 RES1    0.0000
     23 H3         4.7687   13.3447    2.5878 H         1 RES1    0.0000
     24 H4         3.6029   13.2547    1.5439 H         1 RES1    0.0000
     25 H5         6.2511   14.8935    1.1980 H         1 RES1    0.0000
     26 H6         5.2334   14.4805    0.0812 H         1 RES1    0.0000
     27 H7         7.5090   16.1305   -0.6195 H         1 RES1    0.0000
     28 H8         7.8198   18.1459   -1.6736 H         1 RES1    0.0000
     29 H9         6.1344   19.7379   -1.6661 H         1 RES1    0.0000
     30 H10        4.1371   19.2833   -0.5949 H         1 RES1    0.0000
     31 H11        2.6027   17.4633    0.1856 H         1 RES1    0.0000
     32 H12        3.9812   18.0115    2.6342 H         1 RES1    0.0000
     33 H13        0.4299   20.8601    2.3422 H         1 RES1    0.0000
     34 H14       -0.5458   19.9109    3.1206 H         1 RES1    0.0000
     35 H15       -0.4822   19.8578    1.5549 H         1 RES1    0.0000
     36 H16       -0.8291   19.5591    2.3360 Du        2 SUP2    0.0000
     37 H17        0.1474   20.5060    1.5576 Du        2 SUP2    0.0000
     38 H18        0.0831   20.5619    3.1234 Du        2 SUP2    0.0000
     39 H19        2.5115   16.7055    3.7551 H         1 RES1    0.0000
@<TRIPOS>BOND
     1    1    2 1
     2    2    3 1
     3    3    4 1
     4    4   22 1
     5    5    3 1
     6    6    5 1
     7    7    6 ar
     8    8    7 ar
     9    9    8 ar
    10   10    9 ar
    11   11    6 ar
    12   12    2 1
    13   13   12 1
    14   14   13 1
    15   15   14 2
    16   16   14 1
    17   17   16 1
    18   18   16 1
    19   19   18 2
    20   20    1 1
    21   21    3 1
    22   23    4 1
    23   24    4 1
    24   25    5 1
    25   26    5 1
    26   27    7 1
    27   28    8 1
    28   29    9 1
    29   30   10 1
    30   31   12 1
    31   32   13 1
    32   33   17 1
    33   34   17 1
    34   35   17 1
    35   39   20 1
    36   10   11 ar
    37   11   12 1
    38   13   20 1
    39   18   20 1
@<TRIPOS>SUBSTRUCTURE
     1 RES1 1
     2 SUP2 36

@<TRIPOS>CRYSIN
   6.8781   27.9412    7.3480  90.0000 111.7990  90.0000  14 1

