# MOL2 file generated by ConQuest
# Please check atom types

@<TRIPOS>MOLECULE
NUCNOO
    43    47     1
SMALL
NO_CHARGES
****
Generated from CSD

@<TRIPOS>ATOM
      1 C1         1.9240    1.4560    2.5953 C.3       1 RES1    0.0000
      2 C2         0.8978    1.6545    1.4790 C.2       1 RES1    0.0000
      3 N1         0.4658    0.3816    1.2641 N.am      1 RES1    0.0000
      4 C3        -0.4989   -0.1041    0.2588 C.3       1 RES1    0.0000
      5 C4        -1.0018   -1.4560    0.7511 C.3       1 RES1    0.0000
      6 O1         0.0717   -2.3040    1.1694 O.3       1 RES1    0.0000
      7 C5         0.6266   -1.8231    2.3873 C.3       1 RES1    0.0000
      8 C6         1.2438   -0.4828    2.1677 C.3       1 RES1    0.0000
      9 O2         1.3667    0.3353    3.3186 O.3       1 RES1    0.0000
     10 C7         3.1418    0.7535    1.9412 C.3       1 RES1    0.0000
     11 O3         2.5845   -0.5502    1.6685 O.3       1 RES1    0.0000
     12 O4         0.5825    2.6615    0.8736 O.2       1 RES1    0.0000
     13 C8         0.0709   -0.1657   -1.1555 C.ar      1 RES1    0.0000
     14 C9        -0.8442   -0.1339   -2.2024 C.ar      1 RES1    0.0000
     15 C10       -0.4051   -0.2486   -3.5104 C.ar      1 RES1    0.0000
     16 C11        0.9514   -0.4481   -3.7900 C.ar      1 RES1    0.0000
     17 C12        1.8428   -0.4712   -2.7570 C.ar      1 RES1    0.0000
     18 C13        1.4014   -0.3421   -1.4374 C.ar      1 RES1    0.0000
     19 C14        4.3170    0.6687    2.9049 C.ar      1 RES1    0.0000
     20 C15        4.5385   -0.4404    3.6976 C.ar      1 RES1    0.0000
     21 C16        5.5875   -0.4413    4.6382 C.ar      1 RES1    0.0000
     22 C17        6.3537    0.6764    4.7352 C.ar      1 RES1    0.0000
     23 C18        6.1889    1.7750    3.9472 C.ar      1 RES1    0.0000
     24 C19        5.1533    1.7557    3.0182 C.ar      1 RES1    0.0000
     25 N2         7.4217    0.7005    5.7613 N.pl3     1 RES1    0.0000
     26 O5         7.5155   -0.2419    6.5055 O.2       1 RES1    0.0000
     27 O6         8.1484    1.6767    5.8399 O.2       1 RES1    0.0000
     28 H1         2.1281    2.2500    3.1337 H         1 RES1    0.0000
     29 H2        -1.2595    0.5136    0.2496 H         1 RES1    0.0000
     30 H3        -1.6095   -1.3192    1.4952 H         1 RES1    0.0000
     31 H4        -1.4944   -1.8915    0.0393 H         1 RES1    0.0000
     32 H5         1.2990   -2.4447    2.7085 H         1 RES1    0.0000
     33 H6        -0.0686   -1.7566    3.0598 H         1 RES1    0.0000
     34 H7         3.4011    1.2045    1.1093 H         1 RES1    0.0000
     35 H8        -1.7514   -0.0347   -2.0244 H         1 RES1    0.0000
     36 H9        -1.0168   -0.1927   -4.2083 H         1 RES1    0.0000
     37 H10        1.2398   -0.5618   -4.6659 H         1 RES1    0.0000
     38 H11        2.7508   -0.5743   -2.9350 H         1 RES1    0.0000
     39 H12        2.0178   -0.3758   -0.7395 H         1 RES1    0.0000
     40 H13        3.9938   -1.1891    3.6121 H         1 RES1    0.0000
     41 H14        5.7499   -1.1833    5.1743 H         1 RES1    0.0000
     42 H15        6.7501    2.5121    4.0258 H         1 RES1    0.0000
     43 H16        5.0232    2.4909    2.4635 H         1 RES1    0.0000
@<TRIPOS>BOND
     1    1    2 1
     2    2    3 1
     3    3    4 1
     4    4    5 1
     5    5    6 1
     6    6    7 1
     7    7    8 1
     8    8    3 1
     9    9    1 1
    10   10    1 1
    11   11    8 1
    12   12    2 2
    13   13    4 1
    14   14   13 ar
    15   15   14 ar
    16   16   15 ar
    17   17   16 ar
    18   18   13 ar
    19   19   10 1
    20   20   19 ar
    21   21   20 ar
    22   22   21 ar
    23   23   22 ar
    24   24   19 ar
    25   25   22 1
    26   26   25 2
    27   27   25 2
    28   28    1 1
    29   29    4 1
    30   30    5 1
    31   31    5 1
    32   32    7 1
    33   33    7 1
    34   34   10 1
    35   35   14 1
    36   36   15 1
    37   37   16 1
    38   38   17 1
    39   39   18 1
    40   40   20 1
    41   41   21 1
    42   42   23 1
    43   43   24 1
    44    8    9 1
    45   10   11 1
    46   17   18 ar
    47   23   24 ar
@<TRIPOS>SUBSTRUCTURE
     1 RES1 1

@<TRIPOS>CRYSIN
   7.8820    9.6360   23.1100  90.0000  90.0000  90.0000  19 1

