# MOL2 file generated by ConQuest
# Please check atom types

@<TRIPOS>MOLECULE
NUFRUB
    25    26     1
SMALL
NO_CHARGES
****
Generated from CSD

@<TRIPOS>ATOM
      1 O1         7.3954    9.6882    4.0639 O.3       1 RES1    0.0000
      2 O2         4.8440    9.2980    3.2252 O.3       1 RES1    0.0000
      3 O3         7.8167   10.0968    1.9199 O.2       1 RES1    0.0000
      4 O4         4.1267   10.9340    1.0231 O.2       1 RES1    0.0000
      5 O5         6.6618   12.7942    2.4797 O.3       1 RES1    0.0000
      6 N1         5.5939   12.5223    1.6258 N.am      1 RES1    0.0000
      7 C1         6.3476    9.9125    5.0493 C.3       1 RES1    0.0000
      8 C2         5.1601   10.2949    4.2106 C.3       1 RES1    0.0000
      9 C3         5.6083   10.4608    2.8293 C.3       1 RES1    0.0000
     10 C4         7.0573   10.0922    2.8478 C.2       1 RES1    0.0000
     11 C5         6.1571    8.6667    5.8622 C.3       1 RES1    0.0000
     12 C6         5.0337   11.3042    1.7540 C.2       1 RES1    0.0000
     13 C7         6.3112   13.7834    3.4499 C.3       1 RES1    0.0000
     14 C8         5.4014   13.4286    0.5353 C.3       1 RES1    0.0000
     15 H1         6.5794   10.6145    5.5846 H         1 RES1    0.0000
     16 H2         4.4246   10.6913    4.5668 H         1 RES1    0.0000
     17 H3         5.9760    7.9416    5.2872 H         1 RES1    0.0000
     18 H4         5.4972    8.7865    6.5429 H         1 RES1    0.0000
     19 H5         7.0199    8.4486    6.2786 H         1 RES1    0.0000
     20 H6         6.1005   14.6237    2.7758 H         1 RES1    0.0000
     21 H7         7.0487   13.7788    4.0315 H         1 RES1    0.0000
     22 H8         5.3631   13.2873    4.0315 H         1 RES1    0.0000
     23 H9         4.6736   13.0569    0.0000 H         1 RES1    0.0000
     24 H10        5.1428   14.3318    0.9253 H         1 RES1    0.0000
     25 H11        6.1005   13.6098    0.0661 H         1 RES1    0.0000
@<TRIPOS>BOND
     1    1    7 1
     2    2    8 1
     3    3   10 2
     4    4   12 2
     5    5    6 1
     6    6   12 1
     7    7    8 1
     8    8    9 1
     9    9    2 1
    10   10    1 1
    11   11    7 1
    12   12    9 1
    13   13    5 1
    14   14    6 1
    15   15    7 1
    16   16    8 1
    17   17   11 1
    18   18   11 1
    19   19   11 1
    20   20   13 1
    21   21   13 1
    22   22   13 1
    23   23   14 1
    24   24   14 1
    25   25   14 1
    26    9   10 1
@<TRIPOS>SUBSTRUCTURE
     1 RES1 1

@<TRIPOS>CRYSIN
   9.5770   15.3610    6.6090  90.0000  90.0000  90.0000  19 1

