# MOL2 file generated by ConQuest
# Please check atom types

@<TRIPOS>MOLECULE
NUGJIK
    48    52     1
SMALL
USER_CHARGES
****
Generated from CSD

@<TRIPOS>ATOM
      1 N1         7.7888    7.0089    6.6761 N.pl3     1 RES1    1.0000
      2 O1         6.5839    7.3974    6.3320 O.2       1 RES1   -1.0000
      3 C1         8.4766    7.9096    2.2973 C.3       1 RES1    0.0000
      4 C2         8.7531    6.9096    5.7683 C.ar      1 RES1    0.0000
      5 N2         9.0483    7.9917    3.6535 N.2       1 RES1    0.0000
      6 N3         7.4191    6.9062    2.3297 N.2       1 RES1    0.0000
      7 C3        10.0505    6.5791    6.1552 C.ar      1 RES1    0.0000
      8 H1        10.7276    6.5598    5.5178 H         1 RES1    0.0000
      9 C4        10.3452    6.2808    7.4675 C.ar      1 RES1    0.0000
     10 H2        11.2008    6.0086    7.7096 H         1 RES1    0.0000
     11 C5         9.3261    6.3941    8.4418 C.ar      1 RES1    0.0000
     12 C6         9.5305    6.1870    9.8110 C.ar      1 RES1    0.0000
     13 H3        10.3728    5.9340   10.1154 H         1 RES1    0.0000
     14 C7         8.5286    6.3497   10.6939 C.ar      1 RES1    0.0000
     15 H4         8.6880    6.2196   11.6010 H         1 RES1    0.0000
     16 C8         7.2579    6.7095   10.2636 C.ar      1 RES1    0.0000
     17 H5         6.5717    6.8142   10.8820 H         1 RES1    0.0000
     18 C9         7.0159    6.9087    8.9443 C.ar      1 RES1    0.0000
     19 H6         6.1615    7.1381    8.6573 H         1 RES1    0.0000
     20 C10        8.0426    6.7695    8.0243 C.ar      1 RES1    0.0000
     21 C11        8.3932    7.1531    4.3566 C.2       1 RES1    0.0000
     22 C12        7.3544    6.4618    3.5288 C.2       1 RES1    0.0000
     23 C13        6.4100    5.4127    3.9287 C.ar      1 RES1    0.0000
     24 C14        5.1972    5.3315    3.2860 C.ar      1 RES1    0.0000
     25 H7         4.9733    5.9629    2.6400 H         1 RES1    0.0000
     26 C15        4.3160    4.3283    3.5884 C.ar      1 RES1    0.0000
     27 H8         3.4951    4.2892    3.1523 H         1 RES1    0.0000
     28 C16        4.6302    3.3852    4.5251 C.ar      1 RES1    0.0000
     29 H9         4.0274    2.7058    4.7256 H         1 RES1    0.0000
     30 C17        5.8395    3.4452    5.1689 C.ar      1 RES1    0.0000
     31 H10        6.0670    2.8013    5.7996 H         1 RES1    0.0000
     32 C18        6.7129    4.4636    4.8746 C.ar      1 RES1    0.0000
     33 H11        7.5254    4.5120    5.3239 H         1 RES1    0.0000
     34 C19        7.9051    9.2536    1.8721 C.3       1 RES1    0.0000
     35 H12        7.4503    9.1522    1.0209 H         1 RES1    0.0000
     36 H13        7.2518    9.5441    2.5266 H         1 RES1    0.0000
     37 C20        8.9822   10.3124    1.7380 C.3       1 RES1    0.0000
     38 H14        8.5864   11.1315    1.4014 H         1 RES1    0.0000
     39 H15        9.3591   10.4998    2.6126 H         1 RES1    0.0000
     40 C21       10.0828    9.8698    0.8054 C.3       1 RES1    0.0000
     41 H16       10.7868   10.5374    0.8013 H         1 RES1    0.0000
     42 H17        9.7310    9.8012   -0.0951 H         1 RES1    0.0000
     43 C22       10.6634    8.5325    1.2201 C.3       1 RES1    0.0000
     44 H18       11.1103    8.6259    2.0765 H         1 RES1    0.0000
     45 H19       11.3218    8.2493    0.5672 H         1 RES1    0.0000
     46 C23        9.5720    7.4773    1.3297 C.3       1 RES1    0.0000
     47 H20        9.9606    6.6432    1.6356 H         1 RES1    0.0000
     48 H21        9.1850    7.3232    0.4537 H         1 RES1    0.0000
@<TRIPOS>BOND
     1    1    2 1
     2    3    5 1
     3    4    1 ar
     4    5   21 2
     5    6    3 1
     6    7    4 ar
     7    8    7 1
     8    9    7 ar
     9   10    9 1
    10   11    9 ar
    11   12   11 ar
    12   13   12 1
    13   14   12 ar
    14   15   14 1
    15   16   14 ar
    16   17   16 1
    17   18   16 ar
    18   19   18 1
    19   20    1 ar
    20   21    4 1
    21   22    6 2
    22   23   22 1
    23   24   23 ar
    24   25   24 1
    25   26   24 ar
    26   27   26 1
    27   28   26 ar
    28   29   28 1
    29   30   28 ar
    30   31   30 1
    31   32   23 ar
    32   33   32 1
    33   34    3 1
    34   35   34 1
    35   36   34 1
    36   37   34 1
    37   38   37 1
    38   39   37 1
    39   40   37 1
    40   41   40 1
    41   42   40 1
    42   43   40 1
    43   44   43 1
    44   45   43 1
    45   46    3 1
    46   47   46 1
    47   48   46 1
    48   11   20 ar
    49   18   20 ar
    50   21   22 1
    51   30   32 ar
    52   43   46 1
@<TRIPOS>SUBSTRUCTURE
     1 RES1 1

@<TRIPOS>CRYSIN
   7.0382    7.1621   18.6174  82.7060  81.5200  83.9800   2 1

