# MOL2 file generated by ConQuest
# Please check atom types

@<TRIPOS>MOLECULE
NUKPOZ
    63    63     2
SMALL
NO_CHARGES
****
Generated from CSD

@<TRIPOS>ATOM
      1 C1        12.9343   12.6858    1.5451 C.3       1 RES1    0.0000
      2 H1        13.7156   12.1364    1.4458 H         1 RES1    0.0000
      3 H2        13.1702   13.6061    1.4095 H         1 RES1    0.0000
      4 H3        12.2763   12.4260    0.8963 H         1 RES1    0.0000
      5 O1        12.4026   12.5207    2.8483 O.3       1 RES1    0.0000
      6 C2        11.9235   11.2689    3.1811 C.ar      1 RES1    0.0000
      7 C3        11.8314   10.2337    2.2652 C.ar      1 RES1    0.0000
      8 H4        12.1138   10.3487    1.3857 H         1 RES1    0.0000
      9 C4        11.3087    9.0225    2.6917 C.ar      1 RES1    0.0000
     10 H5        11.2218    8.3350    2.0708 H         1 RES1    0.0000
     11 C5        10.9108    8.7870    3.9935 C.ar      1 RES1    0.0000
     12 C6        11.0588    9.8642    4.8842 C.ar      1 RES1    0.0000
     13 H6        10.8136    9.7478    5.7735 H         1 RES1    0.0000
     14 C7        11.5581   11.1011    4.4815 C.ar      1 RES1    0.0000
     15 H7        11.6404   11.7994    5.0911 H         1 RES1    0.0000
     16 C8        10.3360    7.5054    4.5556 C.3       1 RES1    0.0000
     17 H8        10.3858    7.5866    5.5302 H         1 RES1    0.0000
     18 C9        11.0492    6.1765    4.1934 C.3       1 RES1    0.0000
     19 C10       10.9163    5.7596    2.7336 C.3       1 RES1    0.0000
     20 H9        11.2800    4.8665    2.6260 H         1 RES1    0.0000
     21 H10       11.4387    6.3619    2.1827 H         1 RES1    0.0000
     22 C11        9.4522    5.7691    2.2414 C.3       1 RES1    0.0000
     23 H11        9.0196    4.9612    2.5896 H         1 RES1    0.0000
     24 C12        8.6324    6.9790    2.7308 C.3       1 RES1    0.0000
     25 H12        8.8904    7.7666    2.2261 H         1 RES1    0.0000
     26 H13        7.6898    6.8139    2.5686 H         1 RES1    0.0000
     27 C13        8.8535    7.2374    4.2186 C.3       1 RES1    0.0000
     28 C14        8.3020    6.1237    5.1428 C.3       1 RES1    0.0000
     29 H14        7.7080    6.5229    5.7986 H         1 RES1    0.0000
     30 H15        7.7806    5.5012    4.6115 H         1 RES1    0.0000
     31 C15        9.0971    4.8922    5.2659 C.3       1 RES1    0.0000
     32 H16        8.8506    4.3400    4.4940 H         1 RES1    0.0000
     33 C16       10.6207    5.0789    5.1722 C.3       1 RES1    0.0000
     34 H17       10.5283    4.2426    4.6898 H         1 RES1    0.0000
     35 H18       11.3134    4.9612    5.8406 H         1 RES1    0.0000
     36 N1         8.0888    8.5123    4.6241 N.pl3     1 RES1    0.0000
     37 O2         7.4333    9.0942    3.7739 O.2       1 RES1    0.0000
     38 O3         8.1747    8.8763    5.7833 O.2       1 RES1    0.0000
     39 N2        12.5389    6.4431    4.4899 N.pl3     1 RES1    0.0000
     40 O4        13.3623    6.2468    3.6131 O.2       1 RES1    0.0000
     41 O5        12.8193    6.8301    5.6141 O.2       1 RES1    0.0000
     42 C17        9.4221    5.6866    0.7313 C.2       1 RES1    0.0000
     43 O6        10.3933    5.6243    0.0322 O.2       1 RES1    0.0000
     44 O7         8.1753    5.6676    0.2825 O.3       1 RES1    0.0000
     45 C18        8.0017    5.6609   -1.1634 C.3       1 RES1    0.0000
     46 H19        8.5406    4.9612   -1.5647 H         1 RES1    0.0000
     47 H20        8.2751    6.5134   -1.5381 H         1 RES1    0.0000
     48 C19        6.5676    5.4200   -1.4332 C.3       1 RES1    0.0000
     49 H21        6.3212    4.5525   -1.1032 H         1 RES1    0.0000
     50 H22        6.4083    5.4606   -2.3785 H         1 RES1    0.0000
     51 H23        6.0413    6.0912   -0.9914 H         1 RES1    0.0000
     52 C20        8.7742    4.0613    6.4782 C.2       1 RES1    0.0000
     53 O8         9.3365    2.9962    6.6040 O.2       1 RES1    0.0000
     54 O9         7.7111    4.4334    7.1759 O.3       1 RES1    0.0000
     55 C21        7.2635    3.5321    8.2232 C.3       1 RES1    0.0000
     56 H24        7.3597    2.6146    7.9226 H         1 RES1    0.0000
     57 H25        6.3246    3.6918    8.4064 H         1 RES1    0.0000
     58 C22        8.0551    3.7338    9.4691 C.3       1 RES1    0.0000
     59 H26        8.9765    3.5226    9.2999 H         1 RES1    0.0000
     60 H27        7.7157    3.1586   10.1598 H         1 RES1    0.0000
     61 H28        7.9812    4.6486    9.7502 H         1 RES1    0.0000
     62 C23        9.3599    5.3875    5.8448 Du        2 SUP2    0.0000
     63 H29        9.6042    5.9532    6.6012 Du        2 SUP2    0.0000
@<TRIPOS>BOND
     1    1    2 1
     2    3    1 1
     3    4    1 1
     4    5    1 1
     5    6    5 1
     6    7    6 ar
     7    8    7 1
     8    9    7 ar
     9   10    9 1
    10   11    9 ar
    11   12   11 ar
    12   13   12 1
    13   14    6 ar
    14   15   14 1
    15   16   11 1
    16   17   16 1
    17   18   16 1
    18   19   18 1
    19   20   19 1
    20   21   19 1
    21   22   19 1
    22   23   22 1
    23   24   22 1
    24   25   24 1
    25   26   24 1
    26   27   16 1
    27   28   27 1
    28   29   28 1
    29   30   28 1
    30   31   28 1
    31   32   31 1
    32   33   18 1
    33   34   33 1
    34   35   33 1
    35   36   27 1
    36   37   36 2
    37   38   36 2
    38   39   18 1
    39   40   39 2
    40   41   39 2
    41   42   22 1
    42   43   42 2
    43   44   42 1
    44   45   44 1
    45   46   45 1
    46   47   45 1
    47   48   45 1
    48   49   48 1
    49   50   48 1
    50   51   48 1
    51   52   31 1
    52   53   52 2
    53   54   52 1
    54   55   54 1
    55   56   55 1
    56   57   55 1
    57   58   55 1
    58   59   58 1
    59   60   58 1
    60   61   58 1
    61   12   14 ar
    62   24   27 1
    63   31   33 1
@<TRIPOS>SUBSTRUCTURE
     1 RES1 1
     2 SUP2 62

@<TRIPOS>CRYSIN
  11.6350   13.5330   13.9830  90.0000  90.3580  90.0000 231 1

