# MOL2 file generated by ConQuest
# Please check atom types

@<TRIPOS>MOLECULE
NUMKUB
    27    30     1
SMALL
NO_CHARGES
****
Generated from CSD

@<TRIPOS>ATOM
      1 O1         9.5677    1.3244    3.3159 O.2       1 RES1    0.0000
      2 O2         1.8751    1.5400    5.1297 O.3       1 RES1    0.0000
      3 O3         7.2445    1.9751    9.3127 O.2       1 RES1    0.0000
      4 O4         7.8771    0.0193    8.6885 O.2       1 RES1    0.0000
      5 N1         7.7154    0.2859    2.4883 N.am      1 RES1    0.0000
      6 C1         8.8376    0.3128    3.3288 C.2       1 RES1    0.0000
      7 C2         9.0403   -0.8258    4.1344 C.2       1 RES1    0.0000
      8 C3         8.2379   -1.8990    4.0299 C.2       1 RES1    0.0000
      9 C4         7.1462   -1.9125    3.1510 C.2       1 RES1    0.0000
     10 C5         6.8987   -0.8143    2.3994 C.2       1 RES1    0.0000
     11 C6         5.7073   -0.7430    1.4527 C.3       1 RES1    0.0000
     12 C7         5.9931    0.1492    0.2878 C.3       1 RES1    0.0000
     13 C8         6.2556    1.5169    0.8588 C.3       1 RES1    0.0000
     14 C9         7.5337    1.5131    1.6974 C.3       1 RES1    0.0000
     15 C10        5.0501    2.0097    1.6305 C.3       1 RES1    0.0000
     16 N2         4.6950    1.1155    2.7266 N.3       1 RES1    0.0000
     17 C11        4.4732   -0.2281    2.2070 C.3       1 RES1    0.0000
     18 C12        3.4919    1.6488    3.3902 C.3       1 RES1    0.0000
     19 C13        3.0408    0.8951    4.6357 C.3       1 RES1    0.0000
     20 C14        4.0900    0.9096    5.7264 C.ar      1 RES1    0.0000
     21 C15        4.2083    1.9606    6.5696 C.ar      1 RES1    0.0000
     22 C16        5.1906    2.0164    7.5484 C.ar      1 RES1    0.0000
     23 C17        6.0438    0.9461    7.6309 C.ar      1 RES1    0.0000
     24 C18        5.9350   -0.1424    6.8326 C.ar      1 RES1    0.0000
     25 C19        4.9478   -0.1501    5.8629 C.ar      1 RES1    0.0000
     26 N3         7.1336    0.9866    8.6170 N.pl3     1 RES1    0.0000
     27 H1         1.1940    1.4053    4.7475 H         1 RES1    0.0000
@<TRIPOS>BOND
     1    1    6 2
     2    2   19 1
     3    3   26 2
     4    4   26 2
     5    5    6 1
     6    6    7 1
     7    7    8 2
     8    8    9 1
     9    9   10 2
    10   10    5 1
    11   11   10 1
    12   12   11 1
    13   13   12 1
    14   14    5 1
    15   15   13 1
    16   16   15 1
    17   17   11 1
    18   18   16 1
    19   19   18 1
    20   20   19 1
    21   21   20 ar
    22   22   21 ar
    23   23   22 ar
    24   24   23 ar
    25   25   20 ar
    26   26   23 1
    27   27    2 1
    28   13   14 1
    29   16   17 1
    30   24   25 ar
@<TRIPOS>SUBSTRUCTURE
     1 RES1 1

@<TRIPOS>CRYSIN
   9.6890    9.6250    9.9260  90.0000 112.5800  90.0000   4 1

