# MOL2 file generated by ConQuest
# Please check atom types

@<TRIPOS>MOLECULE
NUMLUE
    52    55     1
SMALL
NO_CHARGES
****
Generated from CSD

@<TRIPOS>ATOM
      1 N1         1.2798    8.7079    2.9152 N.3       1 RES1    0.0000
      2 H1         1.2555    8.3529    2.0904 H         1 RES1    0.0000
      3 C1         1.0906    7.6214    3.8775 C.3       1 RES1    0.0000
      4 H2         1.6623    7.7830    4.6819 H         1 RES1    0.0000
      5 C2         1.4697    6.2795    3.2400 C.2       1 RES1    0.0000
      6 O1         1.3998    6.1158    2.0294 O.2       1 RES1    0.0000
      7 N2         1.8322    5.2834    4.0723 N.am      1 RES1    0.0000
      8 O2         1.7307    5.5048    5.4501 O.3       1 RES1    0.0000
      9 C3         3.0413    5.6211    6.0352 C.3       1 RES1    0.0000
     10 H3         3.4644    4.7375    6.0669 H         1 RES1    0.0000
     11 H4         2.9630    5.9787    6.9451 H         1 RES1    0.0000
     12 H5         3.5887    6.2267    5.4925 H         1 RES1    0.0000
     13 C4         2.1324    3.9234    3.6642 C.3       1 RES1    0.0000
     14 H6         2.0856    3.8579    2.6879 H         1 RES1    0.0000
     15 H7         1.4805    3.3113    4.0643 H         1 RES1    0.0000
     16 H8         3.0339    3.6839    3.9649 H         1 RES1    0.0000
     17 C5        -0.3817    7.5617    4.2984 C.3       1 RES1    0.0000
     18 H9        -0.6390    8.4145    4.7078 H         1 RES1    0.0000
     19 H10       -0.5065    6.8377    4.9468 H         1 RES1    0.0000
     20 H11       -0.9401    7.3953    3.5100 H         1 RES1    0.0000
     21 C6         2.5576    9.4449    3.0343 C.3       1 RES1    0.0000
     22 C7         3.8120    8.5725    3.2426 C.ar      1 RES1    0.0000
     23 C8         4.3007    7.5440    2.4484 C.ar      1 RES1    0.0000
     24 H12        3.8712    7.3199    1.6312 H         1 RES1    0.0000
     25 C9         5.4361    6.8415    2.8692 C.ar      1 RES1    0.0000
     26 H13        5.7740    6.1308    2.3366 H         1 RES1    0.0000
     27 C10        6.0728    7.1736    4.0558 C.ar      1 RES1    0.0000
     28 H14        6.8466    6.6925    4.3249 H         1 RES1    0.0000
     29 C11        5.5900    8.2030    4.8541 C.ar      1 RES1    0.0000
     30 H15        6.0288    8.4324    5.6652 H         1 RES1    0.0000
     31 C12        4.4495    8.8938    4.4445 C.ar      1 RES1    0.0000
     32 C13        3.6804    9.9500    5.1233 C.ar      1 RES1    0.0000
     33 C14        3.8697   10.5749    6.3543 C.ar      1 RES1    0.0000
     34 H16        4.6243   10.3682    6.8933 H         1 RES1    0.0000
     35 C15        2.9291   11.5077    6.7765 C.ar      1 RES1    0.0000
     36 H17        3.0514   11.9519    7.6074 H         1 RES1    0.0000
     37 C16        1.8094   11.8006    5.9987 C.ar      1 RES1    0.0000
     38 H18        1.1723   12.4341    6.3088 H         1 RES1    0.0000
     39 C17        1.6183   11.1721    4.7712 C.ar      1 RES1    0.0000
     40 H19        0.8538   11.3669    4.2414 H         1 RES1    0.0000
     41 C18        2.5616   10.2580    4.3367 C.ar      1 RES1    0.0000
     42 C19        2.6518   10.3786    1.8232 C.ar      1 RES1    0.0000
     43 C20        1.4994   11.0127    1.3585 C.ar      1 RES1    0.0000
     44 H20        0.6729   10.8600    1.8011 H         1 RES1    0.0000
     45 C21        1.5379   11.8630    0.2606 C.ar      1 RES1    0.0000
     46 H21        0.7438   12.2875   -0.0403 H         1 RES1    0.0000
     47 C22        2.7411   12.0911   -0.3956 C.ar      1 RES1    0.0000
     48 H22        2.7709   12.6574   -1.1575 H         1 RES1    0.0000
     49 C23        3.8914   11.4881    0.0681 C.ar      1 RES1    0.0000
     50 H23        4.7178   11.6546   -0.3700 H         1 RES1    0.0000
     51 C24        3.8556   10.6357    1.1741 C.ar      1 RES1    0.0000
     52 H24        4.6562   10.2298    1.4843 H         1 RES1    0.0000
@<TRIPOS>BOND
     1    1    2 1
     2    3    1 1
     3    4    3 1
     4    5    3 1
     5    6    5 2
     6    7    5 1
     7    8    7 1
     8    9    8 1
     9   10    9 1
    10   11    9 1
    11   12    9 1
    12   13    7 1
    13   14   13 1
    14   15   13 1
    15   16   13 1
    16   17    3 1
    17   18   17 1
    18   19   17 1
    19   20   17 1
    20   21    1 1
    21   22   21 1
    22   23   22 ar
    23   24   23 1
    24   25   23 ar
    25   26   25 1
    26   27   25 ar
    27   28   27 1
    28   29   27 ar
    29   30   29 1
    30   31   22 ar
    31   32   31 1
    32   33   32 ar
    33   34   33 1
    34   35   33 ar
    35   36   35 1
    36   37   35 ar
    37   38   37 1
    38   39   37 ar
    39   40   39 1
    40   41   21 1
    41   42   21 1
    42   43   42 ar
    43   44   43 1
    44   45   43 ar
    45   46   45 1
    46   47   45 ar
    47   48   47 1
    48   49   47 ar
    49   50   49 1
    50   51   42 ar
    51   52   51 1
    52   29   31 ar
    53   32   41 ar
    54   39   41 ar
    55   49   51 ar
@<TRIPOS>SUBSTRUCTURE
     1 RES1 1

@<TRIPOS>CRYSIN
  10.2740   13.7000   14.3970  90.0000  90.0000  90.0000  19 1

