# MOL2 file generated by ConQuest
# Please check atom types

@<TRIPOS>MOLECULE
NUMNAM
    56    60     1
SMALL
NO_CHARGES
****
Generated from CSD

@<TRIPOS>ATOM
      1 N1         7.1372    4.1793   10.7733 N.3       1 RES1    0.0000
      2 C1         8.1479    4.3556   11.8353 C.3       1 RES1    0.0000
      3 H1         7.7681    4.8910   12.5898 H         1 RES1    0.0000
      4 C2         9.4235    5.0108   11.3104 C.2       1 RES1    0.0000
      5 O1         9.8916    4.7784   10.2089 O.2       1 RES1    0.0000
      6 N2        10.1000    5.7994   12.1901 N.am      1 RES1    0.0000
      7 C3        11.1744    6.6857   11.7847 C.3       1 RES1    0.0000
      8 H2        11.3574    6.5612   10.8298 H         1 RES1    0.0000
      9 H3        11.9805    6.4786   12.3009 H         1 RES1    0.0000
     10 H4        10.9101    7.6151   11.9483 H         1 RES1    0.0000
     11 O2         9.4478    6.2062   13.3661 O.3       1 RES1    0.0000
     12 C4        10.1498    5.6933   14.5034 C.3       1 RES1    0.0000
     13 H5        10.2097    4.7176   14.4372 H         1 RES1    0.0000
     14 H6         9.6689    5.9366   15.3217 H         1 RES1    0.0000
     15 H7        11.0524    6.0755   14.5291 H         1 RES1    0.0000
     16 C5         8.4664    2.9300   12.3027 C.3       1 RES1    0.0000
     17 H8         9.1251    2.4929   11.7068 H         1 RES1    0.0000
     18 H9         8.8110    2.9222   13.2313 H         1 RES1    0.0000
     19 C6         7.0982    2.2571   12.2098 C.3       1 RES1    0.0000
     20 H10        7.1816    1.2712   12.1824 H         1 RES1    0.0000
     21 H11        6.5168    2.5150   12.9676 H         1 RES1    0.0000
     22 C7         6.5727    2.8080   10.8923 C.3       1 RES1    0.0000
     23 H12        6.8695    2.2426   10.1349 H         1 RES1    0.0000
     24 H13        5.5836    2.8383   10.8979 H         1 RES1    0.0000
     25 C8         6.1353    5.2755   10.7007 C.3       1 RES1    0.0000
     26 C9         5.3350    5.4692   12.0055 C.ar      1 RES1    0.0000
     27 C10        4.4248    4.6177   12.6144 C.ar      1 RES1    0.0000
     28 H14        4.1941    3.7903   12.2090 H         1 RES1    0.0000
     29 C11        3.8525    4.9933   13.8282 C.ar      1 RES1    0.0000
     30 H15        3.2213    4.4204   14.2476 H         1 RES1    0.0000
     31 C12        4.1951    6.1933   14.4288 C.ar      1 RES1    0.0000
     32 H16        3.8098    6.4250   15.2654 H         1 RES1    0.0000
     33 C13        5.0886    7.0583   13.8294 C.ar      1 RES1    0.0000
     34 H17        5.3122    7.8847   14.2402 H         1 RES1    0.0000
     35 C14        5.6609    6.6940   12.6030 C.ar      1 RES1    0.0000
     36 C15        6.6123    7.4037   11.7409 C.ar      1 RES1    0.0000
     37 C16        7.2293    8.6377   11.9041 C.ar      1 RES1    0.0000
     38 H18        7.0555    9.1670   12.6728 H         1 RES1    0.0000
     39 C17        8.0995    9.0801   10.9268 C.ar      1 RES1    0.0000
     40 H19        8.5356    9.9168   11.0312 H         1 RES1    0.0000
     41 C18        8.3444    8.3122    9.7895 C.ar      1 RES1    0.0000
     42 H20        8.9330    8.6400    9.1201 H         1 RES1    0.0000
     43 C19        7.7356    7.0639    9.6219 C.ar      1 RES1    0.0000
     44 H21        7.9074    6.5364    8.8505 H         1 RES1    0.0000
     45 C20        6.8747    6.6164   10.6092 C.ar      1 RES1    0.0000
     46 C21        5.2571    5.0188    9.4652 C.ar      1 RES1    0.0000
     47 C22        5.8581    4.5646    8.2902 C.ar      1 RES1    0.0000
     48 H22        6.7994    4.4438    8.2608 H         1 RES1    0.0000
     49 C23        5.0947    4.2874    7.1672 C.ar      1 RES1    0.0000
     50 H23        5.5165    3.9774    6.3749 H         1 RES1    0.0000
     51 C24        3.7265    4.4597    7.1945 C.ar      1 RES1    0.0000
     52 H24        3.2050    4.2622    6.4253 H         1 RES1    0.0000
     53 C25        3.1196    4.9199    8.3428 C.ar      1 RES1    0.0000
     54 H25        2.1773    5.0409    8.3616 H         1 RES1    0.0000
     55 C26        3.8810    5.2110    9.4817 C.ar      1 RES1    0.0000
     56 H26        3.4571    5.5403   10.2653 H         1 RES1    0.0000
@<TRIPOS>BOND
     1    1    2 1
     2    2    3 1
     3    4    2 1
     4    5    4 2
     5    6    4 1
     6    7    6 1
     7    8    7 1
     8    9    7 1
     9   10    7 1
    10   11    6 1
    11   12   11 1
    12   13   12 1
    13   14   12 1
    14   15   12 1
    15   16    2 1
    16   17   16 1
    17   18   16 1
    18   19   16 1
    19   20   19 1
    20   21   19 1
    21   22    1 1
    22   23   22 1
    23   24   22 1
    24   25    1 1
    25   26   25 1
    26   27   26 ar
    27   28   27 1
    28   29   27 ar
    29   30   29 1
    30   31   29 ar
    31   32   31 1
    32   33   31 ar
    33   34   33 1
    34   35   26 ar
    35   36   35 1
    36   37   36 ar
    37   38   37 1
    38   39   37 ar
    39   40   39 1
    40   41   39 ar
    41   42   41 1
    42   43   41 ar
    43   44   43 1
    44   45   25 1
    45   46   25 1
    46   47   46 ar
    47   48   47 1
    48   49   47 ar
    49   50   49 1
    50   51   49 ar
    51   52   51 1
    52   53   51 ar
    53   54   53 1
    54   55   46 ar
    55   56   55 1
    56   19   22 1
    57   33   35 ar
    58   36   45 ar
    59   43   45 ar
    60   53   55 ar
@<TRIPOS>SUBSTRUCTURE
     1 RES1 1

@<TRIPOS>CRYSIN
  10.1650   13.7580   14.8150  90.0000  90.0000  90.0000  19 1

