# MOL2 file generated by ConQuest
# Please check atom types

@<TRIPOS>MOLECULE
NUNJIP
    38    39     1
SMALL
NO_CHARGES
****
Generated from CSD

@<TRIPOS>ATOM
      1 O1         0.4594    0.7636    0.9812 O.3       1 RES1    0.0000
      2 H1        -0.0066    0.5114    0.3292 H         1 RES1    0.0000
      3 O2         0.7527    3.9065   -0.5797 O.3       1 RES1    0.0000
      4 O3         0.5038    5.9521    0.3772 O.3       1 RES1    0.0000
      5 N1         1.6590    1.4264    0.4938 N.3       1 RES1    0.0000
      6 C1         1.7033    2.5260    2.7240 C.1       1 RES1    0.0000
      7 C2         1.7616    2.6842    1.2496 C.3       1 RES1    0.0000
      8 H2         2.6480    3.0913    1.0299 H         1 RES1    0.0000
      9 C3         0.6858    3.6852    0.8231 C.3       1 RES1    0.0000
     10 H3        -0.2185    3.3390    1.0707 H         1 RES1    0.0000
     11 C4         0.8480    5.3169   -0.8388 C.3       1 RES1    0.0000
     12 C5         4.0779    1.0274    0.2748 C.ar      1 RES1    0.0000
     13 C6         2.7658    0.5045    0.8059 C.3       1 RES1    0.0000
     14 H4         2.5778   -0.3807    0.4058 H         1 RES1    0.0000
     15 H5         2.8307    0.3898    1.7871 H         1 RES1    0.0000
     16 C7         1.6007    2.4331    3.8855 C.1       1 RES1    0.0000
     17 H6         1.5173    2.3574    4.8288 H         1 RES1    0.0000
     18 C8         0.8924    5.0749    1.4207 C.3       1 RES1    0.0000
     19 H7         0.3270    5.2034    2.2222 H         1 RES1    0.0000
     20 H8         1.8404    5.2171    1.6690 H         1 RES1    0.0000
     21 C9        -0.1701    5.6930   -1.8852 C.3       1 RES1    0.0000
     22 H9         0.0583    5.2584   -2.7340 H         1 RES1    0.0000
     23 H10       -0.1701    6.6653   -2.0061 H         1 RES1    0.0000
     24 H11       -1.0579    5.3983   -1.5960 H         1 RES1    0.0000
     25 C10        2.2640    5.6345   -1.2618 C.3       1 RES1    0.0000
     26 H12        2.4646    5.1770   -2.1049 H         1 RES1    0.0000
     27 H13        2.8883    5.3306   -0.5697 H         1 RES1    0.0000
     28 H14        2.3594    6.6022   -1.3849 H         1 RES1    0.0000
     29 C11        5.1570    1.1673    1.0972 C.ar      1 RES1    0.0000
     30 H15        5.0828    0.9517    2.0197 H         1 RES1    0.0000
     31 C12        4.2130    1.3438   -1.0671 C.ar      1 RES1    0.0000
     32 H16        3.4801    1.2303   -1.6597 H         1 RES1    0.0000
     33 C13        6.3704    1.6248    0.5833 C.ar      1 RES1    0.0000
     34 H17        7.1258    1.7062    1.1537 H         1 RES1    0.0000
     35 C14        6.4763    1.9573   -0.7329 C.ar      1 RES1    0.0000
     36 H18        7.3012    2.2829   -1.0757 H         1 RES1    0.0000
     37 C15        5.4244    1.8254   -1.5409 C.ar      1 RES1    0.0000
     38 H19        5.5059    2.0651   -2.4570 H         1 RES1    0.0000
@<TRIPOS>BOND
     1    1    2 1
     2    3    9 1
     3    4   11 1
     4    5    1 1
     5    6    7 1
     6    7    5 1
     7    8    7 1
     8    9    7 1
     9   10    9 1
    10   11    3 1
    11   12   13 1
    12   13    5 1
    13   14   13 1
    14   15   13 1
    15   16    6 3
    16   17   16 1
    17   18    4 1
    18   19   18 1
    19   20   18 1
    20   21   11 1
    21   22   21 1
    22   23   21 1
    23   24   21 1
    24   25   11 1
    25   26   25 1
    26   27   25 1
    27   28   25 1
    28   29   12 ar
    29   30   29 1
    30   31   12 ar
    31   32   31 1
    32   33   29 ar
    33   34   33 1
    34   35   33 ar
    35   36   35 1
    36   37   31 ar
    37   38   37 1
    38    9   18 1
    39   35   37 ar
@<TRIPOS>SUBSTRUCTURE
     1 RES1 1

@<TRIPOS>CRYSIN
  13.2400   13.2400    7.1570  90.0000  90.0000 120.0000 145 1

