# MOL2 file generated by ConQuest
# Please check atom types

@<TRIPOS>MOLECULE
NUNPER
    44    47     1
SMALL
NO_CHARGES
****
Generated from CSD

@<TRIPOS>ATOM
      1 O1         6.1505   12.9242    5.2141 O.3       1 RES1    0.0000
      2 C1         6.5186   11.5524    4.8759 C.3       1 RES1    0.0000
      3 H1         6.7358   11.6271    3.9248 H         1 RES1    0.0000
      4 C2         7.6795   11.0731    5.6856 C.3       1 RES1    0.0000
      5 H2         7.8634   10.1532    5.4731 H         1 RES1    0.0000
      6 H3         8.4445   11.6181    5.4231 H         1 RES1    0.0000
      7 C3         6.6949   12.4684    7.4943 C.2       1 RES1    0.0000
      8 C4         7.4849   11.2265    7.2094 C.3       1 RES1    0.0000
      9 H4         8.3753   11.3461    7.5840 H         1 RES1    0.0000
     10 C5         6.6667   12.9298    8.8663 C.2       1 RES1    0.0000
     11 O2         5.9372   14.0593    9.1668 O.3       1 RES1    0.0000
     12 C6         5.3489   14.8194    8.1797 C.ar      1 RES1    0.0000
     13 C7         4.6450   15.9382    8.5838 C.ar      1 RES1    0.0000
     14 H5         4.5892   16.1223    9.5022 H         1 RES1    0.0000
     15 C8         4.0443   16.7211    7.6283 C.ar      1 RES1    0.0000
     16 H6         3.5312   17.4954    7.8725 H         1 RES1    0.0000
     17 C9         4.1392   16.4019    6.2915 C.ar      1 RES1    0.0000
     18 H7         3.7355   16.9786    5.6073 H         1 RES1    0.0000
     19 C10        4.8332   15.2847    5.8924 C.ar      1 RES1    0.0000
     20 H8         4.9211   15.0706    4.9589 H         1 RES1    0.0000
     21 C11        5.4488   14.4594    6.8423 C.ar      1 RES1    0.0000
     22 C12        6.1287   13.2231    6.5303 C.2       1 RES1    0.0000
     23 O3         7.2286   12.3895    9.7934 O.2       1 RES1    0.0000
     24 O4         5.4260   10.7207    5.0727 O.3       1 RES1    0.0000
     25 C13        4.3430   10.9134    4.1434 C.3       1 RES1    0.0000
     26 H9         4.0234   11.9020    4.2633 H         1 RES1    0.0000
     27 H10        4.7491   10.8008    3.2664 H         1 RES1    0.0000
     28 C14        3.2738    9.9309    4.4576 C.3       1 RES1    0.0000
     29 H11        2.5428   10.0465    3.8463 H         1 RES1    0.0000
     30 H12        2.9645   10.0706    5.3559 H         1 RES1    0.0000
     31 H13        3.6232    9.0399    4.3747 H         1 RES1    0.0000
     32 C15        6.9115    9.9853    7.8968 C.ar      1 RES1    0.0000
     33 C16        5.5378    9.7982    8.0048 C.ar      1 RES1    0.0000
     34 H14        4.9503   10.4822    7.6140 H         1 RES1    0.0000
     35 C17        4.9964    8.7060    8.6559 C.ar      1 RES1    0.0000
     36 H15        4.0785    8.6193    8.6838 H         1 RES1    0.0000
     37 C18        5.8106    7.7652    9.2374 C.ar      1 RES1    0.0000
     38 H16        5.4624    6.9997    9.6478 H         1 RES1    0.0000
     39 C19        7.1715    7.9145    9.1701 C.ar      1 RES1    0.0000
     40 H17        7.7855    7.2776    9.5336 H         1 RES1    0.0000
     41 C20        7.6991    9.0076    8.5008 C.ar      1 RES1    0.0000
     42 N1         9.1626    9.1068    8.4875 N.pl3     1 RES1    0.0000
     43 O5         9.7331    9.5215    7.4990 O.2       1 RES1    0.0000
     44 O6         9.7592    8.7549    9.4964 O.2       1 RES1    0.0000
@<TRIPOS>BOND
     1    1    2 1
     2    2    3 1
     3    4    2 1
     4    5    4 1
     5    6    4 1
     6    7    8 1
     7    8    4 1
     8    9    8 1
     9   10    7 1
    10   11   10 1
    11   12   11 1
    12   13   12 ar
    13   14   13 1
    14   15   13 ar
    15   16   15 1
    16   17   15 ar
    17   18   17 1
    18   19   17 ar
    19   20   19 1
    20   21   12 ar
    21   22    1 1
    22   23   10 2
    23   24    2 1
    24   25   24 1
    25   26   25 1
    26   27   25 1
    27   28   25 1
    28   29   28 1
    29   30   28 1
    30   31   28 1
    31   32    8 1
    32   33   32 ar
    33   34   33 1
    34   35   33 ar
    35   36   35 1
    36   37   35 ar
    37   38   37 1
    38   39   37 ar
    39   40   39 1
    40   41   32 ar
    41   42   41 1
    42   43   42 2
    43   44   42 2
    44    7   22 2
    45   19   21 ar
    46   21   22 1
    47   39   41 ar
@<TRIPOS>SUBSTRUCTURE
     1 RES1 1

@<TRIPOS>CRYSIN
   8.2760   15.0240   14.4480  90.0000  98.6800  90.0000  14 1

