# MOL2 file generated by ConQuest
# Please check atom types

@<TRIPOS>MOLECULE
NUPJIR
    50    52     1
SMALL
NO_CHARGES
****
Generated from CSD

@<TRIPOS>ATOM
      1 O1        12.2414    0.4273    8.1894 O.2       1 RES1    0.0000
      2 O2        11.9464    2.5575    8.0976 O.2       1 RES1    0.0000
      3 O3        14.1064    3.8860    3.8707 O.2       1 RES1    0.0000
      4 O4        13.5613    2.8462    2.0703 O.2       1 RES1    0.0000
      5 O5         8.9685   -0.4987    3.7497 O.2       1 RES1    0.0000
      6 O6        10.6303   -1.1639    2.5587 O.2       1 RES1    0.0000
      7 C1         8.1846   -1.7981    7.8847 C.ar      1 RES1    0.0000
      8 C2         8.1662   -0.4438    7.8360 C.ar      1 RES1    0.0000
      9 C3         9.1140    0.2845    7.1348 C.ar      1 RES1    0.0000
     10 C4        10.0748   -0.3528    6.4071 C.ar      1 RES1    0.0000
     11 C5        11.2117   -2.4603    5.7949 C.ar      1 RES1    0.0000
     12 C6        11.4046   -3.7711    5.9619 C.ar      1 RES1    0.0000
     13 C7        10.6888   -4.4798    6.9316 C.ar      1 RES1    0.0000
     14 C8         9.7145   -3.8539    7.6913 C.ar      1 RES1    0.0000
     15 C9         9.3461   -2.4965    7.3657 C.ar      1 RES1    0.0000
     16 C10       10.2175   -1.7495    6.4906 C.ar      1 RES1    0.0000
     17 C11        6.1918   -1.7785    9.3136 C.3       1 RES1    0.0000
     18 C12        6.5792   -3.6480    7.8179 C.3       1 RES1    0.0000
     19 C13        9.1270   -3.8363   10.0468 C.3       1 RES1    0.0000
     20 C14        9.2618   -5.9138    8.8656 C.3       1 RES1    0.0000
     21 C15       10.9902    0.4583    5.5695 C.ar      1 RES1    0.0000
     22 C16       11.8535    1.4029    6.1330 C.ar      1 RES1    0.0000
     23 C17       12.6534    2.2420    5.4193 C.ar      1 RES1    0.0000
     24 C18       12.6478    2.1292    4.0516 C.ar      1 RES1    0.0000
     25 C19       11.8602    1.2208    3.3976 C.ar      1 RES1    0.0000
     26 C20       11.0362    0.4304    4.1754 C.ar      1 RES1    0.0000
     27 N1         7.1370   -2.4965    8.4649 N.pl3     1 RES1    0.0000
     28 N2         9.1173   -4.5088    8.7515 N.3       1 RES1    0.0000
     29 N3        11.9972    1.4619    7.6078 N.pl3     1 RES1    0.0000
     30 N4        13.5143    3.0003    3.2766 N.pl3     1 RES1    0.0000
     31 N5        10.1413   -0.4997    3.4463 N.pl3     1 RES1    0.0000
     32 H1         6.7481   -1.1174    9.9620 H         1 RES1    0.0000
     33 H2         5.6152   -2.4727    9.6280 H         1 RES1    0.0000
     34 H3         5.3897   -1.2001    8.7793 H         1 RES1    0.0000
     35 H4         9.0143   -6.4042    7.8889 H         1 RES1    0.0000
     36 H5         8.4892   -6.2490    9.3637 H         1 RES1    0.0000
     37 H6        10.2051   -6.2800    9.0993 H         1 RES1    0.0000
     38 H7         7.4787    0.0207    8.1393 H         1 RES1    0.0000
     39 H8         9.0827    1.2188    7.1654 H         1 RES1    0.0000
     40 H9        11.7192   -1.9347    5.3010 H         1 RES1    0.0000
     41 H10       12.1478   -4.2729    5.4679 H         1 RES1    0.0000
     42 H11       10.9070   -5.4937    7.1097 H         1 RES1    0.0000
     43 H12       13.0326    2.9383    5.8019 H         1 RES1    0.0000
     44 H13       11.8488    1.2001    2.4905 H         1 RES1    0.0000
     45 H14        6.2443   -4.4695    8.4176 H         1 RES1    0.0000
     46 H15        5.6625   -3.5073    7.5410 H         1 RES1    0.0000
     47 H16        7.2405   -4.1384    7.2767 H         1 RES1    0.0000
     48 H17        9.1144   -2.7313   10.0315 H         1 RES1    0.0000
     49 H18        8.3828   -4.1591   10.4072 H         1 RES1    0.0000
     50 H19        9.9103   -4.1798   10.6298 H         1 RES1    0.0000
@<TRIPOS>BOND
     1    1   29 2
     2    2   29 2
     3    3   30 2
     4    4   30 2
     5    5   31 2
     6    6   31 2
     7    7    8 ar
     8    8    9 ar
     9    9   10 ar
    10   10   16 ar
    11   11   12 ar
    12   12   13 ar
    13   13   14 ar
    14   14   15 ar
    15   15    7 ar
    16   16   11 ar
    17   17   27 1
    18   18   27 1
    19   19   28 1
    20   20   28 1
    21   21   10 1
    22   22   21 ar
    23   23   22 ar
    24   24   23 ar
    25   25   24 ar
    26   26   21 ar
    27   27    7 1
    28   28   14 1
    29   29   22 1
    30   30   24 1
    31   31   26 1
    32   32   17 1
    33   33   17 1
    34   34   17 1
    35   35   20 1
    36   36   20 1
    37   37   20 1
    38   38    8 1
    39   39    9 1
    40   40   11 1
    41   41   12 1
    42   42   13 1
    43   43   23 1
    44   44   25 1
    45   45   18 1
    46   46   18 1
    47   47   18 1
    48   48   19 1
    49   49   19 1
    50   50   19 1
    51   15   16 ar
    52   25   26 ar
@<TRIPOS>SUBSTRUCTURE
     1 RES1 1

@<TRIPOS>CRYSIN
  13.7880   10.3460   13.9530  90.0000  94.3200  90.0000 231 1

