# MOL2 file generated by ConQuest
# Please check atom types

@<TRIPOS>MOLECULE
NUPJAJ
    30    31     1
SMALL
NO_CHARGES
****
Generated from CSD

@<TRIPOS>ATOM
      1 O1         4.1974    2.5784    2.8921 O.2       1 RES1    0.0000
      2 O2         4.7587    2.5635    0.8348 O.2       1 RES1    0.0000
      3 O3         2.3808    4.5641    2.0408 O.3       1 RES1    0.0000
      4 N1         4.5470    3.1388    1.8710 N.pl3     1 RES1    0.0000
      5 C1         4.6924    4.5889    1.8969 C.ar      1 RES1    0.0000
      6 C2         3.5162    5.2960    1.9660 C.ar      1 RES1    0.0000
      7 C3         3.5527    6.7051    1.9538 C.ar      1 RES1    0.0000
      8 C4         4.7408    7.3338    1.8789 C.ar      1 RES1    0.0000
      9 C5         5.9663    5.2115    1.7990 C.ar      1 RES1    0.0000
     10 C6         5.9663    6.6392    1.7990 C.ar      1 RES1    0.0000
     11 C7         1.1327    5.2388    1.9106 C.3       1 RES1    0.0000
     12 H1         2.7304    7.2319    2.0293 H         1 RES1    0.0000
     13 H2         4.7907    8.2633    1.7990 H         1 RES1    0.0000
     14 H3         0.4776    4.6473    1.9286 H         1 RES1    0.0000
     15 H4         0.9756    5.8029    2.6410 H         1 RES1    0.0000
     16 H5         1.0800    5.7781    1.0794 H         1 RES1    0.0000
     17 C4A        7.1917    7.3338    1.7192 C.ar      1 RES1    0.0000
     18 C3A        8.3799    6.7051    1.6443 C.ar      1 RES1    0.0000
     19 C2A        8.4163    5.2960    1.6321 C.ar      1 RES1    0.0000
     20 O3A        9.5518    4.5641    1.5573 O.3       1 RES1    0.0000
     21 C7A       10.7998    5.2388    1.6875 C.3       1 RES1    0.0000
     22 H3A       11.4550    4.6473    1.6695 H         1 RES1    0.0000
     23 H4A       10.9570    5.8029    0.9571 H         1 RES1    0.0000
     24 H5A       10.8525    5.7781    2.5187 H         1 RES1    0.0000
     25 C1A        7.2402    4.5889    1.7012 C.ar      1 RES1    0.0000
     26 N1A        7.3855    3.1388    1.7271 N.pl3     1 RES1    0.0000
     27 O1A        7.7352    2.5784    0.7059 O.2       1 RES1    0.0000
     28 O2A        7.1739    2.5635    2.7633 O.2       1 RES1    0.0000
     29 H1A        9.2021    7.2319    1.5688 H         1 RES1    0.0000
     30 H2A        7.1418    8.2633    1.7990 H         1 RES1    0.0000
@<TRIPOS>BOND
     1    1    4 2
     2    2    4 2
     3    3    6 1
     4    4    5 1
     5    5    6 ar
     6    6    7 ar
     7    7    8 ar
     8    8   10 ar
     9    9    5 ar
    10   10    9 ar
    11   11    3 1
    12   12    7 1
    13   13    8 1
    14   14   11 1
    15   15   11 1
    16   16   11 1
    17   17   10 ar
    18   18   17 ar
    19   19   18 ar
    20   20   19 1
    21   21   20 1
    22   22   21 1
    23   23   21 1
    24   24   21 1
    25   25    9 ar
    26   26   25 1
    27   27   26 2
    28   28   26 2
    29   29   18 1
    30   30   17 1
    31   19   25 ar
@<TRIPOS>SUBSTRUCTURE
     1 RES1 1

@<TRIPOS>CRYSIN
  13.5120   12.4260    7.8590  90.0000 113.7000  90.0000  15 1

