# MOL2 file generated by ConQuest
# Please check atom types

@<TRIPOS>MOLECULE
NUPMES
    26    27     1
SMALL
NO_CHARGES
****
Generated from CSD

@<TRIPOS>ATOM
      1 O1         4.2586    2.8368    1.6534 O.2       1 RES1    0.0000
      2 O2         3.1705    4.6496    1.9626 O.2       1 RES1    0.0000
      3 N1         2.7443    3.2016   10.9904 N.ar      1 RES1    0.0000
      4 N2         2.6844    1.9885    7.6625 N.2       1 RES1    0.0000
      5 N3         3.6293    3.5983    2.3668 N.pl3     1 RES1    0.0000
      6 C1         2.3968    2.8520   12.2253 C.ar      1 RES1    0.0000
      7 H1         2.5766    3.4507   12.9142 H         1 RES1    0.0000
      8 C2         1.7888    1.6629   12.5465 C.ar      1 RES1    0.0000
      9 H2         1.5671    1.4661   13.4280 H         1 RES1    0.0000
     10 C3         1.5164    0.7774   11.5467 C.ar      1 RES1    0.0000
     11 H3         1.1064   -0.0366   11.7354 H         1 RES1    0.0000
     12 C4         1.8587    1.1056   10.2525 C.ar      1 RES1    0.0000
     13 H4         1.6813    0.5206    9.5507 H         1 RES1    0.0000
     14 C5         2.4693    2.3203   10.0194 C.ar      1 RES1    0.0000
     15 C6         2.8612    2.7388    8.6611 C.2       1 RES1    0.0000
     16 H5         3.2481    3.5747    8.5381 H         1 RES1    0.0000
     17 C7         2.9766    2.4612    6.3629 C.ar      1 RES1    0.0000
     18 C8         3.5969    1.5926    5.4750 C.ar      1 RES1    0.0000
     19 H6         3.8574    0.7463    5.7621 H         1 RES1    0.0000
     20 C9         3.8289    1.9726    4.1769 C.ar      1 RES1    0.0000
     21 H7         4.2617    1.3990    3.5870 H         1 RES1    0.0000
     22 C10        3.4110    3.2158    3.7602 C.ar      1 RES1    0.0000
     23 C11        2.7854    4.1028    4.6129 C.ar      1 RES1    0.0000
     24 H8         2.5064    4.9371    4.3106 H         1 RES1    0.0000
     25 C12        2.5849    3.7230    5.9204 C.ar      1 RES1    0.0000
     26 H9         2.1832    4.3149    6.5143 H         1 RES1    0.0000
@<TRIPOS>BOND
     1    1    5 2
     2    2    5 2
     3    3    6 ar
     4    4   15 2
     5    5   22 1
     6    6    7 1
     7    8    6 ar
     8    9    8 1
     9   10    8 ar
    10   11   10 1
    11   12   10 ar
    12   13   12 1
    13   14    3 ar
    14   15   14 1
    15   16   15 1
    16   17    4 1
    17   18   17 ar
    18   19   18 1
    19   20   18 ar
    20   21   20 1
    21   22   20 ar
    22   23   22 ar
    23   24   23 1
    24   25   17 ar
    25   26   25 1
    26   12   14 ar
    27   23   25 ar
@<TRIPOS>SUBSTRUCTURE
     1 RES1 1

@<TRIPOS>CRYSIN
   3.8573   20.3340   13.6290  90.0000  90.5700  90.0000 231 1

