# MOL2 file generated by ConQuest
# Please check atom types

@<TRIPOS>MOLECULE
NUQFIP
    34    35     1
SMALL
NO_CHARGES
****
Generated from CSD

@<TRIPOS>ATOM
      1 O1         0.8410   -0.2710    9.8391 O.2       1 RES1    0.0000
      2 O2         0.5232    1.8314   10.1984 O.2       1 RES1    0.0000
      3 O3         3.9164    4.8657    9.2106 O.2       1 RES1    0.0000
      4 O4         2.8004    7.2988    7.5628 O.2       1 RES1    0.0000
      5 N1         1.9825    3.6568    8.9692 N.am      1 RES1    0.0000
      6 H1         1.2132    3.6198    9.2746 H         1 RES1    0.0000
      7 N2         1.9020    5.8365    9.6289 N.am      1 RES1    0.0000
      8 H2         1.1082    5.8127    9.4926 H         1 RES1    0.0000
      9 N3         2.5012    7.0743    9.7848 N.am      1 RES1    0.0000
     10 H3         2.4852    7.3583   10.6321 H         1 RES1    0.0000
     11 N4         1.1033    0.9072    9.6247 N.pl3     1 RES1    0.0000
     12 C1         2.5477    2.5282    8.3759 C.ar      1 RES1    0.0000
     13 C2         2.1460    1.2105    8.6553 C.ar      1 RES1    0.0000
     14 C3         2.7350    0.1151    8.0211 C.ar      1 RES1    0.0000
     15 H4         2.4478   -0.7645    8.2342 H         1 RES1    0.0000
     16 C4         3.7285    0.3039    7.0907 C.ar      1 RES1    0.0000
     17 H5         4.1449   -0.4401    6.6726 H         1 RES1    0.0000
     18 C5         4.1150    1.6026    6.7697 C.ar      1 RES1    0.0000
     19 H6         4.7827    1.7423    6.1087 H         1 RES1    0.0000
     20 C6         3.5438    2.6869    7.3969 C.ar      1 RES1    0.0000
     21 H7         3.8297    3.5627    7.1630 H         1 RES1    0.0000
     22 C7         2.6921    4.7984    9.2478 C.2       1 RES1    0.0000
     23 C8         2.9850    7.7171    8.7038 C.2       1 RES1    0.0000
     24 C9         3.7933    8.9482    8.9922 C.ar      1 RES1    0.0000
     25 C10        4.4503    9.1284   10.2040 C.ar      1 RES1    0.0000
     26 H8         4.3606    8.4833   10.8957 H         1 RES1    0.0000
     27 C11        5.2406   10.2573   10.3982 C.ar      1 RES1    0.0000
     28 H9         5.6925   10.3788   11.2246 H         1 RES1    0.0000
     29 C12        5.3736   11.1956    9.4064 C.ar      1 RES1    0.0000
     30 H10        5.9166   11.9619    9.5481 H         1 RES1    0.0000
     31 C13        4.7143   11.0247    8.1975 C.ar      1 RES1    0.0000
     32 H11        4.7968   11.6796    7.5138 H         1 RES1    0.0000
     33 C14        3.9347    9.8973    7.9904 C.ar      1 RES1    0.0000
     34 H12        3.4947    9.7735    7.1581 H         1 RES1    0.0000
@<TRIPOS>BOND
     1    1   11 2
     2    2   11 2
     3    3   22 2
     4    4   23 2
     5    5    6 1
     6    7    8 1
     7    9    7 1
     8   10    9 1
     9   11   13 1
    10   12    5 1
    11   13   12 ar
    12   14   13 ar
    13   15   14 1
    14   16   14 ar
    15   17   16 1
    16   18   16 ar
    17   19   18 1
    18   20   12 ar
    19   21   20 1
    20   22    5 1
    21   23    9 1
    22   24   23 1
    23   25   24 ar
    24   26   25 1
    25   27   25 ar
    26   28   27 1
    27   29   27 ar
    28   30   29 1
    29   31   29 ar
    30   32   31 1
    31   33   24 ar
    32   34   33 1
    33    7   22 1
    34   18   20 ar
    35   31   33 ar
@<TRIPOS>SUBSTRUCTURE
     1 RES1 1

@<TRIPOS>CRYSIN
   4.6550   15.0200   10.0050  90.0000  97.9540  90.0000   7 1

