# MOL2 file generated by ConQuest
# Please check atom types

@<TRIPOS>MOLECULE
NUQPOF
    34    36     1
SMALL
NO_CHARGES
****
Generated from CSD

@<TRIPOS>ATOM
      1 O1         5.2028    1.8284    4.4142 O.3       1 RES1    0.0000
      2 H1         4.8991    1.5492    3.6841 H         1 RES1    0.0000
      3 O2         3.9301    1.9581    2.1753 O.2       1 RES1    0.0000
      4 O3         2.6940    1.9923   -0.0845 O.3       1 RES1    0.0000
      5 H2         3.1161    1.6753    0.5697 H         1 RES1    0.0000
      6 O4         1.8161    2.5499   -2.5266 O.2       1 RES1    0.0000
      7 O5         0.0982    3.8127   -2.2608 O.2       1 RES1    0.0000
      8 O6         0.9614    7.8847    0.8726 O.2       1 RES1    0.0000
      9 O7         2.9697    8.2018    0.2060 O.2       1 RES1    0.0000
     10 O8         3.2746    7.1867    2.8010 O.2       1 RES1    0.0000
     11 O9         4.7744    7.9505    5.4198 O.2       1 RES1    0.0000
     12 O10        5.9104    7.9577    3.6091 O.2       1 RES1    0.0000
     13 O11        7.6435    3.6055    6.7633 O.2       1 RES1    0.0000
     14 O12        6.0783    2.1797    6.9200 O.2       1 RES1    0.0000
     15 N1         1.2045    3.4146   -1.9512 N.pl3     1 RES1    0.0000
     16 N2         2.0529    7.4974    0.5298 N.pl3     1 RES1    0.0000
     17 N3         5.3038    7.4020    4.4883 N.pl3     1 RES1    0.0000
     18 N4         6.5926    3.1470    6.4319 N.pl3     1 RES1    0.0000
     19 C1         5.1833    3.1452    4.3791 C.ar      1 RES1    0.0000
     20 C2         4.5113    3.8910    3.3764 C.ar      1 RES1    0.0000
     21 C3         3.8574    3.1849    2.2598 C.2       1 RES1    0.0000
     22 C4         3.1348    3.9631    1.2391 C.ar      1 RES1    0.0000
     23 C5         2.5823    3.2867    0.1291 C.ar      1 RES1    0.0000
     24 C6         1.8379    4.0622   -0.7881 C.ar      1 RES1    0.0000
     25 C7         1.6382    5.4024   -0.6267 C.ar      1 RES1    0.0000
     26 H3         1.1001    5.8834   -1.2296 H         1 RES1    0.0000
     27 C8         2.2432    6.0383    0.4425 C.ar      1 RES1    0.0000
     28 C9         2.9871    5.3448    1.3739 C.ar      1 RES1    0.0000
     29 C10        3.5899    6.0590    2.5380 C.2       1 RES1    0.0000
     30 C11        4.4966    5.2853    3.4334 C.ar      1 RES1    0.0000
     31 C12        5.2191    5.9311    4.4285 C.ar      1 RES1    0.0000
     32 C13        5.9010    5.2304    5.3979 C.ar      1 RES1    0.0000
     33 H4         6.3879    5.6825    6.0635 H         1 RES1    0.0000
     34 C14        5.8555    3.8676    5.3732 C.ar      1 RES1    0.0000
@<TRIPOS>BOND
     1    1    2 1
     2    3   21 2
     3    4    5 1
     4    6   15 2
     5    7   15 2
     6    8   16 2
     7    9   16 2
     8   10   29 2
     9   11   17 2
    10   12   17 2
    11   13   18 2
    12   14   18 2
    13   15   24 1
    14   16   27 1
    15   17   31 1
    16   18   34 1
    17   19    1 1
    18   20   19 ar
    19   21   20 1
    20   22   21 1
    21   23    4 1
    22   24   23 ar
    23   25   24 ar
    24   26   25 1
    25   27   25 ar
    26   28   22 ar
    27   29   28 1
    28   30   20 ar
    29   31   30 ar
    30   32   31 ar
    31   33   32 1
    32   34   19 ar
    33   22   23 ar
    34   27   28 ar
    35   29   30 1
    36   32   34 ar
@<TRIPOS>SUBSTRUCTURE
     1 RES1 1

@<TRIPOS>CRYSIN
  17.7260    9.0070    9.7310  90.0000 102.6430  90.0000  14 1

