# MOL2 file generated by ConQuest
# Please check atom types

@<TRIPOS>MOLECULE
NUQRUN
    38    40     1
SMALL
NO_CHARGES
****
Generated from CSD

@<TRIPOS>ATOM
      1 N1         6.4736    6.3017    1.1385 N.2       1 RES1    0.0000
      2 N2         6.6663    7.1574    0.0682 N.am      1 RES1    0.0000
      3 N3         6.5789   11.2185    0.1894 N.pl3     1 RES1    0.0000
      4 O1         5.6535    5.8607    3.5534 O.3       1 RES1    0.0000
      5 H1         5.9595    6.2990    2.9319 H         1 RES1    0.0000
      6 O2         7.8389    8.6312    1.3256 O.2       1 RES1    0.0000
      7 O3         5.9370   10.5723    0.9885 O.2       1 RES1    0.0000
      8 O4         6.8039   12.4176    0.3049 O.2       1 RES1    0.0000
      9 C1         5.7475    4.1524    1.8724 C.ar      1 RES1    0.0000
     10 C2         5.4778    4.5802    3.1579 C.ar      1 RES1    0.0000
     11 C3         4.9740    3.6995    4.1321 C.ar      1 RES1    0.0000
     12 H2         4.7737    4.0114    4.9850 H         1 RES1    0.0000
     13 C4         4.7823    2.3981    3.8229 C.ar      1 RES1    0.0000
     14 H3         4.4484    1.8255    4.4736 H         1 RES1    0.0000
     15 C5         5.0738    1.8827    2.5402 C.ar      1 RES1    0.0000
     16 C6         4.8646    0.5282    2.2267 C.ar      1 RES1    0.0000
     17 H4         4.5312   -0.0465    2.8781 H         1 RES1    0.0000
     18 C7         5.1414    0.0445    0.9857 C.ar      1 RES1    0.0000
     19 H5         4.9976   -0.8546    0.7898 H         1 RES1    0.0000
     20 C8         5.6395    0.9005    0.0158 C.ar      1 RES1    0.0000
     21 H6         5.8371    0.5668   -0.8293 H         1 RES1    0.0000
     22 C9         5.8461    2.2202    0.2748 C.ar      1 RES1    0.0000
     23 H7         6.1766    2.7731   -0.3967 H         1 RES1    0.0000
     24 C10        5.5671    2.7638    1.5459 C.ar      1 RES1    0.0000
     25 C11        6.1200    5.1061    0.8465 C.2       1 RES1    0.0000
     26 H8         6.1023    4.8427   -0.0452 H         1 RES1    0.0000
     27 C12        7.3090    8.3175    0.2626 C.2       1 RES1    0.0000
     28 C13        7.3864    9.1721   -0.9706 C.ar      1 RES1    0.0000
     29 C14        7.1091   10.5325   -0.9950 C.ar      1 RES1    0.0000
     30 C15        7.2710   11.2941   -2.1285 C.ar      1 RES1    0.0000
     31 H9         7.0911   12.2057   -2.1141 H         1 RES1    0.0000
     32 C16        7.7030   10.6863   -3.2849 C.ar      1 RES1    0.0000
     33 H10        7.8079   11.1883   -4.0603 H         1 RES1    0.0000
     34 C17        7.9815    9.3451   -3.3014 C.ar      1 RES1    0.0000
     35 H11        8.2737    8.9413   -4.0862 H         1 RES1    0.0000
     36 C18        7.8280    8.5948   -2.1536 C.ar      1 RES1    0.0000
     37 H12        8.0243    7.6856   -2.1729 H         1 RES1    0.0000
     38 H13        6.3442    6.9124   -0.7353 H         1 RES1    0.0000
@<TRIPOS>BOND
     1    1    2 1
     2    2   27 1
     3    3    7 2
     4    4    5 1
     5    6   27 2
     6    8    3 2
     7    9   10 ar
     8   10    4 1
     9   11   10 ar
    10   12   11 1
    11   13   11 ar
    12   14   13 1
    13   15   13 ar
    14   16   15 ar
    15   17   16 1
    16   18   16 ar
    17   19   18 1
    18   20   18 ar
    19   21   20 1
    20   22   20 ar
    21   23   22 1
    22   24    9 ar
    23   25    1 2
    24   26   25 1
    25   27   28 1
    26   28   29 ar
    27   29    3 1
    28   30   29 ar
    29   31   30 1
    30   32   30 ar
    31   33   32 1
    32   34   32 ar
    33   35   34 1
    34   36   28 ar
    35   37   36 1
    36   38    2 1
    37    9   25 1
    38   15   24 ar
    39   22   24 ar
    40   34   36 ar
@<TRIPOS>SUBSTRUCTURE
     1 RES1 1

@<TRIPOS>CRYSIN
   7.4473   29.0680    7.8504  90.0000 113.9630  90.0000 231 1

