# MOL2 file generated by ConQuest
# Please check atom types

@<TRIPOS>MOLECULE
NUQZOP
    40    43     1
SMALL
NO_CHARGES
****
Generated from CSD

@<TRIPOS>ATOM
      1 O1         4.6413    5.1776   20.7314 O.3       1 RES1    0.0000
      2 O2         1.5842    6.6869   17.5986 O.2       1 RES1    0.0000
      3 O3         8.0550    5.5378   20.2851 O.2       1 RES1    0.0000
      4 O4         6.9148    4.8047   21.9792 O.2       1 RES1    0.0000
      5 N1         0.7595    4.8236   21.6685 N.pl3     1 RES1    0.0000
      6 N2         2.1123    4.8773   21.5236 N.2       1 RES1    0.0000
      7 N3         6.9962    5.2456   20.8456 N.pl3     1 RES1    0.0000
      8 C1        -1.2521    4.6059   17.8052 C.ar      1 RES1    0.0000
      9 C2        -2.4712    4.4134   17.1663 C.ar      1 RES1    0.0000
     10 C3        -3.0634    5.4521   16.4768 C.ar      1 RES1    0.0000
     11 C4        -2.4547    6.6986   16.4213 C.ar      1 RES1    0.0000
     12 C5        -1.2211    6.8890   17.0285 C.ar      1 RES1    0.0000
     13 C6        -0.6106    5.8413   17.7196 C.ar      1 RES1    0.0000
     14 C7         0.7626    6.0631   18.2643 C.2       1 RES1    0.0000
     15 C8         1.0636    5.5344   19.6053 C.2       1 RES1    0.0000
     16 C9         2.3066    5.3230   20.2800 C.2       1 RES1    0.0000
     17 C10        3.6691    5.5176   19.8203 C.2       1 RES1    0.0000
     18 C11        4.2401    5.9940   18.6793 C.2       1 RES1    0.0000
     19 C12        5.6369    5.9634   18.8672 C.2       1 RES1    0.0000
     20 C13        5.8116    5.4639   20.1051 C.2       1 RES1    0.0000
     21 C14        0.1117    5.1954   20.5407 C.2       1 RES1    0.0000
     22 C15        0.1902    4.3771   22.9004 C.ar      1 RES1    0.0000
     23 C16        1.0129    3.8519   23.8850 C.ar      1 RES1    0.0000
     24 C17        0.4417    3.3482   25.0465 C.ar      1 RES1    0.0000
     25 C18       -0.9295    3.3880   25.2381 C.ar      1 RES1    0.0000
     26 C19       -1.7306    3.9446   24.2588 C.ar      1 RES1    0.0000
     27 C20       -1.1876    4.4420   23.0829 C.ar      1 RES1    0.0000
     28 H1        -0.8302    3.8923   18.3110 H         1 RES1    0.0000
     29 H2        -2.8693    3.5226   17.2349 H         1 RES1    0.0000
     30 H3        -3.9083    5.2805   16.0003 H         1 RES1    0.0000
     31 H4        -2.8537    7.4708   15.9427 H         1 RES1    0.0000
     32 H5        -0.7617    7.7428   17.0023 H         1 RES1    0.0000
     33 H6         3.7557    6.2780   17.8748 H         1 RES1    0.0000
     34 H7         6.3618    6.2431   18.2925 H         1 RES1    0.0000
     35 H8        -0.8443    5.1688   20.5003 H         1 RES1    0.0000
     36 H9         1.9627    3.8295   23.7020 H         1 RES1    0.0000
     37 H10        0.9936    2.9646   25.7062 H         1 RES1    0.0000
     38 H11       -1.3396    3.0204   26.0251 H         1 RES1    0.0000
     39 H12       -2.6612    4.0109   24.3625 H         1 RES1    0.0000
     40 H13       -1.7638    4.7852   22.4345 H         1 RES1    0.0000
@<TRIPOS>BOND
     1    1   17 1
     2    2   14 2
     3    3    7 2
     4    4    7 2
     5    5    6 1
     6    6   16 2
     7    7   20 1
     8    8    9 ar
     9    9   10 ar
    10   10   11 ar
    11   11   12 ar
    12   12   13 ar
    13   13    8 ar
    14   14   13 1
    15   15   14 1
    16   16   15 1
    17   17   16 1
    18   18   17 2
    19   19   18 1
    20   20    1 1
    21   21    5 1
    22   22    5 1
    23   23   22 ar
    24   24   23 ar
    25   25   24 ar
    26   26   25 ar
    27   27   22 ar
    28   28    8 1
    29   29    9 1
    30   30   10 1
    31   31   11 1
    32   32   12 1
    33   33   18 1
    34   34   19 1
    35   35   21 1
    36   36   23 1
    37   37   24 1
    38   38   25 1
    39   39   26 1
    40   40   27 1
    41   15   21 2
    42   19   20 2
    43   26   27 ar
@<TRIPOS>SUBSTRUCTURE
     1 RES1 1

@<TRIPOS>CRYSIN
  11.2946    6.9755   22.7064  90.0000 115.0150  90.0000  14 1

