# MOL2 file generated by ConQuest
# Please check atom types

@<TRIPOS>MOLECULE
NUQZIJ01
    36    38     1
SMALL
USER_CHARGES
****
Generated from CSD

@<TRIPOS>ATOM
      1 N1         5.0945    5.2981    2.8483 N.pl3     1 RES1    1.0000
      2 O1         3.5567    4.9946    0.8852 O.2       1 RES1   -1.0000
      3 N2         8.1754    6.8467    6.3103 N.pl3     1 RES1    0.0000
      4 C1         6.7612    6.9304    2.3468 C.ar      1 RES1    0.0000
      5 C2         4.3866    4.4207    3.4842 C.2       1 RES1    0.0000
      6 C3         7.7797    7.7923    2.7691 C.ar      1 RES1    0.0000
      7 H1         8.1635    8.3840    2.1625 H         1 RES1    0.0000
      8 C4         7.6649    6.9065    4.9468 C.ar      1 RES1    0.0000
      9 C5         1.3410    2.2482    3.0306 C.ar      1 RES1    0.0000
     10 C6         6.1695    6.0754    3.2974 C.ar      1 RES1    0.0000
     11 C7         8.2191    7.7736    4.0723 C.ar      1 RES1    0.0000
     12 H2         8.8928    8.3531    4.3503 H         1 RES1    0.0000
     13 O2         8.9712    7.6955    6.6561 O.2       1 RES1    0.0000
     14 C8         3.2864    3.7767    2.9261 C.ar      1 RES1    0.0000
     15 C9         2.4912    2.8057    3.6510 C.ar      1 RES1    0.0000
     16 O3         7.7804    5.9674    7.0610 O.2       1 RES1    0.0000
     17 C10        2.8736    4.1480    1.5913 C.ar      1 RES1    0.0000
     18 N3         6.3114    6.9659    1.0706 N.3       1 RES1    0.0000
     19 C11        0.8938    0.9092    4.9878 C.ar      1 RES1    0.0000
     20 H3         0.3624    0.2956    5.4400 H         1 RES1    0.0000
     21 C12        0.9904    2.6668    1.7188 C.ar      1 RES1    0.0000
     22 H4         0.2353    2.3001    1.3172 H         1 RES1    0.0000
     23 C13        6.6325    6.0441    4.5958 C.ar      1 RES1    0.0000
     24 H5         6.2636    5.4618    5.2209 H         1 RES1    0.0000
     25 C14        2.8063    2.3638    4.9502 C.ar      1 RES1    0.0000
     26 H6         3.5580    2.7005    5.3810 H         1 RES1    0.0000
     27 C15        2.0213    1.4480    5.5860 C.ar      1 RES1    0.0000
     28 H7         2.2494    1.1777    6.4454 H         1 RES1    0.0000
     29 C16        0.5824    1.3021    3.7128 C.ar      1 RES1    0.0000
     30 H8        -0.1572    0.9260    3.2915 H         1 RES1    0.0000
     31 C17        1.7044    3.5667    1.0419 C.ar      1 RES1    0.0000
     32 H9         1.4297    3.8183    0.1882 H         1 RES1    0.0000
     33 H10        4.6281    4.2420    4.4065 H         1 RES1    0.0000
     34 H11        6.6827    7.4972    0.5055 H         1 RES1    0.0000
     35 H12        6.1468    6.1736    0.8145 H         1 RES1    0.0000
     36 H13        4.7177    5.3318    2.0783 H         1 RES1    0.0000
@<TRIPOS>BOND
     1    1    5 2
     2    2   17 1
     3    3    8 1
     4    4    6 ar
     5    5   14 1
     6    6    7 1
     7    8   11 ar
     8    9   15 ar
     9   10    1 1
    10   11    6 ar
    11   12   11 1
    12   13    3 2
    13   14   15 ar
    14   15   25 ar
    15   16    3 2
    16   17   14 ar
    17   18    4 1
    18   19   20 1
    19   21    9 ar
    20   22   21 1
    21   23    8 ar
    22   24   23 1
    23   25   26 1
    24   27   19 ar
    25   28   27 1
    26   29    9 ar
    27   30   29 1
    28   31   17 ar
    29   32   31 1
    30   33    5 1
    31   34   18 1
    32   35   18 1
    33   36    1 1
    34    4   10 ar
    35   10   23 ar
    36   19   29 ar
    37   21   31 ar
    38   25   27 ar
@<TRIPOS>SUBSTRUCTURE
     1 RES1 1

@<TRIPOS>CRYSIN
  10.4140    4.6770   28.4000  90.0000  98.5460  90.0000 231 1

