# MOL2 file generated by ConQuest
# Please check atom types

@<TRIPOS>MOLECULE
NUQZIJ02
    36    38     1
SMALL
NO_CHARGES
****
Generated from CSD

@<TRIPOS>ATOM
      1 C1         6.1815    6.0791    3.3046 C.ar      1 RES1    0.0000
      2 C2         4.3958    4.4164    3.4932 C.2       1 RES1    0.0000
      3 H1         4.6409    4.2031    4.3658 H         1 RES1    0.0000
      4 C3         3.2832    3.7723    2.9303 C.ar      1 RES1    0.0000
      5 C4         1.3476    2.2455    3.0400 C.ar      1 RES1    0.0000
      6 C5         2.4872    2.7996    3.6593 C.ar      1 RES1    0.0000
      7 C6         2.8789    4.1510    1.5904 C.ar      1 RES1    0.0000
      8 C7         2.0288    1.4377    5.6015 C.ar      1 RES1    0.0000
      9 H2         2.2589    1.1668    6.4629 H         1 RES1    0.0000
     10 C8         7.6810    6.9103    4.9654 C.ar      1 RES1    0.0000
     11 C9         6.7792    6.9478    2.3448 C.ar      1 RES1    0.0000
     12 C10        2.8061    2.3636    4.9569 C.ar      1 RES1    0.0000
     13 H3         3.5574    2.7086    5.3820 H         1 RES1    0.0000
     14 C11        7.8033    7.8061    2.7726 C.ar      1 RES1    0.0000
     15 H4         8.1942    8.3954    2.1674 H         1 RES1    0.0000
     16 C12        0.9908    2.6580    1.7311 C.ar      1 RES1    0.0000
     17 H5         0.2352    2.2895    1.3342 H         1 RES1    0.0000
     18 C13        0.5820    1.2901    3.7325 C.ar      1 RES1    0.0000
     19 H6        -0.1627    0.9183    3.3187 H         1 RES1    0.0000
     20 C14        6.6471    6.0515    4.6107 C.ar      1 RES1    0.0000
     21 H7         6.2753    5.4711    5.2356 H         1 RES1    0.0000
     22 C15        1.7075    3.5721    1.0443 C.ar      1 RES1    0.0000
     23 H8         1.4278    3.8290    0.1942 H         1 RES1    0.0000
     24 C16        0.8989    0.8968    4.9935 C.ar      1 RES1    0.0000
     25 H9         0.3704    0.2766    5.4439 H         1 RES1    0.0000
     26 C17        8.2366    7.7827    4.0787 C.ar      1 RES1    0.0000
     27 H10        8.9075    8.3630    4.3574 H         1 RES1    0.0000
     28 N1         5.0994    5.3010    2.8458 N.2       1 RES1    0.0000
     29 N2         8.1880    6.8611    6.3306 N.pl3     1 RES1    0.0000
     30 N3         6.3404    6.9731    1.0612 N.3       1 RES1    0.0000
     31 H11        6.6907    7.5202    0.4982 H         1 RES1    0.0000
     32 H12        5.7113    6.4424    0.8107 H         1 RES1    0.0000
     33 O1         3.5596    5.0009    0.9005 O.3       1 RES1    0.0000
     34 H13        3.7430    4.6756    0.1689 H         1 RES1    0.0000
     35 O2         7.8044    5.9680    7.0765 O.2       1 RES1    0.0000
     36 O3         8.9931    7.7044    6.6881 O.2       1 RES1    0.0000
@<TRIPOS>BOND
     1    1   11 ar
     2    2    3 1
     3    4    2 1
     4    5    6 ar
     5    6    4 ar
     6    7    4 ar
     7    8    9 1
     8   10   20 ar
     9   11   14 ar
    10   12    6 ar
    11   13   12 1
    12   14   15 1
    13   16    5 ar
    14   17   16 1
    15   18    5 ar
    16   19   18 1
    17   20    1 ar
    18   21   20 1
    19   22    7 ar
    20   23   22 1
    21   24    8 ar
    22   25   24 1
    23   26   10 ar
    24   27   26 1
    25   28    1 1
    26   29   10 1
    27   30   11 1
    28   31   30 1
    29   32   30 1
    30   33    7 1
    31   34   33 1
    32   35   29 2
    33   36   29 2
    34    2   28 2
    35    8   12 ar
    36   14   26 ar
    37   16   22 ar
    38   18   24 ar
@<TRIPOS>SUBSTRUCTURE
     1 RES1 1

@<TRIPOS>CRYSIN
  10.4260    4.6878   28.4550  90.0000  98.4180  90.0000 231 1

