# MOL2 file generated by ConQuest
# Please check atom types

@<TRIPOS>MOLECULE
NURBIM
    37    39     1
SMALL
NO_CHARGES
****
Generated from CSD

@<TRIPOS>ATOM
      1 O1        -1.4158    5.7940    5.4371 O.2       1 RES1    0.0000
      2 O2        -7.2441    9.3787   11.7234 O.2       1 RES1    0.0000
      3 O3        -5.1146    9.3179   12.1103 O.2       1 RES1    0.0000
      4 N1        -5.5300    5.7272    6.9515 N.ar      1 RES1    0.0000
      5 N2        -6.0951    9.0164   11.4501 N.pl3     1 RES1    0.0000
      6 C1        -4.3325    5.4118    6.4895 C.ar      1 RES1    0.0000
      7 C2        -5.6005    6.5414    8.0523 C.ar      1 RES1    0.0000
      8 C3        -6.8993    6.8646    8.5298 C.ar      1 RES1    0.0000
      9 H1        -7.6465    6.5290    8.0889 H         1 RES1    0.0000
     10 C4        -7.0655    7.6617    9.6257 C.ar      1 RES1    0.0000
     11 H2        -7.9147    7.8660    9.9423 H         1 RES1    0.0000
     12 C5        -5.9179    8.1659   10.2620 C.ar      1 RES1    0.0000
     13 C6        -4.6417    7.9142    9.8301 C.ar      1 RES1    0.0000
     14 H3        -3.9112    8.2871   10.2681 H         1 RES1    0.0000
     15 C7        -4.4571    7.0744    8.7047 C.ar      1 RES1    0.0000
     16 C8        -3.1648    6.7302    8.1839 C.ar      1 RES1    0.0000
     17 C9        -3.1239    5.8935    7.0902 C.ar      1 RES1    0.0000
     18 C10       -1.9102    7.2911    8.7664 C.ar      1 RES1    0.0000
     19 C11       -1.5213    7.0410   10.0811 C.ar      1 RES1    0.0000
     20 H4        -2.0666    6.5290   10.6344 H         1 RES1    0.0000
     21 C12       -0.3227    7.5521   10.5746 C.ar      1 RES1    0.0000
     22 H5        -0.0713    7.3781   11.4531 H         1 RES1    0.0000
     23 C13        0.5004    8.3252    9.7528 C.ar      1 RES1    0.0000
     24 H6         1.3013    8.6639   10.0816 H         1 RES1    0.0000
     25 C14        0.1193    8.5854    8.4465 C.ar      1 RES1    0.0000
     26 H7         0.6640    9.1059    7.9009 H         1 RES1    0.0000
     27 C15       -1.0780    8.0711    7.9427 C.ar      1 RES1    0.0000
     28 H8        -1.3249    8.2444    7.0627 H         1 RES1    0.0000
     29 C16       -1.8144    5.4025    6.5147 C.2       1 RES1    0.0000
     30 C17       -1.1067    4.3591    7.3243 C.3       1 RES1    0.0000
     31 H9        -0.2375    4.1975    6.9485 H         1 RES1    0.0000
     32 H10       -1.6150    3.5457    7.3133 H         1 RES1    0.0000
     33 H11       -1.0113    4.6652    8.2296 H         1 RES1    0.0000
     34 C18       -4.2744    4.5168    5.2867 C.3       1 RES1    0.0000
     35 H12       -5.1648    4.2713    5.0269 H         1 RES1    0.0000
     36 H13       -3.7744    3.7260    5.5003 H         1 RES1    0.0000
     37 H14       -3.8465    4.9806    4.5632 H         1 RES1    0.0000
@<TRIPOS>BOND
     1    1   29 2
     2    2    5 2
     3    3    5 2
     4    4    6 ar
     5    5   12 1
     6    6   17 ar
     7    7    4 ar
     8    8    7 ar
     9    9    8 1
    10   10    8 ar
    11   11   10 1
    12   12   10 ar
    13   13   12 ar
    14   14   13 1
    15   15    7 ar
    16   16   15 ar
    17   17   16 ar
    18   18   16 1
    19   19   18 ar
    20   20   19 1
    21   21   19 ar
    22   22   21 1
    23   23   21 ar
    24   24   23 1
    25   25   23 ar
    26   26   25 1
    27   27   18 ar
    28   28   27 1
    29   29   17 1
    30   30   29 1
    31   31   30 1
    32   32   30 1
    33   33   30 1
    34   34    6 1
    35   35   34 1
    36   36   34 1
    37   37   34 1
    38   13   15 ar
    39   25   27 ar
@<TRIPOS>SUBSTRUCTURE
     1 RES1 1

@<TRIPOS>CRYSIN
  13.2970    7.7689   17.9430  90.0000 129.0990  90.0000  14 1

