# MOL2 file generated by ConQuest
# Please check atom types

@<TRIPOS>MOLECULE
NURMEU
    61    66     1
SMALL
NO_CHARGES
****
Generated from CSD

@<TRIPOS>ATOM
      1 C1         7.7074    5.6457    9.3054 C.ar      1 RES1    0.0000
      2 C2         8.9391    5.0717    9.0223 C.ar      1 RES1    0.0000
      3 H1         9.1427    4.7616    8.1477 H         1 RES1    0.0000
      4 C3         9.8564    4.9646   10.0406 C.ar      1 RES1    0.0000
      5 H2        10.7049    4.5718    9.8712 H         1 RES1    0.0000
      6 C4         9.5516    5.4289   11.3254 C.ar      1 RES1    0.0000
      7 C5         8.2827    5.9795   11.5783 C.ar      1 RES1    0.0000
      8 H3         8.0632    6.2815   12.4520 H         1 RES1    0.0000
      9 C6         7.3702    6.0802   10.5773 C.ar      1 RES1    0.0000
     10 H4         6.5097    6.4447   10.7469 H         1 RES1    0.0000
     11 C7        10.7362    6.3009   13.2896 C.ar      1 RES1    0.0000
     12 C8        11.4838    5.9584   14.4441 C.ar      1 RES1    0.0000
     13 C9        11.8345    6.9102   15.3527 C.ar      1 RES1    0.0000
     14 H5        12.3351    6.6562   16.1184 H         1 RES1    0.0000
     15 C10       11.4715    8.2708   15.1854 C.ar      1 RES1    0.0000
     16 C11       11.8523    9.2929   16.0916 C.ar      1 RES1    0.0000
     17 H6        12.3709    9.0718   16.8567 H         1 RES1    0.0000
     18 C12       11.4820   10.5948   15.8797 C.ar      1 RES1    0.0000
     19 H7        11.7488   11.2674   16.4961 H         1 RES1    0.0000
     20 C13       10.7165   10.9410   14.7653 C.ar      1 RES1    0.0000
     21 H8        10.4614   11.8465   14.6299 H         1 RES1    0.0000
     22 C14       10.3324    9.9882   13.8695 C.ar      1 RES1    0.0000
     23 H9         9.8132   10.2363   13.1137 H         1 RES1    0.0000
     24 C15       10.7009    8.6202   14.0530 C.ar      1 RES1    0.0000
     25 C16       10.3589    7.6209   13.1254 C.ar      1 RES1    0.0000
     26 H10        9.8506    7.8604   12.3595 H         1 RES1    0.0000
     27 C17       13.1797    4.2410   14.4944 C.2       1 RES1    0.0000
     28 H11       13.7811    4.9199   14.2112 H         1 RES1    0.0000
     29 C18       10.9053    3.5926   15.0878 C.3       1 RES1    0.0000
     30 H12       11.3619    2.7347   15.2771 H         1 RES1    0.0000
     31 H13       10.2504    3.4351   14.3618 H         1 RES1    0.0000
     32 C19       10.1717    4.0521   16.3310 C.ar      1 RES1    0.0000
     33 C20        8.8305    4.4831   16.2709 C.ar      1 RES1    0.0000
     34 C21        8.0954    4.5850   15.0562 C.ar      1 RES1    0.0000
     35 H14        8.5219    4.3804   14.2323 H         1 RES1    0.0000
     36 C22        6.7906    4.9708   15.0570 C.ar      1 RES1    0.0000
     37 H15        6.3226    5.0292   14.2323 H         1 RES1    0.0000
     38 C23        6.1136    5.2885   16.2654 C.ar      1 RES1    0.0000
     39 H16        5.1988    5.5434   16.2465 H         1 RES1    0.0000
     40 C24        6.7715    5.2278   17.4349 C.ar      1 RES1    0.0000
     41 H17        6.3142    5.4389   18.2408 H         1 RES1    0.0000
     42 C25        8.1417    4.8533   17.4860 C.ar      1 RES1    0.0000
     43 C26        8.8268    4.8409   18.6907 C.ar      1 RES1    0.0000
     44 H18        8.3742    5.0933   19.4863 H         1 RES1    0.0000
     45 C27       10.1642    4.4672   18.7558 C.ar      1 RES1    0.0000
     46 C28       10.8664    4.4855   19.9876 C.ar      1 RES1    0.0000
     47 H19       10.4217    4.7652   20.7793 H         1 RES1    0.0000
     48 C29       12.1591    4.1092   20.0465 C.ar      1 RES1    0.0000
     49 H20       12.6205    4.1409   20.8770 H         1 RES1    0.0000
     50 C30       12.8390    3.6654   18.8839 C.ar      1 RES1    0.0000
     51 H21       13.7469    3.3931   18.9461 H         1 RES1    0.0000
     52 C31       12.2087    3.6265   17.6886 C.ar      1 RES1    0.0000
     53 H22       12.6778    3.3193   16.9214 H         1 RES1    0.0000
     54 C32       10.8468    4.0403   17.5634 C.ar      1 RES1    0.0000
     55 N1         6.7333    5.8009    8.2451 N.pl3     1 RES1    0.0000
     56 N2        11.8988    4.5838   14.6394 N.am      1 RES1    0.0000
     57 N3        10.4774    5.2914   12.3453 N.pl3     1 RES1    0.0000
     58 H23       11.1591    4.7584   12.1958 H         1 RES1    0.0000
     59 O1         5.6628    6.3487    8.5246 O.2       1 RES1    0.0000
     60 O2         7.0167    5.4008    7.1182 O.2       1 RES1    0.0000
     61 O3        13.6536    3.1151   14.6971 O.2       1 RES1    0.0000
@<TRIPOS>BOND
     1    1    2 ar
     2    2    3 1
     3    4    2 ar
     4    5    4 1
     5    6    4 ar
     6    7    6 ar
     7    8    7 1
     8    9    1 ar
     9   10    9 1
    10   11   12 ar
    11   12   13 ar
    12   13   14 1
    13   15   13 ar
    14   16   15 ar
    15   17   16 1
    16   18   16 ar
    17   19   18 1
    18   20   18 ar
    19   21   20 1
    20   22   20 ar
    21   23   22 1
    22   24   15 ar
    23   25   11 ar
    24   26   25 1
    25   27   28 1
    26   29   30 1
    27   31   29 1
    28   32   29 1
    29   33   32 ar
    30   34   33 ar
    31   35   34 1
    32   36   34 ar
    33   37   36 1
    34   38   36 ar
    35   39   38 1
    36   40   38 ar
    37   41   40 1
    38   42   33 ar
    39   43   42 ar
    40   44   43 1
    41   45   43 ar
    42   46   45 ar
    43   47   46 1
    44   48   46 ar
    45   49   48 1
    46   50   48 ar
    47   51   50 1
    48   52   50 ar
    49   53   52 1
    50   54   32 ar
    51   55    1 1
    52   56   12 1
    53   57    6 1
    54   58   57 1
    55   59   55 2
    56   60   55 2
    57   61   27 2
    58    7    9 ar
    59   11   57 1
    60   22   24 ar
    61   24   25 ar
    62   27   56 1
    63   29   56 1
    64   40   42 ar
    65   45   54 ar
    66   52   54 ar
@<TRIPOS>SUBSTRUCTURE
     1 RES1 1

@<TRIPOS>CRYSIN
   9.8160   11.3810   13.4110  99.2250  92.0600 100.5850   2 1

