# MOL2 file generated by ConQuest
# Please check atom types

@<TRIPOS>MOLECULE
NURWIG
    30    31     1
SMALL
NO_CHARGES
****
Generated from CSD

@<TRIPOS>ATOM
      1 C1         1.4035    5.2170    2.9888 C.3       1 RES1    0.0000
      2 H1         1.2630    4.4040    2.4610 H         1 RES1    0.0000
      3 O1         1.8848    6.2601    2.1330 O.3       1 RES1    0.0000
      4 C2         0.9134    6.6286    1.1556 C.3       1 RES1    0.0000
      5 H2         0.6737    5.8473    0.6149 H         1 RES1    0.0000
      6 C3         1.4984    7.6851    0.2857 C.3       1 RES1    0.0000
      7 H3         2.2836    7.3435   -0.1486 H         1 RES1    0.0000
      8 H4         1.7338    8.4462    0.8212 H         1 RES1    0.0000
      9 H5         0.8546    7.9468   -0.3779 H         1 RES1    0.0000
     10 O2        -0.2301    7.1434    1.7794 O.3       1 RES1    0.0000
     11 C4        -0.8660    6.1610    2.5917 C.3       1 RES1    0.0000
     12 H6        -1.1734    5.4297    2.0331 H         1 RES1    0.0000
     13 H7        -1.6398    6.5526    3.0260 H         1 RES1    0.0000
     14 C5         0.0826    5.6308    3.6370 C.3       1 RES1    0.0000
     15 H8        -0.3197    4.8591    4.0867 H         1 RES1    0.0000
     16 O3         0.3092    6.6738    4.5838 O.3       1 RES1    0.0000
     17 C6         1.2375    6.2832    5.5702 C.3       1 RES1    0.0000
     18 H9         0.9161    5.4817    6.0340 H         1 RES1    0.0000
     19 C7         1.3974    7.4147    6.5503 C.3       1 RES1    0.0000
     20 H10        2.0271    7.1636    7.2305 H         1 RES1    0.0000
     21 H11        0.5498    7.6091    6.9564 H         1 RES1    0.0000
     22 H12        1.7180    8.1941    6.0903 H         1 RES1    0.0000
     23 O4         2.5049    6.0301    4.9860 O.3       1 RES1    0.0000
     24 C8         2.4584    4.9524    4.0444 C.3       1 RES1    0.0000
     25 H13        2.2344    4.1240    4.5184 H         1 RES1    0.0000
     26 C9         3.8382    4.8341    3.4859 C.2       1 RES1    0.0000
     27 H14        4.2527    5.5692    3.0964 H         1 RES1    0.0000
     28 N1         4.4275    3.7314    3.5486 N.2       1 RES1    0.0000
     29 O5         5.6967    3.8276    2.9657 O.3       1 RES1    0.0000
     30 H15        5.8635    3.0290    3.0759 H         1 RES1    0.0000
@<TRIPOS>BOND
     1    1    2 1
     2    3    1 1
     3    4    3 1
     4    5    4 1
     5    6    4 1
     6    7    6 1
     7    8    6 1
     8    9    6 1
     9   10    4 1
    10   11   10 1
    11   12   11 1
    12   13   11 1
    13   14    1 1
    14   15   14 1
    15   16   14 1
    16   17   16 1
    17   18   17 1
    18   19   17 1
    19   20   19 1
    20   21   19 1
    21   22   19 1
    22   23   17 1
    23   24    1 1
    24   25   24 1
    25   26   24 1
    26   27   26 1
    27   28   26 2
    28   29   28 1
    29   30   29 1
    30   11   14 1
    31   23   24 1
@<TRIPOS>SUBSTRUCTURE
     1 RES1 1

@<TRIPOS>CRYSIN
   8.7830    9.6220   12.8110  90.0000  90.0000  90.0000  19 1

