# MOL2 file generated by ConQuest
# Please check atom types

@<TRIPOS>MOLECULE
NURWAY
    37    40     1
SMALL
NO_CHARGES
****
Generated from CSD

@<TRIPOS>ATOM
      1 C1         2.8210    6.3356    3.6010 C.3       1 RES1    0.0000
      2 H1         2.3177    7.0242    4.0833 H         1 RES1    0.0000
      3 O1         2.3429    5.0474    3.9785 O.3       1 RES1    0.0000
      4 C2         0.9693    4.8879    3.6086 C.3       1 RES1    0.0000
      5 H2         0.4367    5.6136    3.9963 H         1 RES1    0.0000
      6 C3         0.4871    3.5886    4.1211 C.3       1 RES1    0.0000
      7 H3         0.5666    3.5728    5.0781 H         1 RES1    0.0000
      8 H4         1.0148    2.8805    3.7448 H         1 RES1    0.0000
      9 H5        -0.4327    3.4681    3.8753 H         1 RES1    0.0000
     10 O2         0.8548    4.9130    2.2071 O.3       1 RES1    0.0000
     11 C4         1.2396    6.1669    1.6870 C.3       1 RES1    0.0000
     12 H6         0.6243    6.8463    2.0029 H         1 RES1    0.0000
     13 H7         1.1828    6.1410    0.7187 H         1 RES1    0.0000
     14 C5         2.6457    6.5423    2.0918 C.3       1 RES1    0.0000
     15 H8         2.8153    7.4802    1.8667 H         1 RES1    0.0000
     16 O3         3.5516    5.7026    1.3718 O.3       1 RES1    0.0000
     17 C6         4.8805    5.9213    1.7495 C.3       1 RES1    0.0000
     18 H9         5.1168    6.8592    1.5925 H         1 RES1    0.0000
     19 C7         5.7630    5.0372    0.9286 C.3       1 RES1    0.0000
     20 H10        6.6787    5.1790    1.1783 H         1 RES1    0.0000
     21 H11        5.6485    5.2457   -0.0019 H         1 RES1    0.0000
     22 H12        5.5275    4.1187    1.0818 H         1 RES1    0.0000
     23 O4         5.0827    5.6034    3.1206 O.3       1 RES1    0.0000
     24 C8         4.2920    6.4450    3.9528 C.3       1 RES1    0.0000
     25 H13        4.5696    7.3708    3.7883 H         1 RES1    0.0000
     26 C9         4.5680    6.1345    5.3959 C.2       1 RES1    0.0000
     27 C10        3.9437    6.9371    6.4985 C.3       1 RES1    0.0000
     28 H14        4.1036    7.8982    6.3926 H         1 RES1    0.0000
     29 O5         2.5409    6.6294    6.6517 O.3       1 RES1    0.0000
     30 C11        2.4638    5.9519    7.8413 C.2       1 RES1    0.0000
     31 H15        1.6618    5.6025    8.1553 H         1 RES1    0.0000
     32 C12        3.5695    5.8249    8.5033 C.2       1 RES1    0.0000
     33 H16        3.6499    5.4514    9.3506 H         1 RES1    0.0000
     34 C13        4.6670    6.3616    7.7089 C.3       1 RES1    0.0000
     35 H17        5.1720    7.0465    8.1950 H         1 RES1    0.0000
     36 O6         5.5413    5.3096    7.1718 O.3       1 RES1    0.0000
     37 N1         5.4009    5.2550    5.7590 N.2       1 RES1    0.0000
@<TRIPOS>BOND
     1    1    2 1
     2    3    1 1
     3    4    3 1
     4    5    4 1
     5    6    4 1
     6    7    6 1
     7    8    6 1
     8    9    6 1
     9   10    4 1
    10   11   10 1
    11   12   11 1
    12   13   11 1
    13   14    1 1
    14   15   14 1
    15   16   14 1
    16   17   16 1
    17   18   17 1
    18   19   17 1
    19   20   19 1
    20   21   19 1
    21   22   19 1
    22   23   17 1
    23   24    1 1
    24   25   24 1
    25   26   24 1
    26   27   26 1
    27   28   27 1
    28   29   27 1
    29   30   29 1
    30   31   30 1
    31   32   30 2
    32   33   32 1
    33   34   27 1
    34   35   34 1
    35   36   34 1
    36   37   26 2
    37   11   14 1
    38   23   24 1
    39   32   34 1
    40   36   37 1
@<TRIPOS>SUBSTRUCTURE
     1 RES1 1

@<TRIPOS>CRYSIN
   8.1180    9.2680   18.9130  90.0000  90.0000  90.0000  19 1

