# MOL2 file generated by ConQuest
# Please check atom types

@<TRIPOS>MOLECULE
NUTRUP
    44    45     1
SMALL
NO_CHARGES
****
Generated from CSD

@<TRIPOS>ATOM
      1 O1         1.3298    9.6735    5.5953 O.3       1 RES1    0.0000
      2 C1         2.3242   10.5695    6.1633 C.3       1 RES1    0.0000
      3 C2         3.3028   11.0099    5.0742 C.3       1 RES1    0.0000
      4 C3         4.0073    9.8031    4.4487 C.3       1 RES1    0.0000
      5 C4         3.2647    7.7287    3.1778 C.ar      1 RES1    0.0000
      6 H1         4.0962    7.7003    2.7613 H         1 RES1    0.0000
      7 C5         2.3094    6.7740    2.8673 C.ar      1 RES1    0.0000
      8 C6         1.0642    6.7790    3.4505 C.ar      1 RES1    0.0000
      9 H2         0.4348    6.1291    3.2369 H         1 RES1    0.0000
     10 C7         0.7754    7.7752    4.3593 C.ar      1 RES1    0.0000
     11 H3        -0.0645    7.8056    4.7592 H         1 RES1    0.0000
     12 C8         1.7328    8.7380    4.6865 C.ar      1 RES1    0.0000
     13 C9         2.9960    8.7208    4.0988 C.ar      1 RES1    0.0000
     14 N1         2.6342    5.7464    1.8646 N.pl3     1 RES1    0.0000
     15 O2         1.7836    4.9071    1.6116 O.2       1 RES1    0.0000
     16 O3         3.7429    5.7757    1.3238 O.2       1 RES1    0.0000
     17 N2         4.7690   10.2060    3.2702 N.am      1 RES1    0.0000
     18 C10        6.0036    9.7231    2.9961 C.2       1 RES1    0.0000
     19 C11        6.6150   10.2283    1.7192 C.3       1 RES1    0.0000
     20 H4         6.8869    9.4832    1.1769 H         1 RES1    0.0000
     21 H5         7.3810   10.7709    1.9237 H         1 RES1    0.0000
     22 H6         5.9697   10.7537    1.2405 H         1 RES1    0.0000
     23 O4         6.5748    8.9435    3.7459 O.2       1 RES1    0.0000
     24 O5         2.5770   11.6942    4.0488 O.3       1 RES1    0.0000
     25 C12        1.5424   11.7438    6.7238 C.3       1 RES1    0.0000
     26 H7         1.1658   12.2511    5.9997 H         1 RES1    0.0000
     27 H8         2.1306   12.3047    7.2357 H         1 RES1    0.0000
     28 H9         0.8379   11.4189    7.2872 H         1 RES1    0.0000
     29 C13        3.0267    9.7909    7.2963 C.3       1 RES1    0.0000
     30 O6         3.8719   10.7061    7.9189 O.3       1 RES1    0.0000
     31 C14        4.7373   10.1179    8.8883 C.3       1 RES1    0.0000
     32 H10        5.3128    9.4811    8.4581 H         1 RES1    0.0000
     33 H11        4.2126    9.6745    9.5578 H         1 RES1    0.0000
     34 H12        5.2694   10.8033    9.2987 H         1 RES1    0.0000
     35 O7         2.0798    9.2837    8.2263 O.3       1 RES1    0.0000
     36 C15        1.9085    7.8775    8.2036 C.3       1 RES1    0.0000
     37 H13        2.7675    7.4503    8.2142 H         1 RES1    0.0000
     38 H14        1.4356    7.6264    7.4069 H         1 RES1    0.0000
     39 H15        1.4049    7.6041    8.9731 H         1 RES1    0.0000
     40 H16        3.9470   11.5606    5.4666 H         1 RES1    0.0000
     41 H17        4.6294    9.4416    5.0500 H         1 RES1    0.0000
     42 H18        4.3099   10.6302    2.6765 H         1 RES1    0.0000
     43 H19        2.8468   12.4576    4.0094 H         1 RES1    0.0000
     44 H20        3.6000    9.0235    6.9176 H         1 RES1    0.0000
@<TRIPOS>BOND
     1    1    2 1
     2    2    3 1
     3    3    4 1
     4    4   13 1
     5    5    6 1
     6    7    5 ar
     7    8    7 ar
     8    9    8 1
     9   10    8 ar
    10   11   10 1
    11   12    1 1
    12   13    5 ar
    13   14    7 1
    14   15   14 2
    15   16   14 2
    16   17    4 1
    17   18   17 1
    18   19   18 1
    19   20   19 1
    20   21   19 1
    21   22   19 1
    22   23   18 2
    23   24    3 1
    24   25    2 1
    25   26   25 1
    26   27   25 1
    27   28   25 1
    28   29    2 1
    29   30   29 1
    30   31   30 1
    31   32   31 1
    32   33   31 1
    33   34   31 1
    34   35   29 1
    35   36   35 1
    36   37   36 1
    37   38   36 1
    38   39   36 1
    39   40    3 1
    40   41    4 1
    41   42   17 1
    42   43   24 1
    43   44   29 1
    44   10   12 ar
    45   12   13 ar
@<TRIPOS>SUBSTRUCTURE
     1 RES1 1

@<TRIPOS>CRYSIN
  10.5790   10.1240   15.1470  90.0000  90.0000  90.0000  19 1

