# MOL2 file generated by ConQuest
# Please check atom types

@<TRIPOS>MOLECULE
NUVKOE
    42    44     1
SMALL
NO_CHARGES
****
Generated from CSD

@<TRIPOS>ATOM
      1 N1         8.3256    3.5408    5.9244 N.3       1 RES1    0.0000
      2 O1         6.9725    4.0662    6.2627 O.3       1 RES1    0.0000
      3 C1         6.8335    3.6983    7.6220 C.3       1 RES1    0.0000
      4 C2         6.4887    2.2140    7.7850 C.2       1 RES1    0.0000
      5 O2         5.5346    1.6471    7.3034 O.2       1 RES1    0.0000
      6 N2         7.4508    1.6319    8.5792 N.am      1 RES1    0.0000
      7 C3         7.4115    0.2464    9.0479 C.3       1 RES1    0.0000
      8 C4         8.4609    2.5064    8.9454 C.2       1 RES1    0.0000
      9 O3         9.3745    2.2078    9.6622 O.2       1 RES1    0.0000
     10 C5         8.2047    3.8378    8.2681 C.3       1 RES1    0.0000
     11 C6         9.1244    4.0708    7.0691 C.3       1 RES1    0.0000
     12 C7         9.4449    5.5480    6.7558 C.3       1 RES1    0.0000
     13 C8         9.0184    5.7614    5.2983 C.3       1 RES1    0.0000
     14 C9         8.7852    4.3380    4.7563 C.3       1 RES1    0.0000
     15 C10        7.7364    4.3236    3.6254 C.3       1 RES1    0.0000
     16 O4         8.2514    5.0472    2.5070 O.3       1 RES1    0.0000
     17 C11        7.3909    2.9332    3.1701 C.3       1 RES1    0.0000
     18 O5         6.3035    3.0643    2.2225 O.3       1 RES1    0.0000
     19 C12        5.8819    1.9476    1.6361 C.2       1 RES1    0.0000
     20 O6         6.3590    0.8737    1.8385 O.2       1 RES1    0.0000
     21 C13        4.7477    2.2140    0.6931 C.3       1 RES1    0.0000
     22 C14       10.1034    3.7018    4.3035 C.3       1 RES1    0.0000
     23 H1         6.1731    4.2642    8.0736 H         1 RES1    0.0000
     24 H2         7.5512    0.2252    9.9982 H         1 RES1    0.0000
     25 H3         8.1024   -0.2582    8.6119 H         1 RES1    0.0000
     26 H4         6.5560   -0.1368    8.8412 H         1 RES1    0.0000
     27 H5         8.2358    4.5833    8.9034 H         1 RES1    0.0000
     28 H6         9.9531    3.5580    7.1718 H         1 RES1    0.0000
     29 H7         8.9498    6.1375    7.3462 H         1 RES1    0.0000
     30 H8        10.3927    5.7225    6.8635 H         1 RES1    0.0000
     31 H9         9.7155    6.2130    4.7967 H         1 RES1    0.0000
     32 H10        8.2053    6.2872    5.2493 H         1 RES1    0.0000
     33 H11        6.9214    4.7662    3.9422 H         1 RES1    0.0000
     34 H12        7.9702    5.8168    2.5269 H         1 RES1    0.0000
     35 H13        8.1579    2.5158    2.7488 H         1 RES1    0.0000
     36 H14        7.1172    2.3897    3.9250 H         1 RES1    0.0000
     37 H15        4.9391    1.8144   -0.1583 H         1 RES1    0.0000
     38 H16        4.6386    3.1619    0.5845 H         1 RES1    0.0000
     39 H17        3.9402    1.8368    1.0493 H         1 RES1    0.0000
     40 H18       10.3827    4.0991    3.4748 H         1 RES1    0.0000
     41 H19        9.9768    2.7575    4.1791 H         1 RES1    0.0000
     42 H20       10.7762    3.8480    4.9727 H         1 RES1    0.0000
@<TRIPOS>BOND
     1    1    2 1
     2    2    3 1
     3    3    4 1
     4    4    5 2
     5    6    4 1
     6    7    6 1
     7    8    6 1
     8    9    8 2
     9   10    3 1
    10   11    1 1
    11   12   11 1
    12   13   12 1
    13   14    1 1
    14   15   14 1
    15   16   15 1
    16   17   15 1
    17   18   17 1
    18   19   18 1
    19   20   19 2
    20   21   19 1
    21   22   14 1
    22   23    3 1
    23   24    7 1
    24   25    7 1
    25   26    7 1
    26   27   10 1
    27   28   11 1
    28   29   12 1
    29   30   12 1
    30   31   13 1
    31   32   13 1
    32   33   15 1
    33   34   16 1
    34   35   17 1
    35   36   17 1
    36   37   21 1
    37   38   21 1
    38   39   21 1
    39   40   22 1
    40   41   22 1
    41   42   22 1
    42    8   10 1
    43   10   11 1
    44   13   14 1
@<TRIPOS>SUBSTRUCTURE
     1 RES1 1

@<TRIPOS>CRYSIN
   6.2355   11.7893   20.2967  90.0000  90.0000  90.0000  19 1

