# MOL2 file generated by ConQuest
# Please check atom types

@<TRIPOS>MOLECULE
NUVKUK
    43    45     1
SMALL
NO_CHARGES
****
Generated from CSD

@<TRIPOS>ATOM
      1 C1         5.5045    7.6551   10.3222 C.3       1 RES1    0.0000
      2 C2         4.8302    6.5542   11.1226 C.2       1 RES1    0.0000
      3 C3         5.1771    4.1083   11.5055 C.3       1 RES1    0.0000
      4 C4         6.6787    5.5721   10.1472 C.2       1 RES1    0.0000
      5 C5         6.6177    6.9674    9.5520 C.3       1 RES1    0.0000
      6 C6         6.0654    6.9781    8.0862 C.3       1 RES1    0.0000
      7 C7         7.1763    7.0764    7.0447 C.3       1 RES1    0.0000
      8 C8         6.9462    9.3695    6.8532 C.3       1 RES1    0.0000
      9 C9         5.9273    9.4732    7.9729 C.3       1 RES1    0.0000
     10 C10        4.9303   10.5835    7.6028 C.3       1 RES1    0.0000
     11 C11        4.0242   10.9986    8.7527 C.3       1 RES1    0.0000
     12 C12        3.4432   13.2224    8.1293 C.2       1 RES1    0.0000
     13 C13        2.3443   14.0615    7.5918 C.3       1 RES1    0.0000
     14 C14        5.1840    5.7746    7.7608 C.3       1 RES1    0.0000
     15 N1         5.2122    8.1897    8.0638 N.3       1 RES1    0.0000
     16 N2         5.5741    5.4088   10.9673 N.am      1 RES1    0.0000
     17 O1         4.5431    8.1359    9.3559 O.3       1 RES1    0.0000
     18 O2         3.8091    6.6522   11.7641 O.2       1 RES1    0.0000
     19 O3         7.5082    4.7197    9.9402 O.2       1 RES1    0.0000
     20 O4         7.8672    8.3137    7.1074 O.3       1 RES1    0.0000
     21 O5         4.1790   10.1992    6.4623 O.3       1 RES1    0.0000
     22 O6         3.0428   11.9588    8.3086 O.3       1 RES1    0.0000
     23 O7         4.5535   13.5987    8.3755 O.2       1 RES1    0.0000
     24 H1         5.8491    8.3890   10.9073 H         1 RES1    0.0000
     25 H2         5.8899    3.7621   12.0808 H         1 RES1    0.0000
     26 H3         5.0206    3.4836   10.7669 H         1 RES1    0.0000
     27 H4         4.3539    4.2083   12.0281 H         1 RES1    0.0000
     28 H5         7.4887    7.4517    9.6321 H         1 RES1    0.0000
     29 H6         7.8201    6.3379    7.1864 H         1 RES1    0.0000
     30 H7         6.7851    6.9688    6.1419 H         1 RES1    0.0000
     31 H8         6.4796    9.2024    5.9962 H         1 RES1    0.0000
     32 H9         7.4381   10.2250    6.7735 H         1 RES1    0.0000
     33 H10        6.3795    9.6838    8.8393 H         1 RES1    0.0000
     34 H11        5.4665   11.3873    7.3454 H         1 RES1    0.0000
     35 H12        3.5646   10.2005    9.1159 H         1 RES1    0.0000
     36 H13        4.5696   11.3950    9.4773 H         1 RES1    0.0000
     37 H14        2.6648   14.9803    7.4683 H         1 RES1    0.0000
     38 H15        1.5936   14.0592    8.2218 H         1 RES1    0.0000
     39 H16        2.0492   13.7009    6.7309 H         1 RES1    0.0000
     40 H17        4.7969    5.8853    6.8683 H         1 RES1    0.0000
     41 H18        4.4649    5.7085    8.4234 H         1 RES1    0.0000
     42 H19        5.7254    4.9584    7.7821 H         1 RES1    0.0000
     43 H20        3.8718    9.4255    6.5775 H         1 RES1    0.0000
@<TRIPOS>BOND
     1    1    2 1
     2    2   16 1
     3    3   16 1
     4    4    5 1
     5    5    1 1
     6    6    5 1
     7    7    6 1
     8    8    9 1
     9    9   10 1
    10   10   11 1
    11   11   22 1
    12   12   13 1
    13   13   37 1
    14   14    6 1
    15   15    6 1
    16   16    4 1
    17   17    1 1
    18   18    2 2
    19   19    4 2
    20   20    7 1
    21   21   10 1
    22   22   12 1
    23   23   12 2
    24   24    1 1
    25   25    3 1
    26   26    3 1
    27   27    3 1
    28   28    5 1
    29   29    7 1
    30   30    7 1
    31   31    8 1
    32   32    8 1
    33   33    9 1
    34   34   10 1
    35   35   11 1
    36   36   11 1
    37   38   13 1
    38   39   13 1
    39   40   14 1
    40   41   14 1
    41   42   14 1
    42   43   21 1
    43    8   20 1
    44    9   15 1
    45   15   17 1
@<TRIPOS>SUBSTRUCTURE
     1 RES1 1

@<TRIPOS>CRYSIN
   5.7530   11.5580   22.9020  90.0000  90.0000  90.0000  19 1

