# MOL2 file generated by ConQuest
# Please check atom types

@<TRIPOS>MOLECULE
NUVXAE
    20    20     1
SMALL
NO_CHARGES
****
Generated from CSD

@<TRIPOS>ATOM
      1 C1        16.4384   -0.2300    1.5070 C.2       1 RES1    0.0000
      2 C2        17.8999    0.0417    1.2809 C.ar      1 RES1    0.0000
      3 C3        18.7454   -0.1143    2.3687 C.ar      1 RES1    0.0000
      4 H1        18.3770   -0.3666    3.2314 H         1 RES1    0.0000
      5 C4        20.0950    0.1775    2.2572 C.ar      1 RES1    0.0000
      6 H2        20.7150    0.1222    3.0374 H         1 RES1    0.0000
      7 C5        20.5546    0.6573    1.0442 C.ar      1 RES1    0.0000
      8 C6        19.7471    0.8054   -0.0670 C.ar      1 RES1    0.0000
      9 H3        20.0764    1.1249   -0.8928 H         1 RES1    0.0000
     10 C7        18.4045    0.4784    0.0631 C.ar      1 RES1    0.0000
     11 H4        17.8553    0.6433   -0.6793 H         1 RES1    0.0000
     12 N1        14.4187   -1.1946    0.6511 N.3       1 RES1    0.0000
     13 H5        14.3786   -1.6245    1.4168 H         1 RES1    0.0000
     14 H6        13.9781   -0.5103    0.5919 H         1 RES1    0.0000
     15 N2        15.7695   -0.7821    0.4978 N.am      1 RES1    0.0000
     16 H7        16.1472   -1.0854   -0.2814 H         1 RES1    0.0000
     17 N3        21.9619    1.0509    0.9607 N.pl3     1 RES1    0.0000
     18 O1        15.9139    0.0270    2.5987 O.2       1 RES1    0.0000
     19 O2        22.3438    1.6543   -0.0398 O.2       1 RES1    0.0000
     20 O3        22.7111    0.7777    1.9020 O.2       1 RES1    0.0000
@<TRIPOS>BOND
     1    1    2 1
     2    2    3 ar
     3    3    4 1
     4    5    3 ar
     5    6    5 1
     6    7    5 ar
     7    8    7 ar
     8    9    8 1
     9   10    2 ar
    10   11   10 1
    11   12   13 1
    12   14   12 1
    13   15    1 1
    14   16   15 1
    15   17    7 1
    16   18    1 2
    17   19   17 2
    18   20   17 2
    19    8   10 ar
    20   12   15 1
@<TRIPOS>SUBSTRUCTURE
     1 RES1 1

@<TRIPOS>CRYSIN
  21.6480    3.5940    9.7040  90.0000  90.0000  90.0000  33 1

