# MOL2 file generated by ConQuest
# Please check atom types

@<TRIPOS>MOLECULE
NUWVIL
    23    23     1
SMALL
NO_CHARGES
****
Generated from CSD

@<TRIPOS>ATOM
      1 O1         3.3505    3.7793    1.5383 O.2       1 RES1    0.0000
      2 O2         2.3797    5.2401    2.8113 O.2       1 RES1    0.0000
      3 N1         3.1060    4.2645    2.6390 N.pl3     1 RES1    0.0000
      4 C1         3.9993    3.5558    6.2022 C.ar      1 RES1    0.0000
      5 C2         4.8255    2.4395    6.0175 C.ar      1 RES1    0.0000
      6 C3         5.1171    1.9562    4.7487 C.ar      1 RES1    0.0000
      7 H1         5.7001    1.2132    4.6478 H         1 RES1    0.0000
      8 C4         4.5602    2.5545    3.6299 C.ar      1 RES1    0.0000
      9 H2         4.7503    2.2301    2.7585 H         1 RES1    0.0000
     10 C5         3.7192    3.6370    3.8177 C.ar      1 RES1    0.0000
     11 C6         3.4300    4.1505    5.0702 C.ar      1 RES1    0.0000
     12 H3         2.8519    4.8986    5.1597 H         1 RES1    0.0000
     13 C7         3.6978    4.1576    7.5396 C.2       1 RES1    0.0000
     14 C8         6.4984    2.0601    7.6498 C.2       1 RES1    0.0000
     15 C9         6.8110    1.1869    8.8139 C.3       1 RES1    0.0000
     16 H4         7.6994    1.4099    9.1612 H         1 RES1    0.0000
     17 H5         6.7964    0.2487    8.5314 H         1 RES1    0.0000
     18 H6         6.1424    1.3267    9.5166 H         1 RES1    0.0000
     19 O3         2.8022    5.0802    7.5350 O.3       1 RES1    0.0000
     20 H7         2.7609    5.4343    8.2957 H         1 RES1    0.0000
     21 O4         4.3215    3.7788    8.5548 O.2       1 RES1    0.0000
     22 O5         5.2925    1.6980    7.0986 O.3       1 RES1    0.0000
     23 O6         7.1573    2.9510    7.1903 O.2       1 RES1    0.0000
@<TRIPOS>BOND
     1    1    3 2
     2    2    3 2
     3    3   10 1
     4    4    5 ar
     5    5    6 ar
     6    6    7 1
     7    8    6 ar
     8    9    8 1
     9   10    8 ar
    10   11    4 ar
    11   12   11 1
    12   13    4 1
    13   14   15 1
    14   15   16 1
    15   17   15 1
    16   18   15 1
    17   19   13 1
    18   20   19 1
    19   21   13 2
    20   22    5 1
    21   23   14 2
    22   10   11 ar
    23   14   22 1
@<TRIPOS>SUBSTRUCTURE
     1 RES1 1

@<TRIPOS>CRYSIN
   9.9166    5.0444   18.6808  90.0000  99.6860  90.0000 231 1

