# MOL2 file generated by ConQuest
# Please check atom types

@<TRIPOS>MOLECULE
NUYSOP
    38    41     1
SMALL
NO_CHARGES
****
Generated from CSD

@<TRIPOS>ATOM
      1 C1         0.3071    2.7204    1.2590 C.2       1 RES1    0.0000
      2 C2         0.9148    3.7019    2.2026 C.3       1 RES1    0.0000
      3 H1         0.3607    3.8373    2.9996 H         1 RES1    0.0000
      4 C3         0.9780    4.9500    1.3328 C.3       1 RES1    0.0000
      5 H2         0.4752    5.6974    1.7198 H         1 RES1    0.0000
      6 O1         0.4336    4.5282    0.0323 O.3       1 RES1    0.0000
      7 N1         0.0610    3.1771    0.1012 N.2       1 RES1    0.0000
      8 O2         2.2750    3.3540    2.5413 O.3       1 RES1    0.0000
      9 C4         3.0841    4.2857    1.9410 C.2       1 RES1    0.0000
     10 C5         4.5306    4.0457    2.1500 C.3       1 RES1    0.0000
     11 H3         5.0058    4.7158    1.5150 H         1 RES1    0.0000
     12 H4         4.7463    3.1580    1.9673 H         1 RES1    0.0000
     13 H5         4.7894    4.0067    3.0991 H         1 RES1    0.0000
     14 C6         2.4304    5.2199    1.2840 C.2       1 RES1    0.0000
     15 H6         2.8387    5.8718    0.9157 H         1 RES1    0.0000
     16 C7        -0.0632    1.3137    1.6137 C.3       1 RES1    0.0000
     17 H7        -0.5503    0.8952    0.8734 H         1 RES1    0.0000
     18 C8         1.0523    0.4160    2.0749 C.3       1 RES1    0.0000
     19 H8         1.4220   -0.0855    1.3312 H         1 RES1    0.0000
     20 H9         1.7611    0.9317    2.4900 H         1 RES1    0.0000
     21 O3         0.4440   -0.4492    3.0120 O.3       1 RES1    0.0000
     22 C9        -0.7184    0.1927    3.5207 C.3       1 RES1    0.0000
     23 O4        -0.8954    1.3909    2.7683 O.3       1 RES1    0.0000
     24 C10       -1.8942   -0.7249    3.3326 C.3       1 RES1    0.0000
     25 H10       -1.7194   -1.5695    3.7774 H         1 RES1    0.0000
     26 H11       -2.0162   -0.9035    2.3871 H         1 RES1    0.0000
     27 C11       -3.1622   -0.1071    3.8990 C.3       1 RES1    0.0000
     28 H12       -3.3935    0.6793    3.3821 H         1 RES1    0.0000
     29 H13       -3.8903   -0.7424    3.8188 H         1 RES1    0.0000
     30 C12       -3.0008    0.2832    5.3472 C.3       1 RES1    0.0000
     31 H14       -3.7988    0.7440    5.6502 H         1 RES1    0.0000
     32 H15       -2.8915   -0.5148    5.8886 H         1 RES1    0.0000
     33 C13       -1.8064    1.1767    5.5266 C.3       1 RES1    0.0000
     34 H16       -1.9715    2.0212    5.0781 H         1 RES1    0.0000
     35 H17       -1.6860    1.3610    6.4712 H         1 RES1    0.0000
     36 C14       -0.5511    0.5697    4.9818 C.3       1 RES1    0.0000
     37 H18       -0.3257   -0.2209    5.4958 H         1 RES1    0.0000
     38 H19        0.1785    1.2032    5.0703 H         1 RES1    0.0000
@<TRIPOS>BOND
     1    1    2 1
     2    2    3 1
     3    4    2 1
     4    5    4 1
     5    6    4 1
     6    7    1 2
     7    8    2 1
     8    9    8 1
     9   10    9 1
    10   11   10 1
    11   12   10 1
    12   13   10 1
    13   14    4 1
    14   15   14 1
    15   16    1 1
    16   17   16 1
    17   18   16 1
    18   19   18 1
    19   20   18 1
    20   21   18 1
    21   22   21 1
    22   23   16 1
    23   24   22 1
    24   25   24 1
    25   26   24 1
    26   27   24 1
    27   28   27 1
    28   29   27 1
    29   30   27 1
    30   31   30 1
    31   32   30 1
    32   33   30 1
    33   34   33 1
    34   35   33 1
    35   36   22 1
    36   37   36 1
    37   38   36 1
    38    6    7 1
    39    9   14 2
    40   22   23 1
    41   33   36 1
@<TRIPOS>SUBSTRUCTURE
     1 RES1 1

@<TRIPOS>CRYSIN
   7.4370    8.3040   22.2800  90.0000  90.0000  90.0000  19 1

