# MOL2 file generated by ConQuest
# Please check atom types

@<TRIPOS>MOLECULE
NUZGAQ
    50    52     1
SMALL
NO_CHARGES
****
Generated from CSD

@<TRIPOS>ATOM
      1 O1         1.9345    5.8356    3.5008 O.3       1 RES1    0.0000
      2 O2         1.0923    8.0231    3.5367 O.3       1 RES1    0.0000
      3 N1         1.3930    8.4719    4.8462 N.2       1 RES1    0.0000
      4 C1         0.8296    4.2928    0.3559 C.3       1 RES1    0.0000
      5 C2         2.1880    2.3471    1.1479 C.3       1 RES1    0.0000
      6 C3         1.6539    3.7343    1.5039 C.3       1 RES1    0.0000
      7 C4         0.9299    3.7361    2.8562 C.3       1 RES1    0.0000
      8 C5        -0.3875    2.9485    2.8650 C.3       1 RES1    0.0000
      9 C6        -1.0584    2.9442    4.2239 C.3       1 RES1    0.0000
     10 C7        -1.2971    4.3434    4.7477 C.3       1 RES1    0.0000
     11 C8        -1.9676    4.3606    6.1092 C.3       1 RES1    0.0000
     12 C9         0.0178    5.1155    4.7553 C.3       1 RES1    0.0000
     13 C10        0.6696    5.1368    3.3942 C.3       1 RES1    0.0000
     14 C11        2.0070    7.0995    2.9371 C.3       1 RES1    0.0000
     15 C12        3.4020    7.5673    3.1067 C.2       1 RES1    0.0000
     16 C13        3.7067    8.2209    4.2023 C.2       1 RES1    0.0000
     17 C14        2.6439    8.5513    5.1482 C.2       1 RES1    0.0000
     18 C15        2.9621    9.0703    6.4950 C.ar      1 RES1    0.0000
     19 C16        2.0393    9.8363    7.2064 C.ar      1 RES1    0.0000
     20 C17        2.3524   10.3270    8.4504 C.ar      1 RES1    0.0000
     21 C18        3.5715   10.0414    9.0188 C.ar      1 RES1    0.0000
     22 C19        4.4888    9.2976    8.3312 C.ar      1 RES1    0.0000
     23 C20        4.1955    8.8146    7.0820 C.ar      1 RES1    0.0000
     24 H1         0.1907    3.6262    0.1346 H         1 RES1    0.0000
     25 H2         1.3266    4.4258   -0.5279 H         1 RES1    0.0000
     26 H3         0.3526    5.1481    0.5916 H         1 RES1    0.0000
     27 H4         1.4748    1.6977    1.0061 H         1 RES1    0.0000
     28 H5         2.7018    2.3651    0.2958 H         1 RES1    0.0000
     29 H6         2.7235    1.9843    1.8582 H         1 RES1    0.0000
     30 H7         2.4127    4.3048    1.6332 H         1 RES1    0.0000
     31 H8         1.5194    3.3191    3.5162 H         1 RES1    0.0000
     32 H9        -1.0006    3.3946    2.1912 H         1 RES1    0.0000
     33 H10       -0.2177    2.0443    2.5508 H         1 RES1    0.0000
     34 H11       -1.9588    2.4166    4.1326 H         1 RES1    0.0000
     35 H12       -0.5341    2.4750    4.8235 H         1 RES1    0.0000
     36 H13       -1.8966    4.7869    4.1008 H         1 RES1    0.0000
     37 H14       -1.9781    5.2733    6.5665 H         1 RES1    0.0000
     38 H15       -1.3701    3.9385    6.7437 H         1 RES1    0.0000
     39 H16       -2.7988    3.8724    6.1272 H         1 RES1    0.0000
     40 H17       -0.1058    6.0205    5.0644 H         1 RES1    0.0000
     41 H18        0.6315    4.6608    5.3762 H         1 RES1    0.0000
     42 H19        0.0865    5.5933    2.7456 H         1 RES1    0.0000
     43 H20        1.6544    7.0869    2.0212 H         1 RES1    0.0000
     44 H21        4.0710    7.3288    2.4427 H         1 RES1    0.0000
     45 H22        4.5726    8.5349    4.4037 H         1 RES1    0.0000
     46 H23        1.1905   10.0431    6.7720 H         1 RES1    0.0000
     47 H24        1.7121   10.9387    8.9242 H         1 RES1    0.0000
     48 H25        3.7817   10.4017    9.8595 H         1 RES1    0.0000
     49 H26        5.3051    9.1157    8.7188 H         1 RES1    0.0000
     50 H27        4.8416    8.2990    6.6108 H         1 RES1    0.0000
@<TRIPOS>BOND
     1    1   13 1
     2    2    3 1
     3    3   17 2
     4    4    6 1
     5    5    6 1
     6    6    7 1
     7    7    8 1
     8    8    9 1
     9    9   10 1
    10   10   11 1
    11   11   37 1
    12   12   10 1
    13   13    7 1
    14   14    1 1
    15   15   14 1
    16   16   15 2
    17   17   16 1
    18   18   17 1
    19   19   18 ar
    20   20   19 ar
    21   21   20 ar
    22   22   21 ar
    23   23   18 ar
    24   24    4 1
    25   25    4 1
    26   26    4 1
    27   27    5 1
    28   28    5 1
    29   29    5 1
    30   30    6 1
    31   31    7 1
    32   32    8 1
    33   33    8 1
    34   34    9 1
    35   35    9 1
    36   36   10 1
    37   38   11 1
    38   39   11 1
    39   40   12 1
    40   41   12 1
    41   42   13 1
    42   43   14 1
    43   44   15 1
    44   45   16 1
    45   46   19 1
    46   47   20 1
    47   48   21 1
    48   49   22 1
    49   50   23 1
    50    2   14 1
    51   12   13 1
    52   22   23 ar
@<TRIPOS>SUBSTRUCTURE
     1 RES1 1

@<TRIPOS>CRYSIN
   6.0259    8.5787   17.7680  90.0000  94.4740  90.0000   4 1

