# MOL2 file generated by ConQuest
# Please check atom types

@<TRIPOS>MOLECULE
NXENAM01
    24    23     1
SMALL
NO_CHARGES
****
Generated from CSD

@<TRIPOS>ATOM
      1 C1         7.8602    1.9215    1.1220 C.3       1 RES1    0.0000
      2 C2         5.6182    3.0863    1.5207 C.3       1 RES1    0.0000
      3 C3         9.0188    2.7111    1.6969 C.3       1 RES1    0.0000
      4 C4         4.4089    2.2445    1.2402 C.3       1 RES1    0.0000
      5 N1         6.8835    3.3599   -0.5285 N.pl3     1 RES1    0.0000
      6 N2         6.7605    2.7706    0.6746 N.3       1 RES1    0.0000
      7 N3         8.7327    2.5876    4.0788 N.pl3     1 RES1    0.0000
      8 N4         3.8576   -0.0430    1.7085 N.pl3     1 RES1    0.0000
      9 O1         7.9138    3.1632   -1.1834 O.2       1 RES1    0.0000
     10 O2         5.9418    4.0663   -0.9122 O.2       1 RES1    0.0000
     11 O3         8.6402    3.3882    2.9278 O.3       1 RES1    0.0000
     12 O4         4.8548    0.8619    1.4199 O.3       1 RES1    0.0000
     13 O5         9.0622    1.4494    3.9548 O.2       1 RES1    0.0000
     14 O6         4.2791   -1.1639    1.8453 O.2       1 RES1    0.0000
     15 O7         8.4631    3.1970    5.0791 O.2       1 RES1    0.0000
     16 O8         2.7375    0.3504    1.8093 O.2       1 RES1    0.0000
     17 H1         4.0666    2.4055    0.2283 H         1 RES1    0.0000
     18 H2         7.4995    1.2389    1.8766 H         1 RES1    0.0000
     19 H3         3.6111    2.4714    1.9310 H         1 RES1    0.0000
     20 H4         8.2196    1.3615    0.2712 H         1 RES1    0.0000
     21 H5         5.9017    2.9381    2.5523 H         1 RES1    0.0000
     22 H6         9.3219    3.4514    0.9713 H         1 RES1    0.0000
     23 H7         5.3619    4.1230    1.3631 H         1 RES1    0.0000
     24 H8         9.8449    2.0459    1.8997 H         1 RES1    0.0000
@<TRIPOS>BOND
     1    1    3 1
     2    2    4 1
     3    3   11 1
     4    4   12 1
     5    5    6 1
     6    6    1 1
     7    7   11 1
     8    8   12 1
     9    9    5 2
    10   10    5 2
    11   13    7 2
    12   14    8 2
    13   15    7 2
    14   16    8 2
    15   17    4 1
    16   18    1 1
    17   19    4 1
    18   20    1 1
    19   21    2 1
    20   22    3 1
    21   23    2 1
    22   24    3 1
    23    2    6 1
@<TRIPOS>SUBSTRUCTURE
     1 RES1 1

@<TRIPOS>CRYSIN
   9.0600    9.1500   12.3300  90.0000 109.9400  90.0000  14 1

