# MOL2 file generated by ConQuest
# Please check atom types

@<TRIPOS>MOLECULE
OBAHIK
    61    65     1
SMALL
NO_CHARGES
****
Generated from CSD

@<TRIPOS>ATOM
      1 N1         5.6606    8.4298    4.1239 N.am      1 RES1    0.0000
      2 N2         6.9025    7.3361    7.7513 N.1       1 RES1    0.0000
      3 N3        10.7363    8.0501    6.0728 N.1       1 RES1    0.0000
      4 N4         5.0206   13.4241    0.6877 N.pl3     1 RES1    0.0000
      5 O1         5.4952    9.9105    5.8638 O.2       1 RES1    0.0000
      6 O2         9.1155   13.5007    5.4039 O.2       1 RES1    0.0000
      7 O3         8.5706   13.0487    7.5288 O.3       1 RES1    0.0000
      8 O4         5.2928   13.2352   -0.4868 O.2       1 RES1    0.0000
      9 O5         4.0986   14.1311    1.0573 O.2       1 RES1    0.0000
     10 C1         8.3142    9.0151    6.3321 C.3       1 RES1    0.0000
     11 C2         8.4247   10.4015    6.9323 C.2       1 RES1    0.0000
     12 H1         8.5070   10.5756    7.8406 H         1 RES1    0.0000
     13 C3         8.3891   11.3279    5.9981 C.2       1 RES1    0.0000
     14 C4         8.2342   10.7534    4.6056 C.3       1 RES1    0.0000
     15 H2         9.1320   10.6627    4.2242 H         1 RES1    0.0000
     16 C5         7.7006    9.3112    4.9031 C.3       1 RES1    0.0000
     17 C6         6.1527    9.2928    5.0502 C.2       1 RES1    0.0000
     18 C7         6.6982    7.8160    3.3867 C.ar      1 RES1    0.0000
     19 C8         7.9272    8.3004    3.8109 C.ar      1 RES1    0.0000
     20 C9         9.0898    7.8741    3.1906 C.ar      1 RES1    0.0000
     21 H3         9.9147    8.2265    3.4371 H         1 RES1    0.0000
     22 C10        8.9991    6.9136    2.1969 C.ar      1 RES1    0.0000
     23 H4         9.7717    6.6043    1.7809 H         1 RES1    0.0000
     24 C11        7.7710    6.4133    1.8201 C.ar      1 RES1    0.0000
     25 H5         7.7316    5.7544    1.1639 H         1 RES1    0.0000
     26 C12        6.5933    6.8648    2.3929 C.ar      1 RES1    0.0000
     27 H6         5.7666    6.5400    2.1182 H         1 RES1    0.0000
     28 C13        4.2214    8.2048    3.9431 C.3       1 RES1    0.0000
     29 H7         3.7971    8.1622    4.8138 H         1 RES1    0.0000
     30 H8         4.0885    7.3482    3.5070 H         1 RES1    0.0000
     31 C14        3.5521    9.2864    3.1217 C.ar      1 RES1    0.0000
     32 C15        3.4405    9.1652    1.7565 C.ar      1 RES1    0.0000
     33 H9         3.7897    8.4158    1.3311 H         1 RES1    0.0000
     34 C16        2.8192   10.1425    1.0099 C.ar      1 RES1    0.0000
     35 H10        2.7486   10.0456    0.0881 H         1 RES1    0.0000
     36 C17        2.3050   11.2510    1.6198 C.ar      1 RES1    0.0000
     37 H11        1.8871   11.9101    1.1123 H         1 RES1    0.0000
     38 C18        2.4067   11.3920    2.9822 C.ar      1 RES1    0.0000
     39 H12        2.0585   12.1467    3.3976 H         1 RES1    0.0000
     40 C19        3.0290   10.4068    3.7383 C.ar      1 RES1    0.0000
     41 H13        3.0941   10.5018    4.6618 H         1 RES1    0.0000
     42 C20        7.5080    8.0711    7.1341 C.1       1 RES1    0.0000
     43 C21        9.6831    8.4537    6.2032 C.1       1 RES1    0.0000
     44 C22        7.3865   11.4994    3.6012 C.ar      1 RES1    0.0000
     45 C23        7.6564   11.3250    2.2492 C.ar      1 RES1    0.0000
     46 H14        8.3649   10.7820    1.9875 H         1 RES1    0.0000
     47 C24        6.8802   11.9508    1.2901 C.ar      1 RES1    0.0000
     48 H15        7.0571   11.8325    0.3860 H         1 RES1    0.0000
     49 C25        5.8418   12.7532    1.7040 C.ar      1 RES1    0.0000
     50 C26        5.5512   12.9552    3.0296 C.ar      1 RES1    0.0000
     51 H16        4.8483   13.5077    3.2852 H         1 RES1    0.0000
     52 C27        6.3324   12.3162    3.9738 C.ar      1 RES1    0.0000
     53 H17        6.1460   12.4364    4.8776 H         1 RES1    0.0000
     54 C28        8.7214   12.7525    6.2470 C.2       1 RES1    0.0000
     55 C29        9.0688   14.3368    7.9786 C.3       1 RES1    0.0000
     56 H18        8.4199   15.0334    7.7890 H         1 RES1    0.0000
     57 H19        9.8964   14.5545    7.5215 H         1 RES1    0.0000
     58 C30        9.2997   14.2340    9.4373 C.3       1 RES1    0.0000
     59 H20        8.4694   14.0434    9.8798 H         1 RES1    0.0000
     60 H21        9.6535   15.0637    9.7643 H         1 RES1    0.0000
     61 H22        9.9257   13.5286    9.6124 H         1 RES1    0.0000
@<TRIPOS>BOND
     1    1   17 1
     2    2   42 3
     3    3   43 3
     4    4    8 2
     5    5   17 2
     6    6   54 2
     7    7   54 1
     8    9    4 2
     9   10   11 1
    10   11   12 1
    11   13   11 2
    12   14   13 1
    13   15   14 1
    14   16   10 1
    15   17   16 1
    16   18    1 1
    17   19   16 1
    18   20   19 ar
    19   21   20 1
    20   22   20 ar
    21   23   22 1
    22   24   22 ar
    23   25   24 1
    24   26   18 ar
    25   27   26 1
    26   28    1 1
    27   29   28 1
    28   30   28 1
    29   31   28 1
    30   32   31 ar
    31   33   32 1
    32   34   32 ar
    33   35   34 1
    34   36   34 ar
    35   37   36 1
    36   38   36 ar
    37   39   38 1
    38   40   31 ar
    39   41   40 1
    40   42   10 1
    41   43   10 1
    42   44   14 1
    43   45   44 ar
    44   46   45 1
    45   47   45 ar
    46   48   47 1
    47   49    4 1
    48   50   49 ar
    49   51   50 1
    50   52   44 ar
    51   53   52 1
    52   54   13 1
    53   55    7 1
    54   56   55 1
    55   57   55 1
    56   58   55 1
    57   59   58 1
    58   60   58 1
    59   61   58 1
    60   14   16 1
    61   18   19 ar
    62   24   26 ar
    63   38   40 ar
    64   47   49 ar
    65   50   52 ar
@<TRIPOS>SUBSTRUCTURE
     1 RES1 1

@<TRIPOS>CRYSIN
   9.1650   18.9290   30.3900  90.0000  90.0000  90.0000  56 1

