# MOL2 file generated by ConQuest
# Please check atom types

@<TRIPOS>MOLECULE
OBAKAF
    49    53     1
SMALL
NO_CHARGES
****
Generated from CSD

@<TRIPOS>ATOM
      1 O1         2.0925    9.4129    2.6220 O.3       1 RES1    0.0000
      2 O2         3.0483    7.2147    2.0880 O.3       1 RES1    0.0000
      3 O3         2.0509    9.0741    4.8510 O.2       1 RES1    0.0000
      4 N1         2.4639    7.3377    3.3997 N.am      1 RES1    0.0000
      5 C1         4.2664    6.3671    2.1032 C.3       1 RES1    0.0000
      6 C2         2.2389    8.6734    3.7241 C.2       1 RES1    0.0000
      7 C3         1.5374   10.7406    2.8341 C.3       1 RES1    0.0000
      8 H1         0.8710   10.7070    3.6029 H         1 RES1    0.0000
      9 H2         2.2649   11.3416    3.1085 H         1 RES1    0.0000
     10 C4         3.0891    6.3949    4.4049 C.3       1 RES1    0.0000
     11 C5         4.5448    6.8355    4.4782 C.ar      1 RES1    0.0000
     12 C6         5.1637    6.8548    3.2176 C.ar      1 RES1    0.0000
     13 C7         3.7631    4.9964    2.5020 C.ar      1 RES1    0.0000
     14 C8         3.0742    5.0260    3.7205 C.ar      1 RES1    0.0000
     15 C9         0.9195   11.1676    1.5336 C.ar      1 RES1    0.0000
     16 C10        0.0762   10.3064    0.8303 C.ar      1 RES1    0.0000
     17 H3        -0.0949    9.3978    1.1882 H         1 RES1    0.0000
     18 C11       -0.4999   10.7198   -0.3622 C.ar      1 RES1    0.0000
     19 H4        -1.0647   10.1223   -0.8386 H         1 RES1    0.0000
     20 C12       -0.2411   11.9836   -0.8634 C.ar      1 RES1    0.0000
     21 H5        -0.6321   12.2711   -1.6854 H         1 RES1    0.0000
     22 C13        0.5865   12.8401   -0.1709 C.ar      1 RES1    0.0000
     23 H6         0.7954   13.7269   -0.5327 H         1 RES1    0.0000
     24 C14        1.1648   12.4350    1.0295 C.ar      1 RES1    0.0000
     25 H7         1.7399   13.0473    1.5310 H         1 RES1    0.0000
     26 C15        4.8157    6.4920    0.7047 C.3       1 RES1    0.0000
     27 H8         4.1334    6.1830    0.0451 H         1 RES1    0.0000
     28 H9         5.5917    5.9098    0.6105 H         1 RES1    0.0000
     29 H10        5.0603    7.4406    0.5217 H         1 RES1    0.0000
     30 C16        6.4882    7.2560    3.0972 C.ar      1 RES1    0.0000
     31 H11        6.9083    7.2590    2.2221 H         1 RES1    0.0000
     32 C17        7.1857    7.6331    4.2446 C.ar      1 RES1    0.0000
     33 H12        8.1100    7.9103    4.1752 H         1 RES1    0.0000
     34 C18        6.5763    7.6158    5.4813 C.ar      1 RES1    0.0000
     35 H13        7.0695    7.8703    6.2812 H         1 RES1    0.0000
     36 C19        5.2406    7.2242    5.6116 C.ar      1 RES1    0.0000
     37 H14        4.7923    7.2091    6.5093 H         1 RES1    0.0000
     38 C20        3.9074    3.8072    1.8038 C.ar      1 RES1    0.0000
     39 H15        4.4245    3.7911    0.9738 H         1 RES1    0.0000
     40 C21        3.3491    2.6439    2.3276 C.ar      1 RES1    0.0000
     41 H16        3.4500    1.7973    1.8629 H         1 RES1    0.0000
     42 C22        2.6433    2.6792    3.5165 C.ar      1 RES1    0.0000
     43 H17        2.2492    1.8772    3.8569 H         1 RES1    0.0000
     44 C23        2.4969    3.8745    4.2267 C.ar      1 RES1    0.0000
     45 H18        2.0093    3.8660    5.0752 H         1 RES1    0.0000
     46 C24        2.3284    6.3841    5.7143 C.3       1 RES1    0.0000
     47 H19        1.3509    6.2113    5.5464 H         1 RES1    0.0000
     48 H20        2.6554    5.6400    6.2689 H         1 RES1    0.0000
     49 H21        2.4248    7.2424    6.2115 H         1 RES1    0.0000
@<TRIPOS>BOND
     1    1    6 1
     2    2    4 1
     3    3    6 2
     4    4    6 1
     5    5    2 1
     6    7    1 1
     7    8    7 1
     8    9    7 1
     9   10    4 1
    10   11   10 1
    11   12    5 1
    12   13    5 1
    13   14   10 1
    14   15    7 1
    15   16   15 ar
    16   17   16 1
    17   18   16 ar
    18   19   18 1
    19   20   18 ar
    20   21   20 1
    21   22   20 ar
    22   23   22 1
    23   24   15 ar
    24   25   24 1
    25   26    5 1
    26   27   26 1
    27   28   26 1
    28   29   26 1
    29   30   12 ar
    30   31   30 1
    31   32   30 ar
    32   33   32 1
    33   34   32 ar
    34   35   34 1
    35   36   11 ar
    36   37   36 1
    37   38   13 ar
    38   39   38 1
    39   40   38 ar
    40   41   40 1
    41   42   40 ar
    42   43   42 1
    43   44   14 ar
    44   45   44 1
    45   46   10 1
    46   47   46 1
    47   48   46 1
    48   49   46 1
    49   11   12 ar
    50   13   14 ar
    51   22   24 ar
    52   34   36 ar
    53   42   44 ar
@<TRIPOS>SUBSTRUCTURE
     1 RES1 1

@<TRIPOS>CRYSIN
   8.3176   16.6568   13.6584  90.0000  90.5660  90.0000  14 1

