# MOL2 file generated by ConQuest
# Please check atom types

@<TRIPOS>MOLECULE
OBASOZ
    42    47     1
SMALL
USER_CHARGES
****
Generated from CSD

@<TRIPOS>ATOM
      1 O1         2.3779    2.2089    1.5429 O.2       1 RES1   -1.0000
      2 O2        -3.4142    6.0051    2.8885 O.2       1 RES1   -1.0000
      3 N1         1.6951    2.1822    2.6651 N.pl3     1 RES1    1.0000
      4 N2        -2.3295    6.4239    2.2827 N.pl3     1 RES1    1.0000
      5 C1        -0.0781    3.5790    1.6453 C.3       1 RES1    0.0000
      6 C2         0.5459    2.8521    2.7828 C.ar      1 RES1    0.0000
      7 C3        -0.2028    2.8570    3.9628 C.ar      1 RES1    0.0000
      8 C4        -1.4038    3.7431    3.7896 C.3       1 RES1    0.0000
      9 C5        -1.4127    4.1098    2.2729 C.3       1 RES1    0.0000
     10 C6        -1.3573    5.5731    1.9885 C.ar      1 RES1    0.0000
     11 C7        -0.1772    5.9811    1.3293 C.ar      1 RES1    0.0000
     12 C8         0.7225    4.7986    1.1168 C.3       1 RES1    0.0000
     13 C9         2.1506    1.4106    3.7471 C.ar      1 RES1    0.0000
     14 C10        3.3390    0.6763    3.6098 C.ar      1 RES1    0.0000
     15 C11        3.7423   -0.1213    4.6460 C.ar      1 RES1    0.0000
     16 C12        2.9891   -0.2165    5.8151 C.ar      1 RES1    0.0000
     17 C13        1.8436    0.5124    5.9677 C.ar      1 RES1    0.0000
     18 C14        1.3866    1.3552    4.9239 C.ar      1 RES1    0.0000
     19 C15        0.2014    2.1260    5.0470 C.ar      1 RES1    0.0000
     20 C16       -2.1987    7.7716    1.9471 C.ar      1 RES1    0.0000
     21 C17       -3.2370    8.6604    2.2446 C.ar      1 RES1    0.0000
     22 C18       -3.1015    9.9744    1.8817 C.ar      1 RES1    0.0000
     23 C19       -1.9501   10.4328    1.2160 C.ar      1 RES1    0.0000
     24 C20       -0.9434    9.5790    0.9392 C.ar      1 RES1    0.0000
     25 C21       -1.0226    8.2016    1.2890 C.ar      1 RES1    0.0000
     26 C22       -0.0040    7.2858    0.9828 C.ar      1 RES1    0.0000
     27 H1        -0.2761    2.9451    0.8978 H         1 RES1    0.0000
     28 H2        -1.3178    4.5665    4.3507 H         1 RES1    0.0000
     29 H3        -2.2403    3.2555    4.0391 H         1 RES1    0.0000
     30 H4        -2.2010    3.6951    1.8185 H         1 RES1    0.0000
     31 H5         1.5736    4.9078    1.6300 H         1 RES1    0.0000
     32 H6         0.9307    4.6857    0.1452 H         1 RES1    0.0000
     33 H7         3.8808    0.7345    2.7708 H         1 RES1    0.0000
     34 H8         4.5907   -0.6450    4.5632 H         1 RES1    0.0000
     35 H9         3.2911   -0.8240    6.5495 H         1 RES1    0.0000
     36 H10        1.3247    0.4505    6.8198 H         1 RES1    0.0000
     37 H11       -0.3222    2.1346    5.8990 H         1 RES1    0.0000
     38 H12       -4.0619    8.3443    2.7120 H         1 RES1    0.0000
     39 H13       -3.8347   10.6199    2.0942 H         1 RES1    0.0000
     40 H14       -1.8778   11.3925    0.9479 H         1 RES1    0.0000
     41 H15       -0.1241    9.9203    0.4794 H         1 RES1    0.0000
     42 H16        0.8308    7.5853    0.5208 H         1 RES1    0.0000
@<TRIPOS>BOND
     1    1    3 1
     2    2    4 1
     3    3    6 ar
     4    4   10 ar
     5    5    6 1
     6    6    7 ar
     7    7    8 1
     8    8    9 1
     9    9    5 1
    10   10    9 1
    11   11   10 ar
    12   12    5 1
    13   13    3 ar
    14   14   13 ar
    15   15   14 ar
    16   16   15 ar
    17   17   16 ar
    18   18   13 ar
    19   19    7 ar
    20   20    4 ar
    21   21   20 ar
    22   22   21 ar
    23   23   22 ar
    24   24   23 ar
    25   25   20 ar
    26   26   11 ar
    27   27    5 1
    28   28    8 1
    29   29    8 1
    30   30    9 1
    31   31   12 1
    32   32   12 1
    33   33   14 1
    34   34   15 1
    35   35   16 1
    36   36   17 1
    37   37   19 1
    38   38   21 1
    39   39   22 1
    40   40   23 1
    41   41   24 1
    42   42   26 1
    43   11   12 1
    44   17   18 ar
    45   18   19 ar
    46   24   25 ar
    47   25   26 ar
@<TRIPOS>SUBSTRUCTURE
     1 RES1 1

@<TRIPOS>CRYSIN
   6.6680   11.5730   11.6560 107.4900  96.0800 104.8600   2 1

