# MOL2 file generated by ConQuest
# Please check atom types

@<TRIPOS>MOLECULE
OBEMIT
    31    33     1
SMALL
NO_CHARGES
****
Generated from CSD

@<TRIPOS>ATOM
      1 N1         8.0149    4.4192   13.1989 N.pl3     1 RES1    0.0000
      2 O1         3.0026    6.8054   13.7317 O.3       1 RES1    0.0000
      3 O2         8.2666    3.4019   13.8341 O.2       1 RES1    0.0000
      4 O3         8.8219    4.9357   12.4304 O.2       1 RES1    0.0000
      5 C1         4.2198    6.1664   13.6483 C.ar      1 RES1    0.0000
      6 C2         5.1536    6.7602   12.7968 C.ar      1 RES1    0.0000
      7 H1         4.9295    7.5504   12.3185 H         1 RES1    0.0000
      8 C3         6.4082    6.1900   12.6519 C.ar      1 RES1    0.0000
      9 H2         7.0542    6.5822   12.0774 H         1 RES1    0.0000
     10 C4         6.7030    5.0358   13.3620 C.ar      1 RES1    0.0000
     11 C5         5.7780    4.4286   14.2007 C.ar      1 RES1    0.0000
     12 H3         6.0021    3.6333   14.6683 H         1 RES1    0.0000
     13 C6         4.5237    4.9988   14.3447 C.ar      1 RES1    0.0000
     14 H4         3.8774    4.5977   14.9118 H         1 RES1    0.0000
     15 C7         2.0098    6.2556   14.5572 C.ar      1 RES1    0.0000
     16 C8         2.0445    6.5390   15.9465 C.ar      1 RES1    0.0000
     17 C9         3.0914    7.2967   16.5675 C.ar      1 RES1    0.0000
     18 H5         3.7964    7.6585   16.0441 H         1 RES1    0.0000
     19 C10        3.0651    7.4929   17.9195 C.ar      1 RES1    0.0000
     20 H6         3.7587    7.9960   18.3301 H         1 RES1    0.0000
     21 C11        2.0344    6.9670   18.7159 C.ar      1 RES1    0.0000
     22 H7         2.0494    7.0982   19.6562 H         1 RES1    0.0000
     23 C12        1.0161    6.2715   18.1469 C.ar      1 RES1    0.0000
     24 H8         0.3161    5.9373   18.6941 H         1 RES1    0.0000
     25 C13        0.9811    6.0358   16.7509 C.ar      1 RES1    0.0000
     26 C14       -0.0664    5.2963   16.1332 C.ar      1 RES1    0.0000
     27 H9        -0.7839    4.9681   16.6635 H         1 RES1    0.0000
     28 C15       -0.0536    5.0517   14.7860 C.ar      1 RES1    0.0000
     29 H10       -0.7588    4.5564   14.3870 H         1 RES1    0.0000
     30 C16        1.0046    5.5350   13.9941 C.ar      1 RES1    0.0000
     31 H11        1.0167    5.3563   13.0608 H         1 RES1    0.0000
@<TRIPOS>BOND
     1    1    3 2
     2    2    5 1
     3    4    1 2
     4    5    6 ar
     5    6    7 1
     6    8    6 ar
     7    9    8 1
     8   10    1 1
     9   11   10 ar
    10   12   11 1
    11   13    5 ar
    12   14   13 1
    13   15    2 1
    14   16   15 ar
    15   17   16 ar
    16   18   17 1
    17   19   17 ar
    18   20   19 1
    19   21   19 ar
    20   22   21 1
    21   23   21 ar
    22   24   23 1
    23   25   16 ar
    24   26   25 ar
    25   27   26 1
    26   28   26 ar
    27   29   28 1
    28   30   15 ar
    29   31   30 1
    30    8   10 ar
    31   11   13 ar
    32   23   25 ar
    33   28   30 ar
@<TRIPOS>SUBSTRUCTURE
     1 RES1 1

@<TRIPOS>CRYSIN
  11.4108    9.4004   23.6395  90.0000  90.0000  90.0000  61 1

