# MOL2 file generated by ConQuest
# Please check atom types

@<TRIPOS>MOLECULE
OBOZUD
    54    58     1
SMALL
NO_CHARGES
****
Generated from CSD

@<TRIPOS>ATOM
      1 N1         1.7882    5.7076    3.9482 N.pl3     1 RES1    0.0000
      2 N2         3.1839    6.9779    2.6932 N.2       1 RES1    0.0000
      3 N3        -2.6686    4.5014    7.1689 N.pl3     1 RES1    0.0000
      4 O1         1.5616    7.4571    0.1740 O.2       1 RES1    0.0000
      5 O2        -2.8878    6.1139    4.0881 O.2       1 RES1    0.0000
      6 O3        -2.4057    5.6801    6.9661 O.2       1 RES1    0.0000
      7 O4        -2.9881    4.0661    8.2732 O.2       1 RES1    0.0000
      8 O5         1.1882    2.6032    4.1023 O.3       1 RES1    0.0000
      9 H1         1.4998    1.8226    4.1016 H         1 RES1    0.0000
     10 C1         3.1201    5.2822    4.4103 C.3       1 RES1    0.0000
     11 H2         3.2697    4.3183    4.2402 H         1 RES1    0.0000
     12 H3         3.2428    5.4665    5.3751 H         1 RES1    0.0000
     13 C2         4.0494    6.1515    3.5539 C.3       1 RES1    0.0000
     14 H4         4.6114    6.7260    4.1304 H         1 RES1    0.0000
     15 H5         4.6424    5.5819    3.0020 H         1 RES1    0.0000
     16 C3         1.9559    6.6652    2.9491 C.2       1 RES1    0.0000
     17 C4         0.7523    7.1944    2.3578 C.2       1 RES1    0.0000
     18 C5        -0.4456    6.8242    2.8886 C.2       1 RES1    0.0000
     19 H6        -1.2375    7.2232    2.5496 H         1 RES1    0.0000
     20 C6        -0.5590    5.8539    3.9416 C.2       1 RES1    0.0000
     21 C7         0.6018    5.3027    4.4533 C.2       1 RES1    0.0000
     22 C8         0.8644    7.9348    1.0583 C.2       1 RES1    0.0000
     23 C9         0.1343    9.2129    0.8433 C.ar      1 RES1    0.0000
     24 C10        0.0443    9.7194   -0.4551 C.ar      1 RES1    0.0000
     25 H7         0.4082    9.2231   -1.1794 H         1 RES1    0.0000
     26 C11       -0.5678   10.9328   -0.6982 C.ar      1 RES1    0.0000
     27 H8        -0.6154   11.2737   -1.5834 H         1 RES1    0.0000
     28 C12       -1.1091   11.6443    0.3415 C.ar      1 RES1    0.0000
     29 H9        -1.5250   12.4824    0.1739 H         1 RES1    0.0000
     30 C13       -1.0530   11.1490    1.6370 C.ar      1 RES1    0.0000
     31 H10       -1.4456   11.6377    2.3509 H         1 RES1    0.0000
     32 C14       -0.4228    9.9403    1.8850 C.ar      1 RES1    0.0000
     33 H11       -0.3718    9.6076    2.7732 H         1 RES1    0.0000
     34 C15       -1.9125    5.4257    4.3338 C.2       1 RES1    0.0000
     35 C16       -2.1419    3.9992    4.8073 C.ar      1 RES1    0.0000
     36 C17       -2.5894    3.5677    6.0465 C.ar      1 RES1    0.0000
     37 C18       -2.9777    2.2514    6.2812 C.ar      1 RES1    0.0000
     38 H12       -3.2831    1.9820    7.1389 H         1 RES1    0.0000
     39 C19       -2.9105    1.3497    5.2453 C.ar      1 RES1    0.0000
     40 H13       -3.1991    0.4546    5.3830 H         1 RES1    0.0000
     41 C20       -2.4293    1.7283    4.0097 C.ar      1 RES1    0.0000
     42 H14       -2.3639    1.0906    3.3080 H         1 RES1    0.0000
     43 C21       -2.0436    3.0326    3.7942 C.ar      1 RES1    0.0000
     44 H15       -1.7046    3.2827    2.9432 H         1 RES1    0.0000
     45 C22        0.6776    4.3525    5.5949 C.ar      1 RES1    0.0000
     46 C23        0.5399    4.8252    6.8936 C.ar      1 RES1    0.0000
     47 H16        0.3608    5.7454    7.0448 H         1 RES1    0.0000
     48 C24        0.6616    3.9638    7.9651 C.ar      1 RES1    0.0000
     49 H17        0.5829    4.2922    8.8530 H         1 RES1    0.0000
     50 C25        0.8988    2.6208    7.7411 C.ar      1 RES1    0.0000
     51 H18        0.9640    2.0259    8.4791 H         1 RES1    0.0000
     52 C26        1.0421    2.1351    6.4547 C.ar      1 RES1    0.0000
     53 H19        1.1884    1.2073    6.3100 H         1 RES1    0.0000
     54 C27        0.9730    3.0014    5.3756 C.ar      1 RES1    0.0000
@<TRIPOS>BOND
     1    1   10 1
     2    2   13 1
     3    3    6 2
     4    4   22 2
     5    5   34 2
     6    7    3 2
     7    8    9 1
     8   10   11 1
     9   12   10 1
    10   13   10 1
    11   14   13 1
    12   15   13 1
    13   16    1 1
    14   17   16 1
    15   18   17 2
    16   19   18 1
    17   20   18 1
    18   21    1 1
    19   22   17 1
    20   23   22 1
    21   24   23 ar
    22   25   24 1
    23   26   24 ar
    24   27   26 1
    25   28   26 ar
    26   29   28 1
    27   30   28 ar
    28   31   30 1
    29   32   23 ar
    30   33   32 1
    31   34   20 1
    32   35   34 1
    33   36    3 1
    34   37   36 ar
    35   38   37 1
    36   39   37 ar
    37   40   39 1
    38   41   39 ar
    39   42   41 1
    40   43   35 ar
    41   44   43 1
    42   45   21 1
    43   46   45 ar
    44   47   46 1
    45   48   46 ar
    46   49   48 1
    47   50   48 ar
    48   51   50 1
    49   52   50 ar
    50   53   52 1
    51   54    8 1
    52    2   16 2
    53   20   21 2
    54   30   32 ar
    55   35   36 ar
    56   41   43 ar
    57   45   54 ar
    58   52   54 ar
@<TRIPOS>SUBSTRUCTURE
     1 RES1 1

@<TRIPOS>CRYSIN
  12.1392   13.7350   13.1589  90.0000  96.4760  90.0000 231 1

