# MOL2 file generated by ConQuest
# Please check atom types

@<TRIPOS>MOLECULE
OBUJAY
    38    39     1
SMALL
NO_CHARGES
****
Generated from CSD

@<TRIPOS>ATOM
      1 O1        -1.5078    1.8043   12.7422 O.2       1 RES1    0.0000
      2 O2        -1.1586    1.4856   14.8391 O.2       1 RES1    0.0000
      3 O3         3.0168   -0.0421   16.5280 O.2       1 RES1    0.0000
      4 O4         4.6678   -0.3436   15.1929 O.2       1 RES1    0.0000
      5 O5        -0.6679    1.3090    6.2943 O.3       1 RES1    0.0000
      6 N1         0.4198    1.5341   11.0055 N.pl3     1 RES1    0.0000
      7 H1        -0.3851    1.8392   11.1464 H         1 RES1    0.0000
      8 N2         1.0511    1.5892    9.7832 N.2       1 RES1    0.0000
      9 N3        -0.7671    1.4876   13.6781 N.pl3     1 RES1    0.0000
     10 N4         3.5056   -0.0349   15.4090 N.pl3     1 RES1    0.0000
     11 C1         1.1379    1.1566   12.0878 C.ar      1 RES1    0.0000
     12 C2         0.6051    1.1130   13.4027 C.ar      1 RES1    0.0000
     13 C3         1.3765    0.7303   14.4900 C.ar      1 RES1    0.0000
     14 H2         1.0124    0.7136   15.3449 H         1 RES1    0.0000
     15 C4         2.6818    0.3778   14.2834 C.ar      1 RES1    0.0000
     16 C5         3.2465    0.4035   13.0053 C.ar      1 RES1    0.0000
     17 H3         4.1334    0.1583   12.8833 H         1 RES1    0.0000
     18 C6         2.4920    0.7877   11.9415 C.ar      1 RES1    0.0000
     19 H4         2.8781    0.8084   11.0961 H         1 RES1    0.0000
     20 C7         0.3722    2.0438    8.7920 C.2       1 RES1    0.0000
     21 C8         1.1503    2.1359    7.5260 C.ar      1 RES1    0.0000
     22 C9         0.6160    1.7723    6.2810 C.ar      1 RES1    0.0000
     23 C10        1.3998    1.8442    5.1338 C.ar      1 RES1    0.0000
     24 H5         1.0450    1.5976    4.3108 H         1 RES1    0.0000
     25 C11        2.7074    2.2805    5.2165 C.ar      1 RES1    0.0000
     26 H6         3.2274    2.3304    4.4475 H         1 RES1    0.0000
     27 C12        3.2414    2.6419    6.4293 C.ar      1 RES1    0.0000
     28 H7         4.1219    2.9364    6.4810 H         1 RES1    0.0000
     29 C13        2.4688    2.5678    7.5725 C.ar      1 RES1    0.0000
     30 H8         2.8404    2.8123    8.3894 H         1 RES1    0.0000
     31 C14       -1.0401    2.5321    8.8747 C.3       1 RES1    0.0000
     32 H9        -1.1126    3.1802    9.5796 H         1 RES1    0.0000
     33 H10       -1.6233    1.7929    9.0574 H         1 RES1    0.0000
     34 H11       -1.2891    2.9378    8.0400 H         1 RES1    0.0000
     35 C15       -1.2886    1.0002    5.0566 C.3       1 RES1    0.0000
     36 H12       -2.1935    0.7193    5.2134 H         1 RES1    0.0000
     37 H13       -0.8031    0.2923    4.6241 H         1 RES1    0.0000
     38 H14       -1.2863    1.7786    4.4952 H         1 RES1    0.0000
@<TRIPOS>BOND
     1    1    9 2
     2    2    9 2
     3    3   10 2
     4    4   10 2
     5    5   22 1
     6    6    7 1
     7    8    6 1
     8    9   12 1
     9   10   15 1
    10   11    6 1
    11   12   11 ar
    12   13   12 ar
    13   14   13 1
    14   15   13 ar
    15   16   15 ar
    16   17   16 1
    17   18   11 ar
    18   19   18 1
    19   20    8 2
    20   21   20 1
    21   22   21 ar
    22   23   22 ar
    23   24   23 1
    24   25   23 ar
    25   26   25 1
    26   27   25 ar
    27   28   27 1
    28   29   21 ar
    29   30   29 1
    30   31   20 1
    31   32   31 1
    32   33   31 1
    33   34   31 1
    34   35    5 1
    35   36   35 1
    36   37   35 1
    37   38   35 1
    38   16   18 ar
    39   27   29 ar
@<TRIPOS>SUBSTRUCTURE
     1 RES1 1

@<TRIPOS>CRYSIN
  33.1050    7.1288   13.4964  90.0000 107.1700  90.0000  15 1

