# MOL2 file generated by ConQuest
# Please check atom types

@<TRIPOS>MOLECULE
OBUWUF
    38    40     1
SMALL
NO_CHARGES
****
Generated from CSD

@<TRIPOS>ATOM
      1 N1         2.2178    2.7389    5.1481 N.2       1 RES1    0.0000
      2 N2         2.8065    3.7458    4.3928 N.am      1 RES1    0.0000
      3 N3         5.1810    9.2907    1.9624 N.pl3     1 RES1    0.0000
      4 O1         0.6113    1.8713    6.9974 O.3       1 RES1    0.0000
      5 O2         2.8254    5.1078    6.1908 O.2       1 RES1    0.0000
      6 O3         5.8655    9.0638    0.9817 O.2       1 RES1    0.0000
      7 O4         4.9295   10.4163    2.3657 O.2       1 RES1    0.0000
      8 C1         1.5970    0.4464    5.3223 C.ar      1 RES1    0.0000
      9 C2         0.7910    0.6503    6.4342 C.ar      1 RES1    0.0000
     10 C3         0.1023   -0.4259    7.0315 C.ar      1 RES1    0.0000
     11 H1        -0.4470   -0.2731    7.7671 H         1 RES1    0.0000
     12 C4         0.2372   -1.6836    6.5393 C.ar      1 RES1    0.0000
     13 H2        -0.2373   -2.3765    6.9372 H         1 RES1    0.0000
     14 C5         1.0767   -1.9697    5.4364 C.ar      1 RES1    0.0000
     15 C6         1.2432   -3.2858    4.9290 C.ar      1 RES1    0.0000
     16 H3         0.7722   -3.9876    5.3169 H         1 RES1    0.0000
     17 C7         2.0707   -3.5355    3.8916 C.ar      1 RES1    0.0000
     18 H4         2.1721   -4.4043    3.5755 H         1 RES1    0.0000
     19 C8         2.7740   -2.4923    3.2988 C.ar      1 RES1    0.0000
     20 H5         3.3453   -2.6697    2.5857 H         1 RES1    0.0000
     21 C9         2.6385   -1.2099    3.7479 C.ar      1 RES1    0.0000
     22 H6         3.1254   -0.5309    3.3393 H         1 RES1    0.0000
     23 C10        1.7701   -0.8914    4.8257 C.ar      1 RES1    0.0000
     24 C11        2.2162    1.5707    4.6407 C.2       1 RES1    0.0000
     25 H7         2.6208    1.4336    3.8153 H         1 RES1    0.0000
     26 C12        3.0546    4.9253    4.9999 C.2       1 RES1    0.0000
     27 C13        3.6299    6.0166    4.1521 C.ar      1 RES1    0.0000
     28 C14        3.3962    7.3296    4.5625 C.ar      1 RES1    0.0000
     29 H8         2.8948    7.4830    5.3304 H         1 RES1    0.0000
     30 C15        3.8890    8.3981    3.8584 C.ar      1 RES1    0.0000
     31 H9         3.7209    9.2700    4.1350 H         1 RES1    0.0000
     32 C16        4.6403    8.1479    2.7294 C.ar      1 RES1    0.0000
     33 C17        4.9046    6.8640    2.2956 C.ar      1 RES1    0.0000
     34 H10        5.4116    6.7206    1.5286 H         1 RES1    0.0000
     35 C18        4.4048    5.7910    3.0204 C.ar      1 RES1    0.0000
     36 H11        4.5886    4.9213    2.7483 H         1 RES1    0.0000
     37 H12        2.9047    3.5895    3.5135 H         1 RES1    0.0000
     38 H13        1.0406    2.4676    6.5564 H         1 RES1    0.0000
@<TRIPOS>BOND
     1    1    2 1
     2    2   26 1
     3    3    6 2
     4    4    9 1
     5    5   26 2
     6    7    3 2
     7    8    9 ar
     8    9   10 ar
     9   10   11 1
    10   12   10 ar
    11   13   12 1
    12   14   12 ar
    13   15   14 ar
    14   16   15 1
    15   17   15 ar
    16   18   17 1
    17   19   17 ar
    18   20   19 1
    19   21   19 ar
    20   22   21 1
    21   23    8 ar
    22   24    1 2
    23   25   24 1
    24   26   27 1
    25   27   28 ar
    26   28   29 1
    27   30   28 ar
    28   31   30 1
    29   32    3 1
    30   33   32 ar
    31   34   33 1
    32   35   27 ar
    33   36   35 1
    34   37    2 1
    35   38    4 1
    36    8   24 1
    37   14   23 ar
    38   21   23 ar
    39   30   32 ar
    40   33   35 ar
@<TRIPOS>SUBSTRUCTURE
     1 RES1 1

@<TRIPOS>CRYSIN
  11.2080   15.4320    8.9820  90.0000  90.7010  90.0000  14 1

