# MOL2 file generated by ConQuest
# Please check atom types

@<TRIPOS>MOLECULE
OBUXOA
    26    26     1
SMALL
NO_CHARGES
****
Generated from CSD

@<TRIPOS>ATOM
      1 N1         2.2110   -1.7942    7.5729 N.pl3     1 RES1    0.0000
      2 H1         2.5435   -2.4499    7.1260 H         1 RES1    0.0000
      3 O1         1.7730   -5.6437    9.0800 O.2       1 RES1    0.0000
      4 C1         3.2307    0.8536    5.0740 C.3       1 RES1    0.0000
      5 H2         3.6807    0.7665    4.2303 H         1 RES1    0.0000
      6 H3         3.7647    1.3864    5.6676 H         1 RES1    0.0000
      7 H4         2.3800    1.2779    4.9407 H         1 RES1    0.0000
      8 O2         2.5057   -4.4170    7.4813 O.2       1 RES1    0.0000
      9 N2         1.9468   -4.5444    8.5681 N.pl3     1 RES1    0.0000
     10 C2         3.0215   -0.5164    5.6764 C.3       1 RES1    0.0000
     11 H5         2.4955   -1.0557    5.0653 H         1 RES1    0.0000
     12 H6         3.8828   -0.9491    5.7888 H         1 RES1    0.0000
     13 C3         2.3268   -0.4546    6.9987 C.3       1 RES1    0.0000
     14 H7         2.8270    0.1164    7.6028 H         1 RES1    0.0000
     15 H8         1.4430   -0.0719    6.8845 H         1 RES1    0.0000
     16 N3        -0.9208   -2.9481   13.4334 N.1       1 RES1    0.0000
     17 C4         1.6271   -2.0737    8.7368 C.ar      1 RES1    0.0000
     18 C5         1.4638   -3.3790    9.2720 C.ar      1 RES1    0.0000
     19 C6         0.8267   -3.6073   10.4750 C.ar      1 RES1    0.0000
     20 H9         0.7443   -4.4769   10.7949 H         1 RES1    0.0000
     21 C7         0.3113   -2.5585   11.2045 C.ar      1 RES1    0.0000
     22 C8         0.4724   -1.2592   10.7112 C.ar      1 RES1    0.0000
     23 H10        0.1439   -0.5421   11.2037 H         1 RES1    0.0000
     24 C9         1.0941   -1.0233    9.5362 C.ar      1 RES1    0.0000
     25 H11        1.1774   -0.1454    9.2398 H         1 RES1    0.0000
     26 C10       -0.3783   -2.7888   12.4423 C.1       1 RES1    0.0000
@<TRIPOS>BOND
     1    1    2 1
     2    3    9 2
     3    4    5 1
     4    6    4 1
     5    7    4 1
     6    8    9 2
     7    9   18 1
     8   10    4 1
     9   11   10 1
    10   12   10 1
    11   13    1 1
    12   14   13 1
    13   15   13 1
    14   16   26 3
    15   17    1 1
    16   18   17 ar
    17   19   18 ar
    18   20   19 1
    19   21   19 ar
    20   22   21 ar
    21   23   22 1
    22   24   17 ar
    23   25   24 1
    24   26   21 1
    25   10   13 1
    26   22   24 ar
@<TRIPOS>SUBSTRUCTURE
     1 RES1 1

@<TRIPOS>CRYSIN
   7.6320    7.9200    9.2440 109.3000  91.2800  93.0000   2 1

