# MOL2 file generated by ConQuest
# Please check atom types

@<TRIPOS>MOLECULE
OCALEL
    33    34     1
SMALL
NO_CHARGES
****
Generated from CSD

@<TRIPOS>ATOM
      1 N1         0.7532   10.0394    2.8062 N.ar      1 RES1    0.0000
      2 N2         1.3429    7.4489    0.5038 N.2       1 RES1    0.0000
      3 N3         0.9459    6.1820    0.1454 N.am      1 RES1    0.0000
      4 N4         4.1903    6.4275    0.3909 N.pl3     1 RES1    0.0000
      5 O1         1.2621    4.4705   -1.2716 O.2       1 RES1    0.0000
      6 O2         4.8829    7.1851    1.0484 O.2       1 RES1    0.0000
      7 O3         3.7460    5.3946    0.8296 O.2       1 RES1    0.0000
      8 C1         1.2472    9.4249    1.7276 C.ar      1 RES1    0.0000
      9 C2         2.1738   10.0352    0.8908 C.ar      1 RES1    0.0000
     10 H1         2.5192    9.5769    0.1596 H         1 RES1    0.0000
     11 C3         2.5751   11.3253    1.1565 C.ar      1 RES1    0.0000
     12 H2         3.1778   11.7574    0.5960 H         1 RES1    0.0000
     13 C4         2.0709   11.9654    2.2641 C.ar      1 RES1    0.0000
     14 H3         2.3251   12.8357    2.4691 H         1 RES1    0.0000
     15 C5         1.1849   11.2864    3.0553 C.ar      1 RES1    0.0000
     16 H4         0.8607   11.7156    3.8134 H         1 RES1    0.0000
     17 C6         0.7351    8.0533    1.4549 C.2       1 RES1    0.0000
     18 C7        -0.4025    7.5166    2.2591 C.3       1 RES1    0.0000
     19 H5        -1.0810    7.1806    1.6695 H         1 RES1    0.0000
     20 H6        -0.7698    8.2179    2.8030 H         1 RES1    0.0000
     21 H7        -0.0884    6.8055    2.8235 H         1 RES1    0.0000
     22 C8         1.5916    5.5786   -0.8680 C.2       1 RES1    0.0000
     23 C9         2.6817    6.3633   -1.5618 C.ar      1 RES1    0.0000
     24 C10        3.8628    6.7986   -0.9819 C.ar      1 RES1    0.0000
     25 C11        4.7831    7.5710   -1.6652 C.ar      1 RES1    0.0000
     26 H8         5.5548    7.8704   -1.2419 H         1 RES1    0.0000
     27 C12        4.5428    7.8891   -2.9726 C.ar      1 RES1    0.0000
     28 H9         5.1624    8.3944   -3.4473 H         1 RES1    0.0000
     29 C13        3.3979    7.4685   -3.5850 C.ar      1 RES1    0.0000
     30 H10        3.2395    7.6886   -4.4739 H         1 RES1    0.0000
     31 C14        2.4681    6.7119   -2.8803 C.ar      1 RES1    0.0000
     32 H11        1.6884    6.4348   -3.3053 H         1 RES1    0.0000
     33 H12        0.2882    5.7032    0.5433 H         1 RES1    0.0000
@<TRIPOS>BOND
     1    1    8 ar
     2    2    3 1
     3    3   22 1
     4    4    6 2
     5    5   22 2
     6    7    4 2
     7    8    9 ar
     8    9   10 1
     9   11    9 ar
    10   12   11 1
    11   13   11 ar
    12   14   13 1
    13   15    1 ar
    14   16   15 1
    15   17    2 2
    16   18   17 1
    17   19   18 1
    18   20   18 1
    19   21   18 1
    20   22   23 1
    21   23   24 ar
    22   24    4 1
    23   25   24 ar
    24   26   25 1
    25   27   25 ar
    26   28   27 1
    27   29   27 ar
    28   30   29 1
    29   31   23 ar
    30   32   31 1
    31   33    3 1
    32    8   17 1
    33   13   15 ar
    34   29   31 ar
@<TRIPOS>SUBSTRUCTURE
     1 RES1 1

@<TRIPOS>CRYSIN
  10.8303    8.9112   14.9437  90.0000 101.4830  90.0000 231 1

