# MOL2 file generated by ConQuest
# Please check atom types

@<TRIPOS>MOLECULE
OCAQIT
    19    20     1
SMALL
NO_CHARGES
****
Generated from CSD

@<TRIPOS>ATOM
      1 C1         0.6189    2.8830   11.0223 C.2       1 RES1    0.0000
      2 O1         0.8661    2.1577   11.9544 O.2       1 RES1    0.0000
      3 O2         1.0092    4.1933   11.1467 O.3       1 RES1    0.0000
      4 N1         0.7880    5.1977   10.1449 N.2       1 RES1    0.0000
      5 C2         0.1843    4.8246    9.0734 C.2       1 RES1    0.0000
      6 C3        -0.0189    5.9104    8.0594 C.3       1 RES1    0.0000
      7 H1         0.3495    6.7423    8.3969 H         1 RES1    0.0000
      8 H2        -0.9676    6.0212    7.8912 H         1 RES1    0.0000
      9 H3         0.4302    5.6691    7.2339 H         1 RES1    0.0000
     10 C4        -0.2705    3.4722    8.8083 C.ar      1 RES1    0.0000
     11 C5        -0.8866    3.1018    7.6097 C.ar      1 RES1    0.0000
     12 H4        -1.0295    3.7387    6.9332 H         1 RES1    0.0000
     13 C6        -1.2829    1.7901    7.4307 C.ar      1 RES1    0.0000
     14 H5        -1.7033    1.5390    6.6284 H         1 RES1    0.0000
     15 C7        -1.0695    0.8403    8.4147 C.ar      1 RES1    0.0000
     16 H6        -1.3500   -0.0463    8.2739 H         1 RES1    0.0000
     17 C8        -0.4494    1.1784    9.6023 C.ar      1 RES1    0.0000
     18 H7        -0.2956    0.5331   10.2679 H         1 RES1    0.0000
     19 C9        -0.0552    2.5140    9.7882 C.ar      1 RES1    0.0000
@<TRIPOS>BOND
     1    1    2 2
     2    3    1 1
     3    4    3 1
     4    5    4 2
     5    6    5 1
     6    7    6 1
     7    8    6 1
     8    9    6 1
     9   10    5 1
    10   11   10 ar
    11   12   11 1
    12   13   11 ar
    13   14   13 1
    14   15   13 ar
    15   16   15 1
    16   17   15 ar
    17   18   17 1
    18   19    1 1
    19   10   19 ar
    20   17   19 ar
@<TRIPOS>SUBSTRUCTURE
     1 RES1 1

@<TRIPOS>CRYSIN
   3.8510   14.0290   13.7120  90.0000  94.6500  90.0000  14 1

