# MOL2 file generated by ConQuest
# Please check atom types

@<TRIPOS>MOLECULE
OCARPO
    41    45     1
SMALL
USER_CHARGES
****
Generated from CSD

@<TRIPOS>ATOM
      1 C1        -2.6161   -4.2659   -1.8513 C.ar      1 RES1    0.0000
      2 C2        -3.9396   -4.1198   -1.5692 C.ar      1 RES1    0.0000
      3 C3        -4.8061   -3.4522   -2.3995 C.ar      1 RES1    0.0000
      4 C4        -4.4023   -2.9316   -3.5988 C.ar      1 RES1    0.0000
      5 C5        -3.0367   -3.0484   -3.9210 C.ar      1 RES1    0.0000
      6 C6        -2.5685   -2.4579   -5.2158 C.3       1 RES1    0.0000
      7 C7        -1.2169   -3.0086   -5.6341 C.3       1 RES1    0.0000
      8 N1        -0.2552   -2.8899   -4.4950 N.4       1 RES1    1.0000
      9 C8         1.1048   -3.2822   -5.0073 C.3       1 RES1    0.0000
     10 C9         2.0974   -3.4885   -3.8774 C.ar      1 RES1    0.0000
     11 C10        3.4433   -3.5434   -4.2038 C.ar      1 RES1    0.0000
     12 C11        4.3883   -3.8418   -3.2311 C.ar      1 RES1    0.0000
     13 C12        3.9817   -4.0737   -1.9278 C.ar      1 RES1    0.0000
     14 C13        2.6358   -3.9905   -1.6050 C.ar      1 RES1    0.0000
     15 C14        1.6880   -3.6921   -2.5553 C.ar      1 RES1    0.0000
     16 C15        0.2355   -3.5575   -2.1629 C.3       1 RES1    0.0000
     17 C16       -0.6702   -3.8302   -3.3679 C.3       1 RES1    0.0000
     18 C17       -2.1535   -3.6930   -3.0542 C.ar      1 RES1    0.0000
     19 O1        -0.0477   -2.2711   -1.5973 O.3       1 RES1    0.0000
     20 O2        -4.6238   -4.5660   -0.4435 O.3       1 RES1    0.0000
     21 O3        -6.0819   -3.4442   -1.8345 O.3       1 RES1    0.0000
     22 O4         3.8247   -3.3999   -5.5281 O.3       1 RES1    0.0000
     23 O5         5.7089   -3.9099   -3.6437 O.3       1 RES1    0.0000
     24 C18       -5.9613   -4.0728   -0.6064 C.3       1 RES1    0.0000
     25 C19        4.3714   -2.0851   -5.8270 C.3       1 RES1    0.0000
     26 C20        6.6931   -4.1649   -2.6465 C.3       1 RES1    0.0000
     27 O6        -0.2159   -1.5610   -4.0522 O.2       1 RES1   -1.0000
     28 H1        -1.9908   -4.7280   -1.2211 H         1 RES1    0.0000
     29 H2        -5.0472   -2.4791   -4.2319 H         1 RES1    0.0000
     30 H3        -2.4675   -1.4963   -5.1231 H         1 RES1    0.0000
     31 H4        -3.1966   -2.7093   -5.9302 H         1 RES1    0.0000
     32 H5        -1.3179   -3.9577   -5.8670 H         1 RES1    0.0000
     33 H6        -0.8973   -2.4614   -6.3934 H         1 RES1    0.0000
     34 H7         0.9814   -4.1260   -5.5161 H         1 RES1    0.0000
     35 H8         1.4300   -2.5411   -5.6004 H         1 RES1    0.0000
     36 H9         4.4864   -4.3030   -1.2282 H         1 RES1    0.0000
     37 H10        2.3554   -4.1437   -0.6597 H         1 RES1    0.0000
     38 H11       -0.0000   -4.2765   -1.4738 H         1 RES1    0.0000
     39 H12       -0.5608   -4.7812   -3.6494 H         1 RES1    0.0000
     40 H13       -6.5894   -4.8697   -0.5614 H         1 RES1    0.0000
     41 H14       -6.1688   -3.4531    0.1404 H         1 RES1    0.0000
@<TRIPOS>BOND
     1    1    2 ar
     2    2    3 ar
     3    3    4 ar
     4    4    5 ar
     5    5    6 1
     6    6    7 1
     7    7    8 1
     8    8    9 1
     9    9   10 1
    10   10   11 ar
    11   11   12 ar
    12   12   13 ar
    13   13   14 ar
    14   14   15 ar
    15   15   10 ar
    16   16   15 1
    17   17    8 1
    18   18    1 ar
    19   19   16 1
    20   20    2 1
    21   21    3 1
    22   22   11 1
    23   23   12 1
    24   24   20 1
    25   25   22 1
    26   26   23 1
    27   27    8 1
    28   28    1 1
    29   29    4 1
    30   30    6 1
    31   31    6 1
    32   32    7 1
    33   33    7 1
    34   34    9 1
    35   35    9 1
    36   36   13 1
    37   37   14 1
    38   38   16 1
    39   39   17 1
    40   40   24 1
    41   41   24 1
    42    5   18 ar
    43   16   17 1
    44   17   18 1
    45   21   24 1
@<TRIPOS>SUBSTRUCTURE
     1 RES1 1

@<TRIPOS>CRYSIN
  28.0400    8.8540    7.0180  90.0000  90.0000  90.0000  19 1

