# MOL2 file generated by ConQuest
# Please check atom types

@<TRIPOS>MOLECULE
OCATEU
    39    40     1
SMALL
NO_CHARGES
****
Generated from CSD

@<TRIPOS>ATOM
      1 C1         3.5644    9.5956   12.1407 C.3       1 RES1    0.0000
      2 H1         3.2854    9.4234   13.0851 H         1 RES1    0.0000
      3 C2         2.4483    9.2201   11.1860 C.3       1 RES1    0.0000
      4 H2         1.5751    9.5359   11.5574 H         1 RES1    0.0000
      5 C3         2.3381    7.7502   10.8192 C.3       1 RES1    0.0000
      6 H3         1.7180    7.6403   10.0424 H         1 RES1    0.0000
      7 C4         3.6944    7.1567   10.4824 C.3       1 RES1    0.0000
      8 H4         4.0354    7.5702    9.6505 H         1 RES1    0.0000
      9 H5         3.5971    6.1842   10.3237 H         1 RES1    0.0000
     10 C5         4.7089    7.3886   11.6202 C.3       1 RES1    0.0000
     11 H6         4.3635    6.9715   12.4610 H         1 RES1    0.0000
     12 C6         4.9104    8.8939   11.8441 C.3       1 RES1    0.0000
     13 H7         5.3057    9.2919   11.0167 H         1 RES1    0.0000
     14 O1         3.6877   11.0070   11.9081 O.3       1 RES1    0.0000
     15 O2         2.7919   10.0112   10.0457 O.3       1 RES1    0.0000
     16 C7         3.1657   11.2861   10.5713 C.3       1 RES1    0.0000
     17 C8         4.2464   11.8684    9.7064 C.3       1 RES1    0.0000
     18 H8         4.9853   11.2290    9.6324 H         1 RES1    0.0000
     19 H9         4.5737   12.7007   10.1077 H         1 RES1    0.0000
     20 H10        3.8856   12.0553    8.8141 H         1 RES1    0.0000
     21 C9         1.9523   12.1894   10.7083 C.3       1 RES1    0.0000
     22 H11        1.5957   12.3944    9.8193 H         1 RES1    0.0000
     23 H12        2.2132   13.0208   11.1564 H         1 RES1    0.0000
     24 H13        1.2651   11.7343   11.2381 H         1 RES1    0.0000
     25 C10        5.9963    6.6990   11.2092 C.2       1 RES1    0.0000
     26 O3         6.7851    7.1383   10.4093 O.2       1 RES1    0.0000
     27 O4         6.1202    5.5075   11.8062 O.3       1 RES1    0.0000
     28 C11        7.2932    4.7359   11.4560 C.3       1 RES1    0.0000
     29 H14        7.2114    4.4184   10.5323 H         1 RES1    0.0000
     30 H15        7.3716    3.9685   12.0600 H         1 RES1    0.0000
     31 H16        8.0907    5.2992   11.5375 H         1 RES1    0.0000
     32 O5         1.8236    7.0433   11.9538 O.3       1 RES1    0.0000
     33 C12        5.8198    9.2175   13.0254 C.3       1 RES1    0.0000
     34 H17        5.6674   10.1545   13.3046 H         1 RES1    0.0000
     35 H18        5.5838    8.6309   13.7872 H         1 RES1    0.0000
     36 N1         7.2666    9.0332   12.6966 N.pl3     1 RES1    0.0000
     37 O6         7.8393    8.0161   13.1029 O.2       1 RES1    0.0000
     38 O7         7.8026    9.8924   12.0130 O.2       1 RES1    0.0000
     39 H19        1.1367    7.4059   12.1761 H         1 RES1    0.0000
@<TRIPOS>BOND
     1    1    2 1
     2    3    1 1
     3    4    3 1
     4    5    3 1
     5    6    5 1
     6    7    5 1
     7    8    7 1
     8    9    7 1
     9   10    7 1
    10   11   10 1
    11   12    1 1
    12   13   12 1
    13   14    1 1
    14   15    3 1
    15   16   14 1
    16   17   16 1
    17   18   17 1
    18   19   17 1
    19   20   17 1
    20   21   16 1
    21   22   21 1
    22   23   21 1
    23   24   21 1
    24   25   10 1
    25   26   25 2
    26   27   25 1
    27   28   27 1
    28   29   28 1
    29   30   28 1
    30   31   28 1
    31   32    5 1
    32   33   12 1
    33   34   33 1
    34   35   33 1
    35   36   33 1
    36   37   36 2
    37   38   36 2
    38   39   32 1
    39   10   12 1
    40   15   16 1
@<TRIPOS>SUBSTRUCTURE
     1 RES1 1

@<TRIPOS>CRYSIN
   8.6117    8.6517   18.1435  90.0000  90.0000  90.0000  19 1

