# MOL2 file generated by ConQuest
# Please check atom types

@<TRIPOS>MOLECULE
OCEKUE
    39    42     1
SMALL
NO_CHARGES
****
Generated from CSD

@<TRIPOS>ATOM
      1 O1         1.9310    3.0848    1.1526 O.3       1 RES1    0.0000
      2 N1         1.7475    1.2420    2.6487 N.2       1 RES1    0.0000
      3 N2         1.1645    4.2309    0.8194 N.2       1 RES1    0.0000
      4 C1         2.9107   -1.1680    3.9198 C.ar      1 RES1    0.0000
      5 C2         1.7502   -0.7727    4.6505 C.ar      1 RES1    0.0000
      6 C3         1.2444   -1.5527    5.6456 C.ar      1 RES1    0.0000
      7 C4         1.8220   -2.7885    5.9744 C.ar      1 RES1    0.0000
      8 C5         2.9113   -3.2072    5.3171 C.ar      1 RES1    0.0000
      9 C6         3.5112   -2.4167    4.2916 C.ar      1 RES1    0.0000
     10 C7         4.6847   -2.8299    3.6802 C.ar      1 RES1    0.0000
     11 C8         5.3496   -2.0485    2.7492 C.ar      1 RES1    0.0000
     12 C9         6.6038   -2.4543    2.2035 C.ar      1 RES1    0.0000
     13 C10        7.2785   -1.6724    1.3330 C.ar      1 RES1    0.0000
     14 C11        6.7385   -0.4329    0.9610 C.ar      1 RES1    0.0000
     15 C12        5.5405   -0.0099    1.4357 C.ar      1 RES1    0.0000
     16 C13        4.7729   -0.7930    2.3516 C.ar      1 RES1    0.0000
     17 C14        3.5203   -0.3891    2.8900 C.ar      1 RES1    0.0000
     18 C15        2.9034    0.8103    2.3454 C.2       1 RES1    0.0000
     19 C16        1.2484    2.3982    2.1076 C.2       1 RES1    0.0000
     20 C17        0.0903    3.0284    2.3976 C.2       1 RES1    0.0000
     21 C18        0.0976    4.1631    1.5684 C.2       1 RES1    0.0000
     22 C19       -0.9471    5.2250    1.4898 C.3       1 RES1    0.0000
     23 C20       -0.9369    2.6165    3.3896 C.3       1 RES1    0.0000
     24 H1         1.3319    0.0319    4.4433 H         1 RES1    0.0000
     25 H2         0.4992   -1.2596    6.1186 H         1 RES1    0.0000
     26 H3         1.4500   -3.3148    6.6452 H         1 RES1    0.0000
     27 H4         3.2849   -4.0307    5.5338 H         1 RES1    0.0000
     28 H5         5.0382   -3.6610    3.9027 H         1 RES1    0.0000
     29 H6         6.9644   -3.2748    2.4526 H         1 RES1    0.0000
     30 H7         8.0931   -1.9537    0.9836 H         1 RES1    0.0000
     31 H8         7.2129    0.1116    0.3753 H         1 RES1    0.0000
     32 H9         5.2093    0.8132    1.1573 H         1 RES1    0.0000
     33 H10        3.3943    1.2999    1.7256 H         1 RES1    0.0000
     34 H11       -1.0323    5.6538    2.3445 H         1 RES1    0.0000
     35 H12       -1.7872    4.8300    1.2449 H         1 RES1    0.0000
     36 H13       -0.6941    5.8744    0.8297 H         1 RES1    0.0000
     37 H14       -0.6521    1.8122    3.8302 H         1 RES1    0.0000
     38 H15       -1.7701    2.4569    2.9402 H         1 RES1    0.0000
     39 H16       -1.0520    3.3135    4.0393 H         1 RES1    0.0000
@<TRIPOS>BOND
     1    1    3 1
     2    2   18 2
     3    3   21 2
     4    4    5 ar
     5    5    6 ar
     6    6    7 ar
     7    7    8 ar
     8    8    9 ar
     9    9    4 ar
    10   10    9 ar
    11   11   10 ar
    12   12   11 ar
    13   13   12 ar
    14   14   13 ar
    15   15   14 ar
    16   16   11 ar
    17   17    4 ar
    18   18   17 1
    19   19    1 1
    20   20   19 2
    21   21   20 1
    22   22   21 1
    23   23   20 1
    24   24    5 1
    25   25    6 1
    26   26    7 1
    27   27    8 1
    28   28   10 1
    29   29   12 1
    30   30   13 1
    31   31   14 1
    32   32   15 1
    33   33   18 1
    34   34   22 1
    35   35   22 1
    36   36   22 1
    37   37   23 1
    38   38   23 1
    39   39   23 1
    40    2   19 1
    41   15   16 ar
    42   16   17 ar
@<TRIPOS>SUBSTRUCTURE
     1 RES1 1

@<TRIPOS>CRYSIN
  22.4919    6.1666   22.6801  90.0000 102.0150  90.0000  15 1

