# MOL2 file generated by ConQuest
# Please check atom types

@<TRIPOS>MOLECULE
OCHTET17
    28    28     1
SMALL
NO_CHARGES
****
Generated from CSD

@<TRIPOS>ATOM
      1 N1         5.6587    6.8693    3.3186 N.3       1 RES1    0.0000
      2 O1         7.5855    7.9402    3.1426 O.2       1 RES1    0.0000
      3 N2         6.5788    7.7556    3.8208 N.pl3     1 RES1    0.0000
      4 N3         4.4574    5.7891    5.0659 N.3       1 RES1    0.0000
      5 O2         3.2722    4.7281    6.6226 O.2       1 RES1    0.0000
      6 N4         3.2803    5.5282    5.7010 N.pl3     1 RES1    0.0000
      7 O3         6.3384    8.2414    4.9136 O.2       1 RES1    0.0000
      8 C1         4.3892    6.7804    3.9789 C.3       1 RES1    0.0000
      9 H1         3.7063    6.5195    3.3416 H         1 RES1    0.0000
     10 H2         4.1489    7.6475    4.3424 H         1 RES1    0.0000
     11 O4         2.3119    6.1790    5.3102 O.2       1 RES1    0.0000
     12 C2         5.9257    6.2495    2.0325 C.3       1 RES1    0.0000
     13 H3         5.1078    5.8231    1.7315 H         1 RES1    0.0000
     14 H4         6.1936    6.8948    1.3601 H         1 RES1    0.0000
     15 N1B        5.7772    4.1676    3.8661 N.3       1 RES1    0.0000
     16 O1B        3.8503    3.0967    4.0421 O.2       1 RES1    0.0000
     17 N2B        4.8570    3.2813    3.3639 N.pl3     1 RES1    0.0000
     18 N3B        6.9784    5.2478    2.1188 N.3       1 RES1    0.0000
     19 O2B        8.1636    6.3088    0.5621 O.2       1 RES1    0.0000
     20 N4B        8.1555    5.5087    1.4836 N.pl3     1 RES1    0.0000
     21 O3B        5.0975    2.7955    2.2711 O.2       1 RES1    0.0000
     22 C1B        7.0466    4.2565    3.2058 C.3       1 RES1    0.0000
     23 H1B        7.7295    4.5174    3.8431 H         1 RES1    0.0000
     24 H2B        7.2869    3.3894    2.8423 H         1 RES1    0.0000
     25 O4B        9.1239    4.8579    1.8745 O.2       1 RES1    0.0000
     26 C2B        5.5102    4.7874    5.1521 C.3       1 RES1    0.0000
     27 H3B        6.3280    5.2138    5.4532 H         1 RES1    0.0000
     28 H4B        5.2422    4.1421    5.8246 H         1 RES1    0.0000
@<TRIPOS>BOND
     1    1    3 1
     2    2    3 2
     3    3    7 2
     4    4    6 1
     5    5    6 2
     6    6   11 2
     7    8    1 1
     8    9    8 1
     9   10    8 1
    10   12    1 1
    11   13   12 1
    12   14   12 1
    13   15   17 1
    14   16   17 2
    15   17   21 2
    16   18   12 1
    17   19   20 2
    18   20   18 1
    19   22   15 1
    20   23   22 1
    21   24   22 1
    22   25   20 2
    23   26    4 1
    24   27   26 1
    25   28   26 1
    26    4    8 1
    27   15   26 1
    28   18   22 1
@<TRIPOS>SUBSTRUCTURE
     1 RES1 1

@<TRIPOS>CRYSIN
   6.5255   11.0369    7.3640  90.0000 102.6700  90.0000 231 1

