# MOL2 file generated by ConQuest
# Please check atom types

@<TRIPOS>MOLECULE
OCHTET18
    28    28     1
SMALL
NO_CHARGES
****
Generated from CSD

@<TRIPOS>ATOM
      1 N1         5.6815    6.8168    3.3021 N.3       1 RES1    0.0000
      2 O1         7.6183    7.8805    3.1254 O.2       1 RES1    0.0000
      3 N2         6.6083    7.6959    3.8021 N.pl3     1 RES1    0.0000
      4 N3         4.4799    5.7523    5.0625 N.3       1 RES1    0.0000
      5 O2         3.2858    4.6925    6.6169 O.2       1 RES1    0.0000
      6 N4         3.2952    5.4937    5.6877 N.pl3     1 RES1    0.0000
      7 O3         6.3726    8.1840    4.8967 O.2       1 RES1    0.0000
      8 C1         4.4064    6.7367    3.9631 C.3       1 RES1    0.0000
      9 H1         3.7168    6.4656    3.3211 H         1 RES1    0.0000
     10 H2         4.1630    7.6156    4.3211 H         1 RES1    0.0000
     11 O4         2.3219    6.1380    5.2879 O.2       1 RES1    0.0000
     12 C2         5.9435    6.1864    2.0141 C.3       1 RES1    0.0000
     13 H3         5.1222    5.7598    1.7254 H         1 RES1    0.0000
     14 H4         6.2073    6.8277    1.3362 H         1 RES1    0.0000
     15 N1B        5.7973    4.1251    3.8662 N.3       1 RES1    0.0000
     16 O1B        3.8605    3.0614    4.0429 O.2       1 RES1    0.0000
     17 N2B        4.8705    3.2460    3.3662 N.pl3     1 RES1    0.0000
     18 N3B        6.9989    5.1896    2.1058 N.3       1 RES1    0.0000
     19 O2B        8.1930    6.2494    0.5514 O.2       1 RES1    0.0000
     20 N4B        8.1836    5.4482    1.4806 N.pl3     1 RES1    0.0000
     21 O3B        5.1062    2.7579    2.2716 O.2       1 RES1    0.0000
     22 C1B        7.0724    4.2052    3.2052 C.3       1 RES1    0.0000
     23 H1B        7.7620    4.4763    3.8472 H         1 RES1    0.0000
     24 H2B        7.3158    3.3263    2.8473 H         1 RES1    0.0000
     25 O4B        9.1569    4.8039    1.8804 O.2       1 RES1    0.0000
     26 C2B        5.5353    4.7555    5.1542 C.3       1 RES1    0.0000
     27 H3B        6.3566    5.1821    5.4429 H         1 RES1    0.0000
     28 H4B        5.2715    4.1142    5.8321 H         1 RES1    0.0000
@<TRIPOS>BOND
     1    1    3 1
     2    2    3 2
     3    3    7 2
     4    4    6 1
     5    5    6 2
     6    6   11 2
     7    8    1 1
     8    9    8 1
     9   10    8 1
    10   12    1 1
    11   13   12 1
    12   14   12 1
    13   15   17 1
    14   16   17 2
    15   17   21 2
    16   18   12 1
    17   19   20 2
    18   20   18 1
    19   22   15 1
    20   23   22 1
    21   24   22 1
    22   25   20 2
    23   26    4 1
    24   27   26 1
    25   28   26 1
    26    4    8 1
    27   15   26 1
    28   18   22 1
@<TRIPOS>SUBSTRUCTURE
     1 RES1 1

@<TRIPOS>CRYSIN
   6.5334   10.9419    7.3421  90.0000 102.4910  90.0000 231 1

