# MOL2 file generated by ConQuest
# Please check atom types

@<TRIPOS>MOLECULE
OCHTET12
    28    28     1
SMALL
NO_CHARGES
****
Generated from CSD

@<TRIPOS>ATOM
      1 C1        -0.2284    0.7293   -1.5510 C.3       1 RES1    0.0000
      2 C2        -1.3328   -1.2674   -0.3931 C.3       1 RES1    0.0000
      3 H1         0.7111    0.2409   -1.8852 H         1 RES1    0.0000
      4 H2        -0.4774    1.4652   -2.3164 H         1 RES1    0.0000
      5 H3        -1.6186   -2.2443   -0.8121 H         1 RES1    0.0000
      6 H4        -2.0688   -0.9580    0.3550 H         1 RES1    0.0000
      7 N1        -2.4453   -0.0232   -2.0986 N.pl3     1 RES1    0.0000
      8 N2        -1.2683   -0.2751   -1.4791 N.3       1 RES1    0.0000
      9 N3         0.0619    1.3569   -0.2710 N.3       1 RES1    0.0000
     10 N4        -0.8691    2.2354    0.2271 N.pl3     1 RES1    0.0000
     11 O1        -2.4525    0.8122   -3.0056 O.2       1 RES1    0.0000
     12 O2        -3.4092   -0.6608   -1.7048 O.2       1 RES1    0.0000
     13 O3        -0.6153    2.7183    1.3066 O.2       1 RES1    0.0000
     14 O4        -1.8531    2.4376   -0.4377 O.2       1 RES1    0.0000
     15 N3B       -0.0619   -1.3569    0.2710 N.pl3     1 RES1    0.0000
     16 C2B        1.3328    1.2674    0.3931 C.3       1 RES1    0.0000
     17 C1B        0.2284   -0.7293    1.5510 C.3       1 RES1    0.0000
     18 N4B        0.8691   -2.2354   -0.2271 N.pl3     1 RES1    0.0000
     19 H3B        1.6186    2.2443    0.8121 H         1 RES1    0.0000
     20 H4B        2.0688    0.9580   -0.3550 H         1 RES1    0.0000
     21 N2B        1.2683    0.2751    1.4791 N.3       1 RES1    0.0000
     22 H1B       -0.7111   -0.2409    1.8852 H         1 RES1    0.0000
     23 H2B        0.4774   -1.4652    2.3164 H         1 RES1    0.0000
     24 O3B        0.6153   -2.7183   -1.3066 O.2       1 RES1    0.0000
     25 O4B        1.8531   -2.4376    0.4377 O.2       1 RES1    0.0000
     26 N1B        2.4453    0.0232    2.0986 N.pl3     1 RES1    0.0000
     27 O1B        2.4525   -0.8122    3.0056 O.2       1 RES1    0.0000
     28 O2B        3.4092    0.6608    1.7048 O.2       1 RES1    0.0000
@<TRIPOS>BOND
     1    1    3 1
     2    2    5 1
     3    4    1 1
     4    6    2 1
     5    7    8 1
     6    8    1 1
     7    9    1 1
     8   10    9 1
     9   11    7 2
    10   12    7 2
    11   13   10 2
    12   14   10 2
    13   15    2 1
    14   16    9 1
    15   17   15 1
    16   18   15 1
    17   19   16 1
    18   20   16 1
    19   21   16 1
    20   22   17 1
    21   23   17 1
    22   24   18 2
    23   25   18 2
    24   26   21 1
    25   27   26 2
    26   28   26 2
    27    2    8 1
    28   17   21 1
@<TRIPOS>SUBSTRUCTURE
     1 RES1 1

@<TRIPOS>CRYSIN
   6.5400   11.0500    8.7000  90.0000 124.3000  90.0000  14 1

