# MOL2 file generated by ConQuest
# Please check atom types

@<TRIPOS>MOLECULE
OCHTET19
    28    28     1
SMALL
NO_CHARGES
****
Generated from CSD

@<TRIPOS>ATOM
      1 N1         5.6692    6.7995    3.2966 N.3       1 RES1    0.0000
      2 O1         7.6068    7.8572    3.1181 O.2       1 RES1    0.0000
      3 N2         6.5973    7.6782    3.7996 N.pl3     1 RES1    0.0000
      4 N3         4.4683    5.7424    5.0624 N.3       1 RES1    0.0000
      5 O2         3.2714    4.6815    6.6153 O.2       1 RES1    0.0000
      6 N4         3.2860    5.4771    5.6880 N.pl3     1 RES1    0.0000
      7 O3         6.3614    8.1664    4.8932 O.2       1 RES1    0.0000
      8 C1         4.3980    6.7209    3.9616 C.3       1 RES1    0.0000
      9 H1         3.6996    6.4470    3.3159 H         1 RES1    0.0000
     10 H2         4.1535    7.6102    4.3214 H         1 RES1    0.0000
     11 O4         2.3135    6.1208    5.2845 O.2       1 RES1    0.0000
     12 C2         5.9337    6.1720    2.0116 C.3       1 RES1    0.0000
     13 H3         5.1139    5.7519    1.7056 H         1 RES1    0.0000
     14 H4         6.2113    6.8136    1.3401 H         1 RES1    0.0000
     15 N1B        5.7876    4.1128    3.8699 N.3       1 RES1    0.0000
     16 O1B        3.8500    3.0551    4.0483 O.2       1 RES1    0.0000
     17 N2B        4.8594    3.2341    3.3668 N.pl3     1 RES1    0.0000
     18 N3B        6.9885    5.1699    2.1041 N.3       1 RES1    0.0000
     19 O2B        8.1854    6.2308    0.5512 O.2       1 RES1    0.0000
     20 N4B        8.1708    5.4352    1.4784 N.pl3     1 RES1    0.0000
     21 O3B        5.0954    2.7459    2.2732 O.2       1 RES1    0.0000
     22 C1B        7.0588    4.1914    3.2048 C.3       1 RES1    0.0000
     23 H1B        7.7572    4.4653    3.8505 H         1 RES1    0.0000
     24 H2B        7.3033    3.3021    2.8451 H         1 RES1    0.0000
     25 O4B        9.1433    4.7915    1.8819 O.2       1 RES1    0.0000
     26 C2B        5.5231    4.7403    5.1548 C.3       1 RES1    0.0000
     27 H3B        6.3429    5.1604    5.4608 H         1 RES1    0.0000
     28 H4B        5.2455    4.0987    5.8263 H         1 RES1    0.0000
@<TRIPOS>BOND
     1    1    3 1
     2    2    3 2
     3    3    7 2
     4    4    6 1
     5    5    6 2
     6    6   11 2
     7    8    1 1
     8    9    8 1
     9   10    8 1
    10   12    1 1
    11   13   12 1
    12   14   12 1
    13   15   17 1
    14   16   17 2
    15   17   21 2
    16   18   12 1
    17   19   20 2
    18   20   18 1
    19   22   15 1
    20   23   22 1
    21   24   22 1
    22   25   20 2
    23   26    4 1
    24   27   26 1
    25   28   26 1
    26    4    8 1
    27   15   26 1
    28   18   22 1
@<TRIPOS>SUBSTRUCTURE
     1 RES1 1

@<TRIPOS>CRYSIN
   6.5206   10.9123    7.3395  90.0000 102.4670  90.0000 231 1

