# MOL2 file generated by ConQuest
# Please check atom types

@<TRIPOS>MOLECULE
OCHTET21
    28    28     1
SMALL
NO_CHARGES
****
Generated from CSD

@<TRIPOS>ATOM
      1 N1         5.6887    6.7601    3.2844 N.3       1 RES1    0.0000
      2 O1         7.6345    7.8128    3.1054 O.2       1 RES1    0.0000
      3 N2         6.6234    7.6328    3.7848 N.pl3     1 RES1    0.0000
      4 N3         4.4891    5.7135    5.0604 N.3       1 RES1    0.0000
      5 O2         3.2863    4.6538    6.6112 O.2       1 RES1    0.0000
      6 N4         3.3005    5.4508    5.6779 N.pl3     1 RES1    0.0000
      7 O3         6.3913    8.1227    4.8819 O.2       1 RES1    0.0000
      8 C1         4.4128    6.6881    3.9478 C.3       1 RES1    0.0000
      9 H1         3.7159    6.4064    3.3035 H         1 RES1    0.0000
     10 H2         4.1673    7.5804    4.2999 H         1 RES1    0.0000
     11 O4         2.3242    6.0900    5.2678 O.2       1 RES1    0.0000
     12 C2         5.9475    6.1238    1.9977 C.3       1 RES1    0.0000
     13 H3         5.1187    5.7029    1.7197 H         1 RES1    0.0000
     14 H4         6.2049    6.7631    1.3155 H         1 RES1    0.0000
     15 N1B        5.8054    4.0799    3.8691 N.3       1 RES1    0.0000
     16 O1B        3.8595    3.0272    4.0481 O.2       1 RES1    0.0000
     17 N2B        4.8706    3.2072    3.3686 N.pl3     1 RES1    0.0000
     18 N3B        7.0050    5.1265    2.0930 N.3       1 RES1    0.0000
     19 O2B        8.2078    6.1862    0.5422 O.2       1 RES1    0.0000
     20 N4B        8.1936    5.3892    1.4755 N.pl3     1 RES1    0.0000
     21 O3B        5.1027    2.7173    2.2716 O.2       1 RES1    0.0000
     22 C1B        7.0813    4.1519    3.2057 C.3       1 RES1    0.0000
     23 H1B        7.7782    4.4336    3.8500 H         1 RES1    0.0000
     24 H2B        7.3268    3.2596    2.8535 H         1 RES1    0.0000
     25 O4B        9.1699    4.7500    1.8856 O.2       1 RES1    0.0000
     26 C2B        5.5466    4.7162    5.1558 C.3       1 RES1    0.0000
     27 H3B        6.3754    5.1371    5.4338 H         1 RES1    0.0000
     28 H4B        5.2892    4.0769    5.8379 H         1 RES1    0.0000
@<TRIPOS>BOND
     1    1    3 1
     2    2    3 2
     3    3    7 2
     4    4    6 1
     5    5    6 2
     6    6   11 2
     7    8    1 1
     8    9    8 1
     9   10    8 1
    10   12    1 1
    11   13   12 1
    12   14   12 1
    13   15   17 1
    14   16   17 2
    15   17   21 2
    16   18   12 1
    17   19   20 2
    18   20   18 1
    19   22   15 1
    20   23   22 1
    21   24   22 1
    22   25   20 2
    23   26    4 1
    24   27   26 1
    25   28   26 1
    26    4    8 1
    27   15   26 1
    28   18   22 1
@<TRIPOS>SUBSTRUCTURE
     1 RES1 1

@<TRIPOS>CRYSIN
   6.5250   10.8400    7.3207  90.0000 102.2710  90.0000 231 1

