# MOL2 file generated by ConQuest
# Please check atom types

@<TRIPOS>MOLECULE
OCHTET20
    28    28     1
SMALL
NO_CHARGES
****
Generated from CSD

@<TRIPOS>ATOM
      1 N1         5.6862    6.7856    3.2921 N.3       1 RES1    0.0000
      2 O1         7.6265    7.8432    3.1143 O.2       1 RES1    0.0000
      3 N2         6.6167    7.6611    3.7918 N.pl3     1 RES1    0.0000
      4 N3         4.4855    5.7306    5.0614 N.3       1 RES1    0.0000
      5 O2         3.2876    4.6709    6.6135 O.2       1 RES1    0.0000
      6 N4         3.2988    5.4697    5.6821 N.pl3     1 RES1    0.0000
      7 O3         6.3829    8.1505    4.8881 O.2       1 RES1    0.0000
      8 C1         4.4105    6.7096    3.9541 C.3       1 RES1    0.0000
      9 H1         3.7137    6.4316    3.3081 H         1 RES1    0.0000
     10 H2         4.1645    7.5997    4.3105 H         1 RES1    0.0000
     11 O4         2.3249    6.1117    5.2775 O.2       1 RES1    0.0000
     12 C2         5.9464    6.1523    2.0058 C.3       1 RES1    0.0000
     13 H3         5.1199    5.7338    1.7185 H         1 RES1    0.0000
     14 H4         6.2122    6.7941    1.3282 H         1 RES1    0.0000
     15 N1B        5.8017    4.1006    3.8682 N.3       1 RES1    0.0000
     16 O1B        3.8613    3.0430    4.0461 O.2       1 RES1    0.0000
     17 N2B        4.8712    3.2251    3.3685 N.pl3     1 RES1    0.0000
     18 N3B        7.0023    5.1556    2.0990 N.3       1 RES1    0.0000
     19 O2B        8.2003    6.2153    0.5468 O.2       1 RES1    0.0000
     20 N4B        8.1890    5.4165    1.4783 N.pl3     1 RES1    0.0000
     21 O3B        5.1050    2.7357    2.2723 O.2       1 RES1    0.0000
     22 C1B        7.0774    4.1766    3.2063 C.3       1 RES1    0.0000
     23 H1B        7.7742    4.4546    3.8523 H         1 RES1    0.0000
     24 H2B        7.3234    3.2865    2.8498 H         1 RES1    0.0000
     25 O4B        9.1630    4.7745    1.8828 O.2       1 RES1    0.0000
     26 C2B        5.5415    4.7339    5.1545 C.3       1 RES1    0.0000
     27 H3B        6.3680    5.1524    5.4419 H         1 RES1    0.0000
     28 H4B        5.2757    4.0921    5.8321 H         1 RES1    0.0000
@<TRIPOS>BOND
     1    1    3 1
     2    2    3 2
     3    3    7 2
     4    4    6 1
     5    5    6 2
     6    6   11 2
     7    8    1 1
     8    9    8 1
     9   10    8 1
    10   12    1 1
    11   13   12 1
    12   14   12 1
    13   15   17 1
    14   16   17 2
    15   17   21 2
    16   18   12 1
    17   19   20 2
    18   20   18 1
    19   22   15 1
    20   23   22 1
    21   24   22 1
    22   25   20 2
    23   26    4 1
    24   27   26 1
    25   28   26 1
    26    4    8 1
    27   15   26 1
    28   18   22 1
@<TRIPOS>SUBSTRUCTURE
     1 RES1 1

@<TRIPOS>CRYSIN
   6.5288   10.8862    7.3304  90.0000 102.3650  90.0000 231 1

