# MOL2 file generated by ConQuest
# Please check atom types

@<TRIPOS>MOLECULE
OCOMOK
    25    25     1
SMALL
NO_CHARGES
****
Generated from CSD

@<TRIPOS>ATOM
      1 C1         4.4251    1.3217    7.4836 C.ar      1 RES1    0.0000
      2 C2         3.6734    1.9079    8.4897 C.ar      1 RES1    0.0000
      3 H1         3.2515    2.7239    8.3446 H         1 RES1    0.0000
      4 C3         3.5571    1.2751    9.6967 C.ar      1 RES1    0.0000
      5 H2         3.0676    1.6795   10.3757 H         1 RES1    0.0000
      6 C4         4.1606    0.0269    9.9345 C.ar      1 RES1    0.0000
      7 C5         4.9377   -0.5261    8.9087 C.ar      1 RES1    0.0000
      8 H3         5.3745   -1.3351    9.0458 H         1 RES1    0.0000
      9 C6         5.0609    0.1193    7.6962 C.ar      1 RES1    0.0000
     10 H4         5.5749   -0.2591    7.0207 H         1 RES1    0.0000
     11 N1         4.5536    1.9790    6.2043 N.pl3     1 RES1    0.0000
     12 O1         5.2968    1.4891    5.3564 O.2       1 RES1    0.0000
     13 O2         3.9098    3.0007    5.9886 O.2       1 RES1    0.0000
     14 N2         3.9808   -0.5945   11.1324 N.3       1 RES1    0.0000
     15 H5         3.4451   -0.2291   11.6966 H         1 RES1    0.0000
     16 C7         4.6343   -1.8360   11.5217 C.3       1 RES1    0.0000
     17 H6         4.6853   -2.4229   10.7512 H         1 RES1    0.0000
     18 H7         4.0982   -2.2791   12.1973 H         1 RES1    0.0000
     19 C8         6.0006   -0.8919   13.3577 C.2       1 RES1    0.0000
     20 C9         6.0280   -1.6116   12.0653 C.3       1 RES1    0.0000
     21 H8         6.4678   -2.4680   12.1837 H         1 RES1    0.0000
     22 H9         6.5429   -1.0973   11.4237 H         1 RES1    0.0000
     23 O3         6.8128    0.0768   13.5138 O.3       1 RES1    0.0000
     24 H10        6.6145    0.4424   14.2193 H         1 RES1    0.0000
     25 O4         5.2122   -1.2274   14.2587 O.2       1 RES1    0.0000
@<TRIPOS>BOND
     1    1    2 ar
     2    2    3 1
     3    4    2 ar
     4    5    4 1
     5    6    4 ar
     6    7    6 ar
     7    8    7 1
     8    9    1 ar
     9   10    9 1
    10   11    1 1
    11   12   11 2
    12   13   11 2
    13   14    6 1
    14   15   14 1
    15   16   14 1
    16   17   16 1
    17   18   16 1
    18   19   20 1
    19   20   16 1
    20   21   20 1
    21   22   20 1
    22   23   19 1
    23   24   23 1
    24   25   19 2
    25    7    9 ar
@<TRIPOS>SUBSTRUCTURE
     1 RES1 1

@<TRIPOS>CRYSIN
   8.3040    7.9000   15.2630  90.0000  98.9100  90.0000  14 1

