# MOL2 file generated by ConQuest
# Please check atom types

@<TRIPOS>MOLECULE
OCTEOX10
    31    32     1
SMALL
NO_CHARGES
****
Generated from CSD

@<TRIPOS>ATOM
      1 O1        10.4895    2.6561    4.7771 O.3       1 RES1    0.0000
      2 O2         8.1232    3.2442    1.7196 O.2       1 RES1    0.0000
      3 N1         9.6211    1.5068    4.4533 N.3       1 RES1    0.0000
      4 N2         8.8015    2.4205    2.4493 N.pl3     1 RES1    0.0000
      5 C1        10.2082    0.8340    3.2741 C.3       1 RES1    0.0000
      6 C2         9.4288   -0.4919    3.1581 C.3       1 RES1    0.0000
      7 C3         7.9340   -0.2325    2.9339 C.3       1 RES1    0.0000
      8 C4         7.3898    0.9064    3.7948 C.3       1 RES1    0.0000
      9 C5         8.4009    2.0794    3.8801 C.3       1 RES1    0.0000
     10 C6         9.8678    1.7063    2.1277 C.2       1 RES1    0.0000
     11 C7        11.7129    0.5788    3.4557 C.3       1 RES1    0.0000
     12 C8         5.9849    1.3043    3.2839 C.3       1 RES1    0.0000
     13 C9         7.8469    3.2938    4.5988 C.3       1 RES1    0.0000
     14 C10       10.4165    1.7445    0.7493 C.3       1 RES1    0.0000
     15 H1         9.5904   -1.0748    2.2206 H         1 RES1    0.0000
     16 H2         9.6358   -0.9095    4.0694 H         1 RES1    0.0000
     17 H3         7.7920    0.0207    1.8159 H         1 RES1    0.0000
     18 H4         7.4454   -1.0852    2.9973 H         1 RES1    0.0000
     19 H5         7.3526    0.6511    4.9007 H         1 RES1    0.0000
     20 H6        12.4849    1.3642    3.3802 H         1 RES1    0.0000
     21 H7        11.9186   -0.1240    2.6254 H         1 RES1    0.0000
     22 H8        11.9417    0.1344    4.4522 H         1 RES1    0.0000
     23 H9         5.4767    0.4444    3.1723 H         1 RES1    0.0000
     24 H10        6.0906    1.5089    2.2206 H         1 RES1    0.0000
     25 H11        5.4539    2.1910    3.9709 H         1 RES1    0.0000
     26 H12        7.6220    3.1418    5.6008 H         1 RES1    0.0000
     27 H13        7.3796    3.7206    4.1897 H         1 RES1    0.0000
     28 H14        8.6018    4.0513    4.6601 H         1 RES1    0.0000
     29 H15       10.1599    2.4184    0.3719 H         1 RES1    0.0000
     30 H16       11.2868    1.2712    0.7767 H         1 RES1    0.0000
     31 H17        9.8516    1.0955    0.1531 H         1 RES1    0.0000
@<TRIPOS>BOND
     1    1    3 1
     2    2    4 1
     3    3    5 1
     4    4    9 1
     5    5    6 1
     6    6    7 1
     7    7    8 1
     8    8    9 1
     9    9    3 1
    10   10    4 2
    11   11    5 1
    12   12    8 1
    13   13    9 1
    14   14   10 1
    15   15    6 1
    16   16    6 1
    17   17    7 1
    18   18    7 1
    19   19    8 1
    20   20   11 1
    21   21   11 1
    22   22   11 1
    23   23   12 1
    24   24   12 1
    25   25   12 1
    26   26   13 1
    27   27   13 1
    28   28   13 1
    29   29   14 1
    30   30   14 1
    31   31   14 1
    32    5   10 1
@<TRIPOS>SUBSTRUCTURE
     1 RES1 1

@<TRIPOS>CRYSIN
   9.4590   10.3350   11.3520  90.0000 105.5000  90.0000 231 1

