# MOL2 file generated by ConQuest
# Please check atom types

@<TRIPOS>MOLECULE
OCUJEE
    19    20     1
SMALL
NO_CHARGES
****
Generated from CSD

@<TRIPOS>ATOM
      1 C1         0.8484    5.2974    9.5923 C.2       1 RES1    0.0000
      2 C2         1.3782    4.0444    9.1523 C.2       1 RES1    0.0000
      3 C3         1.1411    3.3290    7.9031 C.2       1 RES1    0.0000
      4 C4         1.2567    1.8961    6.3935 C.2       1 RES1    0.0000
      5 C5         1.5379    0.7696    5.4824 C.3       1 RES1    0.0000
      6 H1         2.0901    0.1048    5.9436 H         1 RES1    0.0000
      7 H2         2.0161    1.0998    4.6929 H         1 RES1    0.0000
      8 H3         0.6945    0.3562    5.2036 H         1 RES1    0.0000
      9 N1         1.3441    5.5965   10.7610 N.2       1 RES1    0.0000
     10 N2         2.2041    3.5985   10.0551 N.2       1 RES1    0.0000
     11 N3        -0.0482    6.0633    8.8694 N.pl3     1 RES1    0.0000
     12 H4        -0.6820    5.6796    8.4039 H         1 RES1    0.0000
     13 N4        -0.1913    7.4038    9.0377 N.pl3     1 RES1    0.0000
     14 N5         0.2911    3.7763    7.0330 N.2       1 RES1    0.0000
     15 N6         1.7766    2.1685    7.5536 N.2       1 RES1    0.0000
     16 O1         2.2016    4.5408   11.0565 O.3       1 RES1    0.0000
     17 O2         0.4466    7.9667    9.9039 O.2       1 RES1    0.0000
     18 O3        -0.9723    7.9435    8.2484 O.2       1 RES1    0.0000
     19 O4         0.3585    2.8109    5.9989 O.3       1 RES1    0.0000
@<TRIPOS>BOND
     1    1    2 1
     2    2    3 1
     3    3   14 2
     4    4    5 1
     5    5    6 1
     6    7    5 1
     7    8    5 1
     8    9    1 2
     9   10    2 2
    10   11    1 1
    11   12   11 1
    12   13   11 1
    13   14   19 1
    14   15    3 1
    15   16    9 1
    16   17   13 2
    17   18   13 2
    18   19    4 1
    19    4   15 2
    20   10   16 1
@<TRIPOS>SUBSTRUCTURE
     1 RES1 1

@<TRIPOS>CRYSIN
   8.3172    7.2260   14.1480  90.0000  90.0000  90.0000  29 1

