# MOL2 file generated by ConQuest
# Please check atom types

@<TRIPOS>MOLECULE
ODANUC
    51    53     1
SMALL
NO_CHARGES
****
Generated from CSD

@<TRIPOS>ATOM
      1 O1         1.7457    6.4336    3.0138 O.3       1 RES1    0.0000
      2 N1         0.6346    5.7687    2.4038 N.2       1 RES1    0.0000
      3 C1         0.7371    4.5152    2.7584 C.2       1 RES1    0.0000
      4 C2         1.8846    4.3074    3.5901 C.2       1 RES1    0.0000
      5 C3         2.4540    5.5336    3.7076 C.2       1 RES1    0.0000
      6 C4        -0.2946    3.5270    2.3587 C.ar      1 RES1    0.0000
      7 C5         0.0248    2.4970    1.4649 C.ar      1 RES1    0.0000
      8 C6        -0.9772    1.5976    1.1172 C.ar      1 RES1    0.0000
      9 H1        -0.7808    0.9153    0.5179 H         1 RES1    0.0000
     10 C7        -2.2633    1.6856    1.6364 C.ar      1 RES1    0.0000
     11 C8        -2.5377    2.6990    2.5380 C.ar      1 RES1    0.0000
     12 H2        -3.3905    2.7567    2.9034 H         1 RES1    0.0000
     13 C9        -1.5794    3.6338    2.9141 C.ar      1 RES1    0.0000
     14 C10        1.3981    2.3614    0.8671 C.3       1 RES1    0.0000
     15 H3         1.9852    1.9489    1.5055 H         1 RES1    0.0000
     16 H4         1.7341    3.2306    0.6367 H         1 RES1    0.0000
     17 H5         1.3514    1.8176    0.0780 H         1 RES1    0.0000
     18 C11       -3.3316    0.6874    1.2505 C.3       1 RES1    0.0000
     19 H6        -3.7749    0.9853    0.4530 H         1 RES1    0.0000
     20 H7        -3.9707    0.6124    1.9622 H         1 RES1    0.0000
     21 H8        -2.9279   -0.1688    1.0916 H         1 RES1    0.0000
     22 C12       -1.9180    4.6976    3.9255 C.3       1 RES1    0.0000
     23 H9        -1.8875    5.5603    3.5048 H         1 RES1    0.0000
     24 H10       -1.2820    4.6702    4.6447 H         1 RES1    0.0000
     25 H11       -2.7999    4.5418    4.2715 H         1 RES1    0.0000
     26 C13        2.3299    3.0755    4.1485 C.1       1 RES1    0.0000
     27 N2         2.6550    2.0578    4.5648 N.1       1 RES1    0.0000
     28 C14        3.5827    5.9562    4.5997 C.2       1 RES1    0.0000
     29 O2         3.4882    5.5841    5.7642 O.2       1 RES1    0.0000
     30 N3         4.5987    6.6862    4.0677 N.am      1 RES1    0.0000
     31 C15        4.5736    7.0656    2.6435 C.3       1 RES1    0.0000
     32 H12        4.2316    6.3342    2.1237 H         1 RES1    0.0000
     33 H13        5.4644    7.2762    2.3520 H         1 RES1    0.0000
     34 H14        4.0093    7.8330    2.5265 H         1 RES1    0.0000
     35 C16        5.7888    7.0713    4.7833 C.2       1 RES1    0.0000
     36 O3         6.6815    7.6123    4.1973 O.2       1 RES1    0.0000
     37 N4         5.7735    6.7706    6.1073 N.am      1 RES1    0.0000
     38 H15        5.0397    6.4518    6.4212 H         1 RES1    0.0000
     39 C17        6.8216    6.9242    7.0060 C.2       1 RES1    0.0000
     40 O4         7.8471    7.5019    6.7379 O.2       1 RES1    0.0000
     41 C18        6.5776    6.3140    8.3519 C.ar      1 RES1    0.0000
     42 C19        7.5568    6.4748    9.3333 C.ar      1 RES1    0.0000
     43 H16        8.3337    6.9458    9.1353 H         1 RES1    0.0000
     44 C20        7.3840    5.9404   10.5973 C.ar      1 RES1    0.0000
     45 H17        8.0474    6.0522   11.2404 H         1 RES1    0.0000
     46 C21        6.2391    5.2458   10.9126 C.ar      1 RES1    0.0000
     47 H18        6.1246    4.8859   11.7620 H         1 RES1    0.0000
     48 C22        5.2612    5.0893    9.9487 C.ar      1 RES1    0.0000
     49 H19        4.4830    4.6255   10.1581 H         1 RES1    0.0000
     50 C23        5.4199    5.6100    8.6760 C.ar      1 RES1    0.0000
     51 H20        4.7536    5.4903    8.0381 H         1 RES1    0.0000
@<TRIPOS>BOND
     1    1    2 1
     2    2    3 2
     3    3    4 1
     4    4    5 2
     5    5    1 1
     6    6    3 1
     7    7    6 ar
     8    8    7 ar
     9    9    8 1
    10   10    8 ar
    11   11   10 ar
    12   12   11 1
    13   13    6 ar
    14   14    7 1
    15   15   14 1
    16   16   14 1
    17   17   14 1
    18   18   10 1
    19   19   18 1
    20   20   18 1
    21   21   18 1
    22   22   13 1
    23   23   22 1
    24   24   22 1
    25   25   22 1
    26   26    4 1
    27   27   26 3
    28   28    5 1
    29   29   28 2
    30   30   28 1
    31   31   30 1
    32   32   31 1
    33   33   31 1
    34   34   31 1
    35   35   30 1
    36   36   35 2
    37   37   35 1
    38   38   37 1
    39   39   37 1
    40   40   39 2
    41   41   39 1
    42   42   41 ar
    43   43   42 1
    44   44   42 ar
    45   45   44 1
    46   46   44 ar
    47   47   46 1
    48   48   46 ar
    49   49   48 1
    50   50   41 ar
    51   51   50 1
    52   11   13 ar
    53   48   50 ar
@<TRIPOS>SUBSTRUCTURE
     1 RES1 1

@<TRIPOS>CRYSIN
  15.2342    7.2127   19.2387  90.0000 105.2210  90.0000  14 1

