# MOL2 file generated by ConQuest
# Please check atom types

@<TRIPOS>MOLECULE
ODASIY
    22    23     1
SMALL
USER_CHARGES
****
Generated from CSD

@<TRIPOS>ATOM
      1 O1         2.0731    6.5855    0.7841 O.2       1 RES1   -1.0000
      2 O2         0.0595    5.6638    1.1015 O.3       1 RES1    0.0000
      3 O3        -2.1091    8.1570    2.0874 O.2       1 RES1    0.0000
      4 N1         0.9093    6.8239    1.1099 N.pl3     1 RES1    1.0000
      5 N2        -1.1957    6.1735    1.4380 N.am      1 RES1    0.0000
      6 C1         0.2355    7.8981    1.4627 C.2       1 RES1    0.0000
      7 C2        -1.1529    7.4941    1.7132 C.2       1 RES1    0.0000
      8 C3        -2.2456    5.2137    1.5920 C.3       1 RES1    0.0000
      9 H1        -3.0536    5.7350    1.6444 H         1 RES1    0.0000
     10 H2        -2.1276    4.7025    2.4067 H         1 RES1    0.0000
     11 H3        -2.2562    4.6658    0.8228 H         1 RES1    0.0000
     12 C4         0.8252    9.2237    1.5857 C.ar      1 RES1    0.0000
     13 C5         2.1901    9.4620    1.3830 C.ar      1 RES1    0.0000
     14 H4         2.7826    8.7672    1.1782 H         1 RES1    0.0000
     15 C6         2.6911   10.7533    1.4982 C.ar      1 RES1    0.0000
     16 H5         3.6561   10.8761    1.3547 H         1 RES1    0.0000
     17 C7         1.8558   11.8107    1.8182 C.ar      1 RES1    0.0000
     18 H6         2.2359   12.7162    1.9045 H         1 RES1    0.0000
     19 C8         0.5046   11.5738    2.0451 C.ar      1 RES1    0.0000
     20 H7        -0.1026   12.3069    2.2857 H         1 RES1    0.0000
     21 C9        -0.0134   10.2947    1.9272 C.ar      1 RES1    0.0000
     22 H8        -0.9376   10.1374    2.0629 H         1 RES1    0.0000
@<TRIPOS>BOND
     1    1    4 1
     2    2    4 1
     3    3    7 2
     4    4    6 2
     5    5    2 1
     6    6    7 1
     7    7    5 1
     8    8    5 1
     9    9    8 1
    10   10    8 1
    11   11    8 1
    12   12    6 1
    13   13   12 ar
    14   14   13 1
    15   15   13 ar
    16   16   15 1
    17   17   15 ar
    18   18   17 1
    19   19   17 ar
    20   20   19 1
    21   21   12 ar
    22   22   21 1
    23   19   21 ar
@<TRIPOS>SUBSTRUCTURE
     1 RES1 1

@<TRIPOS>CRYSIN
   7.2204    9.1774   13.1474  90.0000 101.6400  90.0000 231 1

