# MOL2 file generated by ConQuest
# Please check atom types

@<TRIPOS>MOLECULE
ODEMIU
    36    38     1
SMALL
NO_CHARGES
****
Generated from CSD

@<TRIPOS>ATOM
      1 C1         5.6360   -0.4834    0.2792 C.3       1 RES1    0.0000
      2 H1         6.5906   -0.4723    0.0569 H         1 RES1    0.0000
      3 C2         5.2145    0.5870    1.2176 C.3       1 RES1    0.0000
      4 H2         5.8196    1.3553    1.1375 H         1 RES1    0.0000
      5 C3         5.3473   -0.0214    2.5826 C.3       1 RES1    0.0000
      6 H3         6.0697    0.4244    3.0764 H         1 RES1    0.0000
      7 C4         4.7409   -0.3123   -0.8738 C.3       1 RES1    0.0000
      8 H4         5.1977    0.1591   -1.5873 H         1 RES1    0.0000
      9 H5         4.4563   -1.1773   -1.2099 H         1 RES1    0.0000
     10 C5         3.8517    0.9669    0.7316 C.2       1 RES1    0.0000
     11 C6         4.1000   -0.0513    3.4228 C.3       1 RES1    0.0000
     12 H6         3.4215    0.5861    3.1126 H         1 RES1    0.0000
     13 C7         3.6322   -1.4888    3.3039 C.3       1 RES1    0.0000
     14 H7         3.1755   -1.7737    4.1079 H         1 RES1    0.0000
     15 H8         3.0392   -1.5983    2.5438 H         1 RES1    0.0000
     16 C8         4.9142   -2.2759    3.1022 C.3       1 RES1    0.0000
     17 H9         5.3525   -2.4394    3.9528 H         1 RES1    0.0000
     18 H10        4.7334   -3.1239    2.6731 H         1 RES1    0.0000
     19 C9         4.0480    1.4203    5.2816 C.3       1 RES1    0.0000
     20 C10        4.6717    1.4118    6.5923 C.3       1 RES1    0.0000
     21 H11        4.3829    0.6366    7.0783 H         1 RES1    0.0000
     22 H12        4.4176    2.2041    7.0731 H         1 RES1    0.0000
     23 H13        5.6256    1.3912    6.4914 H         1 RES1    0.0000
     24 C11        2.5408    1.4032    5.4108 C.3       1 RES1    0.0000
     25 H14        2.1470    1.3818    4.5344 H         1 RES1    0.0000
     26 H15        2.2509    2.1930    5.8736 H         1 RES1    0.0000
     27 H16        2.2712    0.6255    5.9020 H         1 RES1    0.0000
     28 C12        4.5677    2.6011    4.5267 C.3       1 RES1    0.0000
     29 H17        4.1895    2.6088    3.6451 H         1 RES1    0.0000
     30 H18        5.5251    2.5412    4.4646 H         1 RES1    0.0000
     31 H19        4.3275    3.4071    4.9869 H         1 RES1    0.0000
     32 N1         5.7573   -1.4297    2.2440 N.3       1 RES1    0.0000
     33 O1         5.2075   -1.6548    0.9539 O.3       1 RES1    0.0000
     34 O2         3.6057    0.4424   -0.4317 O.3       1 RES1    0.0000
     35 O3         3.0201    1.6693    1.2409 O.2       1 RES1    0.0000
     36 O4         4.4926    0.1891    4.7128 O.3       1 RES1    0.0000
@<TRIPOS>BOND
     1    1    2 1
     2    3    1 1
     3    4    3 1
     4    5    3 1
     5    6    5 1
     6    7    1 1
     7    8    7 1
     8    9    7 1
     9   10    3 1
    10   11    5 1
    11   12   11 1
    12   13   11 1
    13   14   13 1
    14   15   13 1
    15   16   13 1
    16   17   16 1
    17   18   16 1
    18   19   20 1
    19   20   21 1
    20   22   20 1
    21   23   20 1
    22   24   19 1
    23   25   24 1
    24   26   24 1
    25   27   24 1
    26   28   19 1
    27   29   28 1
    28   30   28 1
    29   31   28 1
    30   32    5 1
    31   33    1 1
    32   34    7 1
    33   35   10 2
    34   36   11 1
    35   10   34 1
    36   16   32 1
    37   19   36 1
    38   32   33 1
@<TRIPOS>SUBSTRUCTURE
     1 RES1 1

@<TRIPOS>CRYSIN
   5.7746    8.5562   25.8520  90.0000  90.0000  90.0000  19 1

