# MOL2 file generated by ConQuest
# Please check atom types

@<TRIPOS>MOLECULE
ODEMOA
    36    38     1
SMALL
NO_CHARGES
****
Generated from CSD

@<TRIPOS>ATOM
      1 C1         4.6120   10.9106    2.0127 C.3       1 RES1    0.0000
      2 H1         4.7735   10.0185    2.3853 H         1 RES1    0.0000
      3 C2         5.8975   11.7333    2.0312 C.3       1 RES1    0.0000
      4 H2         6.6192   11.2811    2.5162 H         1 RES1    0.0000
      5 C3         6.2153   11.9007    0.5718 C.3       1 RES1    0.0000
      6 H3         6.6583   12.7632    0.4281 H         1 RES1    0.0000
      7 C4         3.6487   11.6680    2.8747 C.3       1 RES1    0.0000
      8 H4         2.7965   11.7629    2.4223 H         1 RES1    0.0000
      9 H5         3.5023   11.1943    3.7096 H         1 RES1    0.0000
     10 C5         5.5024   13.0235    2.6798 C.2       1 RES1    0.0000
     11 C6         7.0453   10.7748   -0.0882 C.3       1 RES1    0.0000
     12 H6         7.9411   11.1015   -0.3129 H         1 RES1    0.0000
     13 C7         6.2632   10.4553   -1.3584 C.3       1 RES1    0.0000
     14 H7         6.8243   10.5748   -2.1407 H         1 RES1    0.0000
     15 H8         5.9472    9.5387   -1.3413 H         1 RES1    0.0000
     16 C8         5.0994   11.4128   -1.3954 C.3       1 RES1    0.0000
     17 H9         5.2893   12.1446   -2.0027 H         1 RES1    0.0000
     18 H10        4.3021   10.9555   -1.7054 H         1 RES1    0.0000
     19 C9         8.3956    8.9855    0.9274 C.3       1 RES1    0.0000
     20 C10        8.8271    8.3914   -0.3926 C.3       1 RES1    0.0000
     21 H11        9.0020    9.0967   -1.0199 H         1 RES1    0.0000
     22 H12        8.1293    7.8270   -0.7325 H         1 RES1    0.0000
     23 H13        9.6243    7.8719   -0.2646 H         1 RES1    0.0000
     24 C11        8.0787    7.8790    1.9160 C.3       1 RES1    0.0000
     25 H14        7.8275    8.2659    2.7580 H         1 RES1    0.0000
     26 H15        8.8537    7.3258    2.0369 H         1 RES1    0.0000
     27 H16        7.3552    7.3462    1.5789 H         1 RES1    0.0000
     28 C12        9.4095    9.9235    1.5248 C.3       1 RES1    0.0000
     29 H17        9.5808   10.6421    0.9132 H         1 RES1    0.0000
     30 H18       10.2253    9.4469    1.6955 H         1 RES1    0.0000
     31 H19        9.0695   10.2798    2.3498 H         1 RES1    0.0000
     32 N1         4.8943   11.9180   -0.0541 N.3       1 RES1    0.0000
     33 O1         4.2338   10.8136    0.6486 O.3       1 RES1    0.0000
     34 O2         4.2213   12.9582    3.1307 O.3       1 RES1    0.0000
     35 O3         6.1363   14.0259    2.7879 O.2       1 RES1    0.0000
     36 O4         7.1323    9.6612    0.7769 O.3       1 RES1    0.0000
@<TRIPOS>BOND
     1    1    2 1
     2    3    1 1
     3    4    3 1
     4    5    3 1
     5    6    5 1
     6    7    1 1
     7    8    7 1
     8    9    7 1
     9   10    3 1
    10   11    5 1
    11   12   11 1
    12   13   11 1
    13   14   13 1
    14   15   13 1
    15   16   13 1
    16   17   16 1
    17   18   16 1
    18   19   20 1
    19   20   21 1
    20   22   20 1
    21   23   20 1
    22   24   19 1
    23   25   24 1
    24   26   24 1
    25   27   24 1
    26   28   19 1
    27   29   28 1
    28   30   28 1
    29   31   28 1
    30   32    5 1
    31   33    1 1
    32   34    7 1
    33   35   10 2
    34   36   11 1
    35   10   34 1
    36   16   32 1
    37   19   36 1
    38   32   33 1
@<TRIPOS>SUBSTRUCTURE
     1 RES1 1

@<TRIPOS>CRYSIN
   8.8777   10.2073   14.2239  90.0000  90.0000  90.0000  19 1

