# MOL2 file generated by ConQuest
# Please check atom types

@<TRIPOS>MOLECULE
ODEVAU
    75    76     1
SMALL
NO_CHARGES
****
Generated from CSD

@<TRIPOS>ATOM
      1 O1         4.5593    0.7571    7.9217 O.3       1 RES1    0.0000
      2 O2         1.2278   -5.2404    7.6179 O.3       1 RES1    0.0000
      3 O3         1.5535   -5.6637    5.3992 O.2       1 RES1    0.0000
      4 N1         5.1861    2.0434    8.1762 N.3       1 RES1    0.0000
      5 N2         0.2497   -6.3329    7.6459 N.3       1 RES1    0.0000
      6 C1         4.7488    2.9600    7.0820 C.3       1 RES1    0.0000
      7 C2         5.4538    4.2925    7.3622 C.3       1 RES1    0.0000
      8 C3         6.9579    4.1464    7.4676 C.3       1 RES1    0.0000
      9 C4         7.3034    3.1478    8.5562 C.3       1 RES1    0.0000
     10 C5         6.6429    1.7796    8.3690 C.3       1 RES1    0.0000
     11 C6         6.7841    0.9852    9.6683 C.3       1 RES1    0.0000
     12 C7         7.3254    0.9747    7.2468 C.3       1 RES1    0.0000
     13 C8         3.2362    3.1553    7.2322 C.3       1 RES1    0.0000
     14 C9         5.0172    2.4577    5.6492 C.3       1 RES1    0.0000
     15 C10        3.6225    0.4218    8.8847 C.2       1 RES1    0.0000
     16 C11        3.3318    1.1283    9.9699 C.2       1 RES1    0.0000
     17 C12        2.9601   -0.8287    8.5742 C.2       1 RES1    0.0000
     18 C13        3.1924   -1.6261    7.5214 C.2       1 RES1    0.0000
     19 C14        2.4483   -2.8512    7.3477 C.2       1 RES1    0.0000
     20 C15        2.6161   -3.7902    6.4059 C.2       1 RES1    0.0000
     21 C16        3.6368   -3.7365    5.3028 C.3       1 RES1    0.0000
     22 C17        1.7462   -4.9900    6.3757 C.2       1 RES1    0.0000
     23 C18        0.8479   -7.4149    8.4744 C.3       1 RES1    0.0000
     24 C19       -0.2254   -8.5074    8.5685 C.3       1 RES1    0.0000
     25 C20       -1.5582   -7.9873    9.0753 C.3       1 RES1    0.0000
     26 C21       -2.0405   -6.8665    8.1650 C.3       1 RES1    0.0000
     27 C22       -1.0447   -5.7084    8.0517 C.3       1 RES1    0.0000
     28 C23        1.3430   -7.0110    9.8701 C.3       1 RES1    0.0000
     29 C24        2.0327   -7.9709    7.6840 C.3       1 RES1    0.0000
     30 C25       -1.0199   -4.8633    9.3343 C.3       1 RES1    0.0000
     31 C26       -1.4706   -4.8126    6.8847 C.3       1 RES1    0.0000
     32 H1         5.2411    4.9289    6.6347 H         1 RES1    0.0000
     33 H2         5.1063    4.6710    8.2076 H         1 RES1    0.0000
     34 H3         7.3638    5.0243    7.6795 H         1 RES1    0.0000
     35 H4         7.3236    3.8379    6.6010 H         1 RES1    0.0000
     36 H5         7.0260    3.5189    9.4307 H         1 RES1    0.0000
     37 H6         8.2854    3.0271    8.5786 H         1 RES1    0.0000
     38 H7         6.3117    1.4517   10.3892 H         1 RES1    0.0000
     39 H8         7.7333    0.9032    9.8982 H         1 RES1    0.0000
     40 H9         6.3996    0.0924    9.5484 H         1 RES1    0.0000
     41 H10        6.7840    0.1863    7.0338 H         1 RES1    0.0000
     42 H11        8.2145    0.6886    7.5450 H         1 RES1    0.0000
     43 H12        7.4137    1.5352    6.4486 H         1 RES1    0.0000
     44 H13        3.0309    3.4116    8.1549 H         1 RES1    0.0000
     45 H14        2.7756    2.3176    7.0147 H         1 RES1    0.0000
     46 H15        2.9367    3.8602    6.6223 H         1 RES1    0.0000
     47 H16        5.9651    2.5755    5.4340 H         1 RES1    0.0000
     48 H17        4.4727    2.9719    5.0158 H         1 RES1    0.0000
     49 H18        4.7822    1.5083    5.5864 H         1 RES1    0.0000
     50 H19        3.7838    1.9465   10.1381 H         1 RES1    0.0000
     51 H20        2.6713    0.8168   10.5776 H         1 RES1    0.0000
     52 H21        2.2873   -1.1148    9.1818 H         1 RES1    0.0000
     53 H22        3.8525   -1.3816    6.8824 H         1 RES1    0.0000
     54 H23        1.7554   -3.0107    7.9777 H         1 RES1    0.0000
     55 H24        4.2654   -3.0047    5.4754 H         1 RES1    0.0000
     56 H25        3.1840   -3.5830    4.4474 H         1 RES1    0.0000
     57 H26        4.1240   -4.5861    5.2680 H         1 RES1    0.0000
     58 H27       -0.3567   -8.9084    7.6728 H         1 RES1    0.0000
     59 H28        0.0930   -9.2214    9.1762 H         1 RES1    0.0000
     60 H29       -1.4555   -7.6474   10.0002 H         1 RES1    0.0000
     61 H30       -2.2224   -8.7206    9.0854 H         1 RES1    0.0000
     62 H31       -2.8985   -6.5177    8.5125 H         1 RES1    0.0000
     63 H32       -2.2078   -7.2361    7.2625 H         1 RES1    0.0000
     64 H33        1.9251   -6.2271    9.7950 H         1 RES1    0.0000
     65 H34        1.8458   -7.7548   10.2659 H         1 RES1    0.0000
     66 H35        0.5753   -6.7964   10.4385 H         1 RES1    0.0000
     67 H36        1.7448   -8.1855    6.7725 H         1 RES1    0.0000
     68 H37        2.3663   -8.7817    8.1223 H         1 RES1    0.0000
     69 H38        2.7462   -7.3002    7.6515 H         1 RES1    0.0000
     70 H39       -0.2620   -4.2448    9.3040 H         1 RES1    0.0000
     71 H40       -0.9297   -5.4520   10.1123 H         1 RES1    0.0000
     72 H41       -1.8543   -4.3551    9.4060 H         1 RES1    0.0000
     73 H42       -0.8874   -4.0257    6.8465 H         1 RES1    0.0000
     74 H43       -2.3993   -4.5265    7.0147 H         1 RES1    0.0000
     75 H44       -1.3983   -5.3134    6.0450 H         1 RES1    0.0000
@<TRIPOS>BOND
     1    1    4 1
     2    2    5 1
     3    3   22 2
     4    4    6 1
     5    5   23 1
     6    6    7 1
     7    7    8 1
     8    8    9 1
     9    9   10 1
    10   10    4 1
    11   11   10 1
    12   12   10 1
    13   13    6 1
    14   14    6 1
    15   15    1 1
    16   16   15 2
    17   17   15 1
    18   18   17 2
    19   19   18 1
    20   20   19 2
    21   21   20 1
    22   22    2 1
    23   23   24 1
    24   24   25 1
    25   25   26 1
    26   26   27 1
    27   27    5 1
    28   28   23 1
    29   29   23 1
    30   30   27 1
    31   31   27 1
    32   32    7 1
    33   33    7 1
    34   34    8 1
    35   35    8 1
    36   36    9 1
    37   37    9 1
    38   38   11 1
    39   39   11 1
    40   40   11 1
    41   41   12 1
    42   42   12 1
    43   43   12 1
    44   44   13 1
    45   45   13 1
    46   46   13 1
    47   47   14 1
    48   48   14 1
    49   49   14 1
    50   50   16 1
    51   51   16 1
    52   52   17 1
    53   53   18 1
    54   54   19 1
    55   55   21 1
    56   56   21 1
    57   57   21 1
    58   58   24 1
    59   59   24 1
    60   60   25 1
    61   61   25 1
    62   62   26 1
    63   63   26 1
    64   64   28 1
    65   65   28 1
    66   66   28 1
    67   67   29 1
    68   68   29 1
    69   69   29 1
    70   70   30 1
    71   71   30 1
    72   72   30 1
    73   73   31 1
    74   74   31 1
    75   75   31 1
    76   20   22 1
@<TRIPOS>SUBSTRUCTURE
     1 RES1 1

@<TRIPOS>CRYSIN
  15.4150   14.9044   11.3137  90.0000  97.7270  90.0000  14 1

