# MOL2 file generated by ConQuest
# Please check atom types

@<TRIPOS>MOLECULE
ODIJER
    55    58     1
SMALL
NO_CHARGES
****
Generated from CSD

@<TRIPOS>ATOM
      1 N1         4.1974    6.8679   15.7127 N.am      1 RES1    0.0000
      2 N2         4.3102    5.1135   14.1969 N.3       1 RES1    0.0000
      3 O1         5.4573    5.7209   13.4577 O.3       1 RES1    0.0000
      4 O2         5.7452    6.0873   17.2761 O.2       1 RES1    0.0000
      5 O3         2.7987    8.6248   16.1016 O.2       1 RES1    0.0000
      6 O4         4.9220    8.6558   16.8323 O.3       1 RES1    0.0000
      7 C1         7.1004    4.1620   12.5728 C.ar      1 RES1    0.0000
      8 C2         6.2492    3.7163   11.5910 C.ar      1 RES1    0.0000
      9 C3         6.7191    2.9581   10.5465 C.ar      1 RES1    0.0000
     10 C4         8.0325    2.6353   10.4578 C.ar      1 RES1    0.0000
     11 C5         8.8852    3.0677   11.4056 C.ar      1 RES1    0.0000
     12 C6         8.4281    3.8391   12.4724 C.ar      1 RES1    0.0000
     13 C7         6.6280    4.9664   13.7547 C.3       1 RES1    0.0000
     14 C8         6.2942    4.1218   14.9911 C.3       1 RES1    0.0000
     15 C9         4.9802    4.6994   15.4362 C.3       1 RES1    0.0000
     16 C10        5.0719    5.9579   16.2826 C.2       1 RES1    0.0000
     17 C11        3.4467    6.2508   14.5768 C.3       1 RES1    0.0000
     18 C12        2.1199    5.6648   15.0517 C.3       1 RES1    0.0000
     19 C13        1.3333    5.0292   13.9153 C.3       1 RES1    0.0000
     20 C14        1.1403    5.9924   12.7620 C.3       1 RES1    0.0000
     21 C15        2.4647    6.5495   12.2833 C.3       1 RES1    0.0000
     22 C16        3.2265    7.2137   13.4204 C.3       1 RES1    0.0000
     23 C17        3.8764    8.1323   16.2339 C.2       1 RES1    0.0000
     24 C18        4.8316    9.9631   17.5317 C.3       1 RES1    0.0000
     25 C19        6.2092   10.0925   18.1410 C.3       1 RES1    0.0000
     26 C20        3.7916    9.8917   18.6020 C.3       1 RES1    0.0000
     27 C21        4.6026   11.0455   16.5220 C.3       1 RES1    0.0000
     28 H1         2.3026    5.0202   15.7839 H         1 RES1    0.0000
     29 H2         1.6257    6.4179   15.4243 H         1 RES1    0.0000
     30 H3         5.3049    3.9628   11.6776 H         1 RES1    0.0000
     31 H4         7.3062    5.6691   13.9877 H         1 RES1    0.0000
     32 H5         4.1175    7.5626   13.1058 H         1 RES1    0.0000
     33 H6         2.6897    7.9392   13.7655 H         1 RES1    0.0000
     34 H7         6.2099    3.1653   14.7391 H         1 RES1    0.0000
     35 H8         3.0438    5.8336   11.8880 H         1 RES1    0.0000
     36 H9         4.4113    4.0638   15.9026 H         1 RES1    0.0000
     37 H10        2.3394    7.2120   11.5725 H         1 RES1    0.0000
     38 H11        8.9930    4.1307   13.1414 H         1 RES1    0.0000
     39 H12        8.3771    2.0308    9.6796 H         1 RES1    0.0000
     40 H13        6.2321    9.2916   18.9115 H         1 RES1    0.0000
     41 H14        6.9546    4.1489   15.6720 H         1 RES1    0.0000
     42 H15        1.7900    4.2226   13.5824 H         1 RES1    0.0000
     43 H16        0.4516    4.7592   14.2557 H         1 RES1    0.0000
     44 H17        4.6579   11.9009   16.9339 H         1 RES1    0.0000
     45 H18        0.5235    6.7219   13.0379 H         1 RES1    0.0000
     46 H19        3.8225   10.6983   19.0879 H         1 RES1    0.0000
     47 H20        3.6687   10.9479   16.2062 H         1 RES1    0.0000
     48 H21        9.7574    2.8703   11.4538 H         1 RES1    0.0000
     49 H22        2.8749    9.7454   18.2416 H         1 RES1    0.0000
     50 H23        3.9797    9.1100   19.1439 H         1 RES1    0.0000
     51 H24        5.2750   10.9025   15.7907 H         1 RES1    0.0000
     52 H25        0.7070    5.5386   12.0593 H         1 RES1    0.0000
     53 H26        6.0763    2.6434    9.8306 H         1 RES1    0.0000
     54 H27        6.8318   10.0857   17.3901 H         1 RES1    0.0000
     55 H28        6.2342   10.9479   18.6011 H         1 RES1    0.0000
@<TRIPOS>BOND
     1    1   16 1
     2    2    3 1
     3    3   13 1
     4    4   16 2
     5    5   23 2
     6    6   23 1
     7    7    8 ar
     8    8    9 ar
     9    9   10 ar
    10   10   11 ar
    11   11   12 ar
    12   12    7 ar
    13   13    7 1
    14   14   13 1
    15   15    2 1
    16   16   15 1
    17   17    1 1
    18   18   17 1
    19   19   18 1
    20   20   19 1
    21   21   20 1
    22   22   17 1
    23   23    1 1
    24   24    6 1
    25   25   24 1
    26   26   24 1
    27   27   24 1
    28   28   18 1
    29   29   18 1
    30   30    8 1
    31   31   13 1
    32   32   22 1
    33   33   22 1
    34   34   14 1
    35   35   21 1
    36   36   15 1
    37   37   21 1
    38   38   12 1
    39   39   10 1
    40   40   25 1
    41   41   14 1
    42   42   19 1
    43   43   19 1
    44   44   27 1
    45   45   20 1
    46   46   26 1
    47   47   27 1
    48   48   11 1
    49   49   26 1
    50   50   26 1
    51   51   27 1
    52   52   20 1
    53   53    9 1
    54   54   25 1
    55   55   25 1
    56    2   17 1
    57   14   15 1
    58   21   22 1
@<TRIPOS>SUBSTRUCTURE
     1 RES1 1

@<TRIPOS>CRYSIN
  10.4334   11.3450   17.2179  90.0000  99.9100  90.0000  14 1

