# MOL2 file generated by ConQuest
# Please check atom types

@<TRIPOS>MOLECULE
ODIJIV
    54    56     1
SMALL
NO_CHARGES
****
Generated from CSD

@<TRIPOS>ATOM
      1 N1         5.4260    4.7852    5.9306 N.am      1 RES1    0.0000
      2 N2         4.4894    3.4540    4.2602 N.3       1 RES1    0.0000
      3 O1         7.5401    5.5245    6.3240 O.2       1 RES1    0.0000
      4 O2         5.8145    6.3278    7.4985 O.3       1 RES1    0.0000
      5 O3         4.0022    4.6213    3.4794 O.3       1 RES1    0.0000
      6 O4         0.9670    3.3995    2.0791 O.3       1 RES1    0.0000
      7 O5         3.0548    2.9515    1.5286 O.2       1 RES1    0.0000
      8 O6         3.4441    5.2107    7.1108 O.2       1 RES1    0.0000
      9 C1         6.9542    3.5511    2.6098 C.3       1 RES1    0.0000
     10 H1         7.5050    3.9863    1.9389 H         1 RES1    0.0000
     11 H2         6.1240    3.2805    2.1864 H         1 RES1    0.0000
     12 C2         7.6755    2.3276    3.1423 C.3       1 RES1    0.0000
     13 H3         7.8325    1.7045    2.4151 H         1 RES1    0.0000
     14 H4         8.5363    2.5919    3.5027 H         1 RES1    0.0000
     15 C3         6.8653    1.6425    4.2265 C.3       1 RES1    0.0000
     16 H5         7.3826    0.9116    4.6015 H         1 RES1    0.0000
     17 H6         6.0588    1.2694    3.8365 H         1 RES1    0.0000
     18 C4         6.4863    2.6077    5.3377 C.3       1 RES1    0.0000
     19 H7         7.2859    2.8625    5.8241 H         1 RES1    0.0000
     20 H8         5.8909    2.1594    5.9591 H         1 RES1    0.0000
     21 C5         5.8007    3.8656    4.8059 C.3       1 RES1    0.0000
     22 C6         6.6572    4.5257    3.7348 C.3       1 RES1    0.0000
     23 H9         6.1916    5.2988    3.3789 H         1 RES1    0.0000
     24 H10        7.4898    4.8304    4.1290 H         1 RES1    0.0000
     25 C7         6.3722    5.5775    6.5906 C.2       1 RES1    0.0000
     26 C8         6.5939    7.3491    8.2422 C.3       1 RES1    0.0000
     27 C9         7.7509    6.7543    8.9754 C.3       1 RES1    0.0000
     28 H11        7.4432    6.0324    9.5255 H         1 RES1    0.0000
     29 H12        8.1599    7.4259    9.5255 H         1 RES1    0.0000
     30 H13        8.3942    6.4235    8.3442 H         1 RES1    0.0000
     31 C10        5.5670    7.8583    9.2022 C.3       1 RES1    0.0000
     32 H14        4.8246    8.2224    8.7155 H         1 RES1    0.0000
     33 H15        5.9550    8.5425    9.7543 H         1 RES1    0.0000
     34 H16        5.2616    7.1364    9.7580 H         1 RES1    0.0000
     35 C11        7.0109    8.4058    7.2739 C.3       1 RES1    0.0000
     36 H17        7.6705    8.0489    6.6754 H         1 RES1    0.0000
     37 H18        7.3838    9.1493    7.7517 H         1 RES1    0.0000
     38 H19        6.2475    8.6989    6.7729 H         1 RES1    0.0000
     39 C12        4.0777    4.6245    6.2756 C.2       1 RES1    0.0000
     40 C13        3.5456    3.5216    5.3827 C.3       1 RES1    0.0000
     41 H20        3.5252    2.6692    5.8653 H         1 RES1    0.0000
     42 C14        2.1995    3.8020    4.7455 C.3       1 RES1    0.0000
     43 H21        1.6851    4.4349    5.2690 H         1 RES1    0.0000
     44 H22        1.6851    2.9874    4.6315 H         1 RES1    0.0000
     45 C15        2.6075    4.3989    3.3928 C.3       1 RES1    0.0000
     46 H23        2.1548    5.2602    3.2739 H         1 RES1    0.0000
     47 C16        2.2732    3.5044    2.2209 C.2       1 RES1    0.0000
     48 C17        0.4883    2.5676    0.9942 C.3       1 RES1    0.0000
     49 H24        0.6713    1.6335    1.1813 H         1 RES1    0.0000
     50 H25        0.9335    2.8076    0.1650 H         1 RES1    0.0000
     51 C18       -0.9556    2.7861    0.8734 C.3       1 RES1    0.0000
     52 H26       -1.3775    2.6144    1.7176 H         1 RES1    0.0000
     53 H27       -1.3157    2.1909    0.2100 H         1 RES1    0.0000
     54 H28       -1.1223    3.6941    0.6113 H         1 RES1    0.0000
@<TRIPOS>BOND
     1    1   21 1
     2    2    5 1
     3    3   25 2
     4    4   25 1
     5    5   45 1
     6    6   47 1
     7    7   47 2
     8    8   39 2
     9    9   10 1
    10   11    9 1
    11   12    9 1
    12   13   12 1
    13   14   12 1
    14   15   12 1
    15   16   15 1
    16   17   15 1
    17   18   15 1
    18   19   18 1
    19   20   18 1
    20   21    2 1
    21   22    9 1
    22   23   22 1
    23   24   22 1
    24   25    1 1
    25   26    4 1
    26   27   26 1
    27   28   27 1
    28   29   27 1
    29   30   27 1
    30   31   26 1
    31   32   31 1
    32   33   31 1
    33   34   31 1
    34   35   26 1
    35   36   35 1
    36   37   35 1
    37   38   35 1
    38   39    1 1
    39   40    2 1
    40   41   40 1
    41   42   40 1
    42   43   42 1
    43   44   42 1
    44   45   42 1
    45   46   45 1
    46   47   45 1
    47   48    6 1
    48   49   48 1
    49   50   48 1
    50   51   48 1
    51   52   51 1
    52   53   51 1
    53   54   51 1
    54   18   21 1
    55   21   22 1
    56   39   40 1
@<TRIPOS>SUBSTRUCTURE
     1 RES1 1

@<TRIPOS>CRYSIN
  11.6537    8.9902   37.5020  90.0000  90.0000  90.0000  61 1

