# MOL2 file generated by ConQuest
# Please check atom types

@<TRIPOS>MOLECULE
ODOVEL
    27    28     1
SMALL
NO_CHARGES
****
Generated from CSD

@<TRIPOS>ATOM
      1 N1         1.3366    5.5548    6.6033 N.am      1 RES1    0.0000
      2 O1         0.6034    3.8230    7.8244 O.2       1 RES1    0.0000
      3 O2         0.2643    6.3189    7.0437 O.3       1 RES1    0.0000
      4 O3         2.6476    1.6363    3.4371 O.2       1 RES1    0.0000
      5 C1         1.3593    4.2653    6.9825 C.2       1 RES1    0.0000
      6 C2         2.3985    3.4071    6.3372 C.3       1 RES1    0.0000
      7 H1         1.9997    2.5489    6.1249 H         1 RES1    0.0000
      8 H2         3.1070    3.2484    6.9796 H         1 RES1    0.0000
      9 C3         3.0180    3.9751    5.0703 C.3       1 RES1    0.0000
     10 H3         3.8393    3.4813    4.8663 H         1 RES1    0.0000
     11 C4         3.3600    5.4218    5.3173 C.3       1 RES1    0.0000
     12 H4         3.9056    5.5048    6.1152 H         1 RES1    0.0000
     13 H5         3.8582    5.7811    4.5666 H         1 RES1    0.0000
     14 C5         2.0688    6.1749    5.4921 C.3       1 RES1    0.0000
     15 H6         2.2753    7.1029    5.7294 H         1 RES1    0.0000
     16 C6         1.2409    6.1698    4.2211 C.3       1 RES1    0.0000
     17 H7         0.3211    6.3851    4.4403 H         1 RES1    0.0000
     18 H8         1.5734    6.8568    3.6216 H         1 RES1    0.0000
     19 C7         1.2845    4.8619    3.5323 C.2       1 RES1    0.0000
     20 H9         0.7247    4.7319    2.8016 H         1 RES1    0.0000
     21 C8         2.0764    3.8670    3.8994 C.2       1 RES1    0.0000
     22 C9         2.0082    2.6172    3.1707 C.2       1 RES1    0.0000
     23 H10        1.4285    2.5709    2.4450 H         1 RES1    0.0000
     24 C10        0.6498    7.0699    8.1910 C.3       1 RES1    0.0000
     25 H11        0.8885    6.4696    8.9001 H         1 RES1    0.0000
     26 H12       -0.0834    7.6224    8.4713 H         1 RES1    0.0000
     27 H13        1.4029    7.6239    7.9718 H         1 RES1    0.0000
@<TRIPOS>BOND
     1    1    3 1
     2    2    5 2
     3    3   24 1
     4    4   22 2
     5    5    1 1
     6    6    5 1
     7    7    6 1
     8    8    6 1
     9    9    6 1
    10   10    9 1
    11   11    9 1
    12   12   11 1
    13   13   11 1
    14   14    1 1
    15   15   14 1
    16   16   14 1
    17   17   16 1
    18   18   16 1
    19   19   16 1
    20   20   19 1
    21   21    9 1
    22   22   21 1
    23   23   22 1
    24   24   25 1
    25   26   24 1
    26   27   24 1
    27   11   14 1
    28   19   21 2
@<TRIPOS>SUBSTRUCTURE
     1 RES1 1

@<TRIPOS>CRYSIN
   9.4727    7.3476   13.8760  90.0000  90.0000  90.0000  29 1

