# MOL2 file generated by ConQuest
# Please check atom types

@<TRIPOS>MOLECULE
ODULAA
    93    96     1
SMALL
NO_CHARGES
****
Generated from CSD

@<TRIPOS>ATOM
      1 C1         0.6153    5.4204   18.7889 C.ar      1 RES1    0.0000
      2 C2        -0.5321    6.0884   19.2017 C.ar      1 RES1    0.0000
      3 H1        -0.6048    6.3867   20.0787 H         1 RES1    0.0000
      4 C3        -1.5680    6.3107   18.3026 C.ar      1 RES1    0.0000
      5 H2        -2.3355    6.7582   18.5782 H         1 RES1    0.0000
      6 C4        -1.4580    5.8648   16.9907 C.ar      1 RES1    0.0000
      7 H3        -2.1513    6.0137   16.3901 H         1 RES1    0.0000
      8 C5        -0.3103    5.1969   16.5779 C.ar      1 RES1    0.0000
      9 H4        -0.2363    4.8991   15.7005 H         1 RES1    0.0000
     10 C6         0.7260    4.9746   17.4770 C.ar      1 RES1    0.0000
     11 C7         1.9676    4.3200   17.2789 C.ar      1 RES1    0.0000
     12 C8         2.5282    3.6694   16.1858 C.ar      1 RES1    0.0000
     13 H5         2.0568    3.6135   15.3865 H         1 RES1    0.0000
     14 C9         3.7923    3.1013   16.2881 C.ar      1 RES1    0.0000
     15 H6         4.1669    2.6655   15.5574 H         1 RES1    0.0000
     16 C10        4.4966    3.1840   17.4836 C.ar      1 RES1    0.0000
     17 H7         5.3425    2.8041   17.5527 H         1 RES1    0.0000
     18 C11        3.9366    3.8348   18.5768 C.ar      1 RES1    0.0000
     19 H8         4.4080    3.8907   19.3772 H         1 RES1    0.0000
     20 C12        2.6725    4.4027   18.4745 C.ar      1 RES1    0.0000
     21 C13        1.8871    5.1365   19.5167 C.3       1 RES1    0.0000
     22 H9         1.6968    4.5246   20.2576 H         1 RES1    0.0000
     23 C14        2.5416    6.3852   20.0688 C.3       1 RES1    0.0000
     24 H10        1.9986    6.7552   20.7822 H         1 RES1    0.0000
     25 H11        3.4142    6.1685   20.4305 H         1 RES1    0.0000
     26 O1         2.6757    7.3470   19.0045 O.3       1 RES1    0.0000
     27 C15        3.9039    7.7203   18.6347 C.2       1 RES1    0.0000
     28 O2         4.9390    7.2687   19.0910 O.2       1 RES1    0.0000
     29 N1         3.8389    8.6851   17.6972 N.am      1 RES1    0.0000
     30 H12        3.0700    8.9770   17.4474 H         1 RES1    0.0000
     31 C16        5.0431    9.2445   17.0978 C.3       1 RES1    0.0000
     32 C17        4.6638   10.3742   16.1460 C.3       1 RES1    0.0000
     33 H13        5.4661   10.8877   15.9588 H         1 RES1    0.0000
     34 H14        4.0493   10.9629   16.6107 H         1 RES1    0.0000
     35 C18        4.0263    9.9899   14.8035 C.3       1 RES1    0.0000
     36 C19        4.1875   11.1752   13.8556 C.3       1 RES1    0.0000
     37 H15        5.1207   11.3462   13.7131 H         1 RES1    0.0000
     38 H16        3.7742   11.9507   14.2397 H         1 RES1    0.0000
     39 H17        3.7681   10.9732   13.0155 H         1 RES1    0.0000
     40 C20        2.5416    9.6581   14.9204 C.3       1 RES1    0.0000
     41 H18        2.1804    9.4930   14.0469 H         1 RES1    0.0000
     42 H19        2.0798   10.3968   15.3229 H         1 RES1    0.0000
     43 H20        2.4301    8.8753   15.4659 H         1 RES1    0.0000
     44 N2         4.7619    8.8464   14.2270 N.3       1 RES1    0.0000
     45 O3         4.5911    8.6379   12.9787 O.2       1 RES1    0.0000
     46 C21        5.2940    7.6988   15.0140 C.3       1 RES1    0.0000
     47 C22        4.2008    6.6476   15.2292 C.3       1 RES1    0.0000
     48 H21        3.4797    7.0339   15.7303 H         1 RES1    0.0000
     49 H22        4.5644    5.9031   15.7124 H         1 RES1    0.0000
     50 H23        3.8736    6.3469   14.3788 H         1 RES1    0.0000
     51 C23        6.4236    7.0693   14.2091 C.3       1 RES1    0.0000
     52 H24        6.0685    6.6874   13.4030 H         1 RES1    0.0000
     53 H25        6.8430    6.3808   14.7306 H         1 RES1    0.0000
     54 H26        7.0720    7.7415   13.9873 H         1 RES1    0.0000
     55 C24        5.8758    8.2281   16.3199 C.3       1 RES1    0.0000
     56 H27        6.7339    8.6335   16.1218 H         1 RES1    0.0000
     57 H28        6.0430    7.4703   16.9028 H         1 RES1    0.0000
     58 C25        5.9364    9.8749   18.1968 C.2       1 RES1    0.0000
     59 O4         7.1523    9.9240   18.0855 O.2       1 RES1    0.0000
     60 N3         5.2758   10.3968   19.2420 N.am      1 RES1    0.0000
     61 H29        4.4250   10.2759   19.2798 H         1 RES1    0.0000
     62 C26        5.9109   11.1649   20.3337 C.3       1 RES1    0.0000
     63 C27        4.7813   11.4922   21.3594 C.3       1 RES1    0.0000
     64 H30        4.1208   12.0318   20.8776 H         1 RES1    0.0000
     65 C28        4.0275   10.2980   21.9125 C.3       1 RES1    0.0000
     66 H31        4.6250    9.7554   22.4318 H         1 RES1    0.0000
     67 H32        3.6748    9.7776   21.1857 H         1 RES1    0.0000
     68 H33        3.3075   10.6032   22.4676 H         1 RES1    0.0000
     69 C29        5.2758   12.3546   22.5178 C.3       1 RES1    0.0000
     70 H34        4.5292   12.6200   23.0618 H         1 RES1    0.0000
     71 H35        5.7122   13.1360   22.1714 H         1 RES1    0.0000
     72 H36        5.8964   11.8519   23.0499 H         1 RES1    0.0000
     73 C30        6.4987   12.4490   19.7303 C.3       1 RES1    0.0000
     74 H37        7.0938   12.2205   19.0115 H         1 RES1    0.0000
     75 H38        6.9823   12.9281   20.4066 H         1 RES1    0.0000
     76 H39        5.7873   12.9989   19.3930 H         1 RES1    0.0000
     77 C31        7.0175   10.3363   21.0336 C.2       1 RES1    0.0000
     78 O5         7.9603   10.9247   21.5619 O.2       1 RES1    0.0000
     79 N4         6.8114    9.0357   21.0825 N.am      1 RES1    0.0000
     80 H40        6.1145    8.7367   20.6749 H         1 RES1    0.0000
     81 C32        7.6611    8.0408   21.7704 C.3       1 RES1    0.0000
     82 C33        7.6489    8.3003   23.2550 C.3       1 RES1    0.0000
     83 H41        7.9289    9.2041   23.4235 H         1 RES1    0.0000
     84 H42        8.2489    7.6929   23.6918 H         1 RES1    0.0000
     85 H43        6.7605    8.1720   23.5944 H         1 RES1    0.0000
     86 C34        7.1035    6.6963   21.4460 C.3       1 RES1    0.0000
     87 H44        6.2067    6.6314   21.7859 H         1 RES1    0.0000
     88 H45        7.6477    6.0166   21.8495 H         1 RES1    0.0000
     89 H46        7.0938    6.5739   20.4941 H         1 RES1    0.0000
     90 C35        9.0961    8.1661   21.2771 C.3       1 RES1    0.0000
     91 H47        9.1130    8.0983   20.3192 H         1 RES1    0.0000
     92 H48        9.6281    7.4629   21.6567 H         1 RES1    0.0000
     93 H49        9.4536    9.0168   21.5454 H         1 RES1    0.0000
@<TRIPOS>BOND
     1    1    2 ar
     2    2    3 1
     3    4    2 ar
     4    5    4 1
     5    6    4 ar
     6    7    6 1
     7    8    6 ar
     8    9    8 1
     9   10    1 ar
    10   11   10 1
    11   12   11 ar
    12   13   12 1
    13   14   12 ar
    14   15   14 1
    15   16   14 ar
    16   17   16 1
    17   18   16 ar
    18   19   18 1
    19   20   11 ar
    20   21    1 1
    21   22   21 1
    22   23   21 1
    23   24   23 1
    24   25   23 1
    25   26   23 1
    26   27   26 1
    27   28   27 2
    28   29   27 1
    29   30   29 1
    30   31   29 1
    31   32   31 1
    32   33   32 1
    33   34   32 1
    34   35   32 1
    35   36   35 1
    36   37   36 1
    37   38   36 1
    38   39   36 1
    39   40   35 1
    40   41   40 1
    41   42   40 1
    42   43   40 1
    43   44   35 1
    44   45   44 1
    45   46   44 1
    46   47   46 1
    47   48   47 1
    48   49   47 1
    49   50   47 1
    50   51   46 1
    51   52   51 1
    52   53   51 1
    53   54   51 1
    54   55   31 1
    55   56   55 1
    56   57   55 1
    57   58   31 1
    58   59   58 2
    59   60   58 1
    60   61   60 1
    61   62   60 1
    62   63   62 1
    63   64   63 1
    64   65   63 1
    65   66   65 1
    66   67   65 1
    67   68   65 1
    68   69   63 1
    69   70   69 1
    70   71   69 1
    71   72   69 1
    72   73   62 1
    73   74   73 1
    74   75   73 1
    75   76   73 1
    76   77   62 1
    77   78   77 2
    78   79   77 1
    79   80   79 1
    80   81   79 1
    81   82   81 1
    82   83   82 1
    83   84   82 1
    84   85   82 1
    85   86   81 1
    86   87   86 1
    87   88   86 1
    88   89   86 1
    89   90   81 1
    90   91   90 1
    91   92   90 1
    92   93   90 1
    93    8   10 ar
    94   18   20 ar
    95   20   21 1
    96   46   55 1
@<TRIPOS>SUBSTRUCTURE
     1 RES1 1

@<TRIPOS>CRYSIN
  12.1200   14.7430   19.8740  90.0000  90.0000  90.0000  19 1

