# MOL2 file generated by ConQuest
# Please check atom types

@<TRIPOS>MOLECULE
OFANAN
    77    78     1
SMALL
NO_CHARGES
****
Generated from CSD

@<TRIPOS>ATOM
      1 O1         0.0496   13.9765   16.6160 O.2       1 RES1    0.0000
      2 O2         0.2348   15.5081   15.1177 O.2       1 RES1    0.0000
      3 O3        -0.2010   14.4930   10.5668 O.2       1 RES1    0.0000
      4 O4        -0.3455   12.4803    9.8346 O.2       1 RES1    0.0000
      5 N1         0.0712   14.3434   15.4474 N.pl3     1 RES1    0.0000
      6 N2        -0.2657   13.2838   10.7670 N.pl3     1 RES1    0.0000
      7 N3        -0.4915   10.4672   11.4890 N.pl3     1 RES1    0.0000
      8 H1        -0.4641   10.6671   10.6524 H         1 RES1    0.0000
      9 N4        -0.6680    9.1583   11.8845 N.2       1 RES1    0.0000
     10 C1        -0.0840   13.3468   14.4016 C.ar      1 RES1    0.0000
     11 C2        -0.1116   13.7416   13.1122 C.ar      1 RES1    0.0000
     12 H2        -0.0374   14.6430   12.8979 H         1 RES1    0.0000
     13 C3        -0.2512   12.7991   12.1116 C.ar      1 RES1    0.0000
     14 C4        -0.3640   11.4194   12.4118 C.ar      1 RES1    0.0000
     15 C5        -0.3343   11.0767   13.7862 C.ar      1 RES1    0.0000
     16 H3        -0.4099   10.1830   14.0298 H         1 RES1    0.0000
     17 C6        -0.1973   12.0168   14.7569 C.ar      1 RES1    0.0000
     18 H4        -0.1812   11.7665   15.6526 H         1 RES1    0.0000
     19 C7        -0.8304    8.3209   10.9601 C.2       1 RES1    0.0000
     20 H5        -0.7918    8.6111   10.0773 H         1 RES1    0.0000
     21 C8        -1.0827    6.8778   11.2330 C.3       1 RES1    0.0000
     22 H6        -1.9060    6.6934   10.7348 H         1 RES1    0.0000
     23 C9        -1.4703    6.6199   12.6488 C.3       1 RES1    0.0000
     24 H7        -0.7899    6.9608   13.2331 H         1 RES1    0.0000
     25 H8        -1.5681    5.6747   12.7862 H         1 RES1    0.0000
     26 H9        -2.3033    7.0576   12.8374 H         1 RES1    0.0000
     27 C10       -0.0624    5.9808   10.5668 C.3       1 RES1    0.0000
     28 C11        1.3063    6.2417   11.3740 C.3       1 RES1    0.0000
     29 H10        1.5200    7.1775   11.3465 H         1 RES1    0.0000
     30 H11        2.0173    5.7392   10.9692 H         1 RES1    0.0000
     31 H12        1.1972    5.9651   12.2861 H         1 RES1    0.0000
     32 C12       -0.3861    4.5167   10.7220 C.3       1 RES1    0.0000
     33 H13       -0.2610    4.2894   11.6579 H         1 RES1    0.0000
     34 H14       -1.3299    4.4070   10.5297 H         1 RES1    0.0000
     35 C13        0.3542    3.5053    9.9179 C.3       1 RES1    0.0000
     36 H15        0.2050    3.6994    8.9783 H         1 RES1    0.0000
     37 H16        1.3022    3.6187   10.0883 H         1 RES1    0.0000
     38 C14        0.0098    2.0795   10.1560 C.3       1 RES1    0.0000
     39 H17        0.2057    1.8739   11.0828 H         1 RES1    0.0000
     40 H18       -0.9468    1.9776   10.0333 H         1 RES1    0.0000
     41 C15        0.6817    1.0833    9.3190 C.3       1 RES1    0.0000
     42 H19        0.2896    1.0833    8.4435 H         1 RES1    0.0000
     43 H20        0.5797    0.2144    9.7146 H         1 RES1    0.0000
     44 H21        1.6144    1.2977    9.2531 H         1 RES1    0.0000
     45 C16        0.1989    6.3525    9.1652 C.2       1 RES1    0.0000
     46 H22       -0.5497    6.2094    8.6322 H         1 RES1    0.0000
     47 C17        1.1534    6.8096    8.4911 C.2       1 RES1    0.0000
     48 H23        1.8971    7.0046    9.0131 H         1 RES1    0.0000
     49 C18        1.3675    7.1042    7.0845 C.3       1 RES1    0.0000
     50 H24        0.5634    6.7856    6.6248 H         1 RES1    0.0000
     51 C19        2.5194    6.3161    6.4819 C.3       1 RES1    0.0000
     52 H25        2.4975    6.4399    5.5185 H         1 RES1    0.0000
     53 H26        3.3490    6.7026    6.8024 H         1 RES1    0.0000
     54 C20        2.5539    4.8357    6.7621 C.3       1 RES1    0.0000
     55 H27        1.7994    4.4185    6.3171 H         1 RES1    0.0000
     56 H28        2.4425    4.6974    7.7164 H         1 RES1    0.0000
     57 C21        3.8192    4.1373    6.3189 C.3       1 RES1    0.0000
     58 H29        3.7817    4.0197    5.3573 H         1 RES1    0.0000
     59 H30        4.5710    4.7204    6.5112 H         1 RES1    0.0000
     60 C22        4.0667    2.8950    6.9050 C.3       1 RES1    0.0000
     61 H31        4.8418    2.4985    6.5002 H         1 RES1    0.0000
     62 H32        3.3078    2.3210    6.7713 H         1 RES1    0.0000
     63 H33        4.2200    3.0079    7.8464 H         1 RES1    0.0000
     64 C23        1.4621    8.5830    6.7548 C.ar      1 RES1    0.0000
     65 C24        1.5726    9.5603    7.7237 C.ar      1 RES1    0.0000
     66 H34        1.6006    9.3141    8.6193 H         1 RES1    0.0000
     67 C25        1.6438   10.9052    7.3849 C.ar      1 RES1    0.0000
     68 H35        1.7260   11.5360    8.0625 H         1 RES1    0.0000
     69 C26        1.5984   11.3251    6.1028 C.ar      1 RES1    0.0000
     70 C27        1.4753   10.3513    5.1394 C.ar      1 RES1    0.0000
     71 H36        1.4316   10.6071    4.2456 H         1 RES1    0.0000
     72 C28        1.4139    9.0191    5.4507 C.ar      1 RES1    0.0000
     73 H37        1.3384    8.3944    4.7639 H         1 RES1    0.0000
     74 C29        1.6837   12.7770    5.7346 C.3       1 RES1    0.0000
     75 H38        0.8509   13.0596    5.3482 H         1 RES1    0.0000
     76 H39        2.3914   12.9051    5.0991 H         1 RES1    0.0000
     77 H40        1.8622   13.2970    6.5222 H         1 RES1    0.0000
@<TRIPOS>BOND
     1    1    5 2
     2    2    5 2
     3    3    6 2
     4    4    6 2
     5    5   10 1
     6    6   13 1
     7    7    8 1
     8    9    7 1
     9   10   11 ar
    10   11   12 1
    11   13   11 ar
    12   14    7 1
    13   15   14 ar
    14   16   15 1
    15   17   10 ar
    16   18   17 1
    17   19    9 2
    18   20   19 1
    19   21   19 1
    20   22   21 1
    21   23   21 1
    22   24   23 1
    23   25   23 1
    24   26   23 1
    25   27   21 1
    26   28   27 1
    27   29   28 1
    28   30   28 1
    29   31   28 1
    30   32   27 1
    31   33   32 1
    32   34   32 1
    33   35   32 1
    34   36   35 1
    35   37   35 1
    36   38   35 1
    37   39   38 1
    38   40   38 1
    39   41   38 1
    40   42   41 1
    41   43   41 1
    42   44   41 1
    43   45   27 1
    44   46   45 1
    45   47   45 2
    46   48   47 1
    47   49   47 1
    48   50   49 1
    49   51   49 1
    50   52   51 1
    51   53   51 1
    52   54   51 1
    53   55   54 1
    54   56   54 1
    55   57   54 1
    56   58   57 1
    57   59   57 1
    58   60   57 1
    59   61   60 1
    60   62   60 1
    61   63   60 1
    62   64   49 1
    63   65   64 ar
    64   66   65 1
    65   67   65 ar
    66   68   67 1
    67   69   67 ar
    68   70   69 ar
    69   71   70 1
    70   72   64 ar
    71   73   72 1
    72   74   69 1
    73   75   74 1
    74   76   74 1
    75   77   74 1
    76   13   14 ar
    77   15   17 ar
    78   70   72 ar
@<TRIPOS>SUBSTRUCTURE
     1 RES1 1

@<TRIPOS>CRYSIN
   7.0360   23.0490   18.4530  90.0000  96.9950  90.0000  14 1

