# MOL2 file generated by ConQuest
# Please check atom types

@<TRIPOS>MOLECULE
OFAZUQ
    37    37     1
SMALL
NO_CHARGES
****
Generated from CSD

@<TRIPOS>ATOM
      1 O1         8.1587    5.0705   10.2437 O.2       1 RES1    0.0000
      2 O2         0.9741    3.4782    8.2057 O.3       1 RES1    0.0000
      3 H1         0.8472    3.9347    8.8992 H         1 RES1    0.0000
      4 O3         1.6068    2.2870    5.9563 O.3       1 RES1    0.0000
      5 H2         0.9556    2.1675    6.4731 H         1 RES1    0.0000
      6 O4         3.3969    2.1078    4.0793 O.2       1 RES1    0.0000
      7 O5         5.4687    2.3444    4.6067 O.2       1 RES1    0.0000
      8 N1         7.1856    6.6078   11.5525 N.am      1 RES1    0.0000
      9 N2         3.9309    4.7997   11.8386 N.1       1 RES1    0.0000
     10 N3         4.2714    2.4479    4.8635 N.pl3     1 RES1    0.0000
     11 C1         4.5729    4.3010    8.0605 C.ar      1 RES1    0.0000
     12 C2         3.2424    4.2400    8.5363 C.ar      1 RES1    0.0000
     13 H3         3.0181    4.6521    9.3626 H         1 RES1    0.0000
     14 C3         2.2757    3.5953    7.8173 C.ar      1 RES1    0.0000
     15 C4         2.5694    2.9536    6.5995 C.ar      1 RES1    0.0000
     16 C5         3.8836    3.0553    6.1275 C.ar      1 RES1    0.0000
     17 C6         4.8725    3.7220    6.8379 C.ar      1 RES1    0.0000
     18 H4         5.7527    3.7822    6.4855 H         1 RES1    0.0000
     19 C7         5.6877    4.8794    8.7929 C.2       1 RES1    0.0000
     20 H5         6.4669    5.0417    8.2740 H         1 RES1    0.0000
     21 C8         5.7871    5.2216   10.0864 C.2       1 RES1    0.0000
     22 C9         7.1331    5.6533   10.6331 C.2       1 RES1    0.0000
     23 C10        6.1169    7.5900   11.8145 C.3       1 RES1    0.0000
     24 H6         5.3810    7.4403   11.1692 H         1 RES1    0.0000
     25 H7         6.4748    8.4990   11.6556 H         1 RES1    0.0000
     26 C11        5.5545    7.5264   13.2181 C.3       1 RES1    0.0000
     27 H8         4.8523    8.2038   13.3196 H         1 RES1    0.0000
     28 H9         6.2695    7.6988   13.8653 H         1 RES1    0.0000
     29 H10        5.1752    6.6372   13.3789 H         1 RES1    0.0000
     30 C12        8.5021    6.8826   12.1735 C.3       1 RES1    0.0000
     31 H11        8.9683    6.0240   12.3306 H         1 RES1    0.0000
     32 H12        8.3573    7.3128   13.0534 H         1 RES1    0.0000
     33 C13        9.3917    7.7773   11.3291 C.3       1 RES1    0.0000
     34 H13       10.2438    7.9213   11.7915 H         1 RES1    0.0000
     35 H14        8.9480    8.6395   11.1874 H         1 RES1    0.0000
     36 H15        9.5585    7.3490   10.4636 H         1 RES1    0.0000
     37 C14        4.7367    5.0045   11.0457 C.1       1 RES1    0.0000
@<TRIPOS>BOND
     1    1   22 2
     2    2    3 1
     3    4    5 1
     4    6   10 2
     5    7   10 2
     6    8   22 1
     7    9   37 3
     8   10   16 1
     9   11   12 ar
    10   12   13 1
    11   14    2 1
    12   15    4 1
    13   16   15 ar
    14   17   11 ar
    15   18   17 1
    16   19   11 1
    17   20   19 1
    18   21   19 2
    19   22   21 1
    20   23    8 1
    21   24   23 1
    22   25   23 1
    23   26   23 1
    24   27   26 1
    25   28   26 1
    26   29   26 1
    27   30    8 1
    28   31   30 1
    29   32   30 1
    30   33   30 1
    31   34   33 1
    32   35   33 1
    33   36   33 1
    34   37   21 1
    35   12   14 ar
    36   14   15 ar
    37   16   17 ar
@<TRIPOS>SUBSTRUCTURE
     1 RES1 1

@<TRIPOS>CRYSIN
   7.5760    9.6880    9.9050 100.1700  99.6100  95.8100   2 1

