# MOL2 file generated by ConQuest
# Please check atom types

@<TRIPOS>MOLECULE
OFEBEG
    47    47     1
SMALL
NO_CHARGES
****
Generated from CSD

@<TRIPOS>ATOM
      1 O1        -3.7513    7.2186   15.1310 O.2       1 RES1    0.0000
      2 O2         0.3990   10.7825   10.6550 O.3       1 RES1    0.0000
      3 O3         0.0680    9.5111    8.8821 O.2       1 RES1    0.0000
      4 O4         2.7300    9.5104   10.4165 O.3       1 RES1    0.0000
      5 O5         2.7850    7.6938    9.1071 O.2       1 RES1    0.0000
      6 O6         3.2095    5.8697   12.2610 O.2       1 RES1    0.0000
      7 O7         4.2602    7.6364   11.6605 O.2       1 RES1    0.0000
      8 N1        -2.8881    5.4562   16.2395 N.am      1 RES1    0.0000
      9 N2        -0.7627    4.3228   13.2900 N.1       1 RES1    0.0000
     10 N3         3.2463    7.0496   11.9709 N.pl3     1 RES1    0.0000
     11 C1        -0.1745    8.0575   13.0363 C.ar      1 RES1    0.0000
     12 C2        -0.3541    9.2171   12.2925 C.ar      1 RES1    0.0000
     13 H1        -1.1303    9.7181   12.3986 H         1 RES1    0.0000
     14 C3         0.6037    9.6266   11.4053 C.ar      1 RES1    0.0000
     15 C4         1.8080    8.9450   11.2641 C.ar      1 RES1    0.0000
     16 C5         1.9863    7.8050   12.0264 C.ar      1 RES1    0.0000
     17 C6         1.0062    7.3476   12.8916 C.ar      1 RES1    0.0000
     18 H2         1.1401    6.5648   13.3755 H         1 RES1    0.0000
     19 C7        -1.2508    7.6886   13.9718 C.2       1 RES1    0.0000
     20 H3        -1.7203    8.4023   14.3395 H         1 RES1    0.0000
     21 C8        -1.6506    6.4839   14.3679 C.2       1 RES1    0.0000
     22 C9        -2.8497    6.4025   15.2963 C.2       1 RES1    0.0000
     23 C10       -1.7599    4.6342   16.6734 C.3       1 RES1    0.0000
     24 H4        -1.5827    4.8139   17.6102 H         1 RES1    0.0000
     25 H5        -0.9724    4.8916   16.1699 H         1 RES1    0.0000
     26 C11       -1.9898    3.1642   16.4955 C.3       1 RES1    0.0000
     27 H6        -1.2167    2.6804   16.7968 H         1 RES1    0.0000
     28 H7        -2.1438    2.9728   15.5674 H         1 RES1    0.0000
     29 H8        -2.7552    2.8952   17.0091 H         1 RES1    0.0000
     30 C12       -4.1017    5.3951   17.0768 C.3       1 RES1    0.0000
     31 H9        -4.3467    6.2940   17.3448 H         1 RES1    0.0000
     32 H10       -3.9058    4.8897   17.8813 H         1 RES1    0.0000
     33 C13       -5.2609    4.7623   16.3736 C.3       1 RES1    0.0000
     34 H11       -6.0214    4.7472   16.9589 H         1 RES1    0.0000
     35 H12       -5.0317    3.8645   16.1226 H         1 RES1    0.0000
     36 H13       -5.4726    5.2688   15.5861 H         1 RES1    0.0000
     37 C14       -1.1286    5.2858   13.7893 C.1       1 RES1    0.0000
     38 C15        0.1461   10.5899    9.3287 C.2       1 RES1    0.0000
     39 C16        0.0089   11.8681    8.6129 C.3       1 RES1    0.0000
     40 H14        0.1187   12.5953    9.2297 H         1 RES1    0.0000
     41 H15       -0.8616   11.9184    8.2112 H         1 RES1    0.0000
     42 H16        0.6805   11.9256    7.9286 H         1 RES1    0.0000
     43 C17        3.1414    8.8042    9.3112 C.2       1 RES1    0.0000
     44 C18        4.0515    9.6477    8.5053 C.3       1 RES1    0.0000
     45 H17        4.1501   10.5051    8.9270 H         1 RES1    0.0000
     46 H18        3.6848    9.7632    7.6259 H         1 RES1    0.0000
     47 H19        4.9092    9.2217    8.4407 H         1 RES1    0.0000
@<TRIPOS>BOND
     1    1   22 2
     2    2   14 1
     3    3   38 2
     4    4   15 1
     5    5   43 2
     6    6   10 2
     7    7   10 2
     8    8   22 1
     9    9   37 3
    10   10   16 1
    11   11   12 ar
    12   12   13 1
    13   14   12 ar
    14   15   14 ar
    15   16   15 ar
    16   17   11 ar
    17   18   17 1
    18   19   11 1
    19   20   19 1
    20   21   19 2
    21   22   21 1
    22   23    8 1
    23   24   23 1
    24   25   23 1
    25   26   23 1
    26   27   26 1
    27   28   26 1
    28   29   26 1
    29   30    8 1
    30   31   30 1
    31   32   30 1
    32   33   30 1
    33   34   33 1
    34   35   33 1
    35   36   33 1
    36   37   21 1
    37   38    2 1
    38   39   38 1
    39   40   39 1
    40   41   39 1
    41   42   39 1
    42   43    4 1
    43   44   43 1
    44   45   44 1
    45   46   44 1
    46   47   44 1
    47   16   17 ar
@<TRIPOS>SUBSTRUCTURE
     1 RES1 1

@<TRIPOS>CRYSIN
   7.4059   18.0500   14.7245  90.0000 103.0330  90.0000  14 1

