# MOL2 file generated by ConQuest
# Please check atom types

@<TRIPOS>MOLECULE
OFEKUG
    53    54     2
SMALL
NO_CHARGES
****
Generated from CSD

@<TRIPOS>ATOM
      1 C1         0.2945    2.0548    5.6760 C.ar      1 RES1    0.0000
      2 H1        -0.0969    1.3074    5.2860 H         1 RES1    0.0000
      3 C2         1.3431    1.8920    6.5868 C.ar      1 RES1    0.0000
      4 C3         1.9535    2.9726    7.2200 C.ar      1 RES1    0.0000
      5 C4         1.4289    4.2302    6.9176 C.ar      1 RES1    0.0000
      6 H2         1.7814    4.9745    7.3490 H         1 RES1    0.0000
      7 C5         0.4074    4.4153    6.0038 C.ar      1 RES1    0.0000
      8 C6        -0.1534    3.2952    5.3573 C.ar      1 RES1    0.0000
      9 C7        -1.6841    2.4684    3.7421 C.3       1 RES1    0.0000
     10 H3        -0.9884    1.9874    3.2888 H         1 RES1    0.0000
     11 H4        -2.3233    2.7869    3.0997 H         1 RES1    0.0000
     12 H5        -2.1217    1.8852    4.3665 H         1 RES1    0.0000
     13 C8         0.3390    6.7867    6.2935 C.3       1 RES1    0.0000
     14 H6         0.1438    6.7199    7.2301 H         1 RES1    0.0000
     15 H7        -0.1096    7.5517    5.9258 H         1 RES1    0.0000
     16 H8         1.2866    6.8825    6.1721 H         1 RES1    0.0000
     17 C9         4.4964    2.8438    7.3053 C.3       1 RES1    0.0000
     18 H9         5.0366    2.0734    7.5372 H         1 RES1    0.0000
     19 H10        4.3201    2.8352    6.3517 H         1 RES1    0.0000
     20 C10        5.1637    4.1245    7.7253 C.2       1 RES1    0.0000
     21 C11        3.1850    2.8706    8.1151 C.3       1 RES1    0.0000
     22 H11        3.1246    2.0747    8.6833 H         1 RES1    0.0000
     23 C12        6.4369    4.6327    7.2052 C.ar      1 RES1    0.0000
     24 C13        7.1795    3.8910    6.2963 C.ar      1 RES1    0.0000
     25 H12        6.8504    3.0758    5.9916 H         1 RES1    0.0000
     26 C14        8.4072    4.3471    5.8342 C.ar      1 RES1    0.0000
     27 H13        8.8963    3.8336    5.2321 H         1 RES1    0.0000
     28 C15        8.9012    5.5520    6.2645 C.ar      1 RES1    0.0000
     29 H14        9.7217    5.8586    5.9548 H         1 RES1    0.0000
     30 C16        8.1720    6.3046    7.1574 C.ar      1 RES1    0.0000
     31 H15        8.5034    7.1257    7.4431 H         1 RES1    0.0000
     32 C17        6.9572    5.8584    7.6340 C.ar      1 RES1    0.0000
     33 H16        6.4833    6.3746    8.2437 H         1 RES1    0.0000
     34 C18        2.7381    4.2846   10.1775 C.ar      1 RES1    0.0000
     35 C19        3.1225    5.3471   10.9865 C.ar      1 RES1    0.0000
     36 H17        3.7906    5.9298   10.7019 H         1 RES1    0.0000
     37 C20        2.5175    5.5395   12.2095 C.ar      1 RES1    0.0000
     38 H18        2.7860    6.2496   12.7470 H         1 RES1    0.0000
     39 C21        1.5221    4.6962   12.6478 C.ar      1 RES1    0.0000
     40 H19        1.1103    4.8387   13.4698 H         1 RES1    0.0000
     41 C22        1.1436    3.6417   11.8558 C.ar      1 RES1    0.0000
     42 H20        0.4779    3.0623   12.1509 H         1 RES1    0.0000
     43 C23        1.7382    3.4285   10.6251 C.ar      1 RES1    0.0000
     44 H21        1.4701    2.7116   10.0972 H         1 RES1    0.0000
     45 N1         3.3559    4.0740    8.9448 N.pl3     1 RES1    0.0000
     46 N2         4.5276    4.7483    8.6540 N.2       1 RES1    0.0000
     47 N3         1.7480    0.5193    6.8555 N.pl3     1 RES1    0.0000
     48 O1         2.5859    0.3373    7.3217 Du        2 SUP2    0.0000
     49 O2         1.4368   -0.2943    5.9189 Du        2 SUP2    0.0000
     50 O3         2.8603    0.2432    7.3730 O.2       1 RES1    0.0000
     51 O4         0.8462   -0.3762    6.8033 O.2       1 RES1    0.0000
     52 O5        -1.1198    3.5742    4.4400 O.3       1 RES1    0.0000
     53 O6        -0.1094    5.6044    5.6261 O.3       1 RES1    0.0000
@<TRIPOS>BOND
     1    1    2 1
     2    3    1 ar
     3    4    3 ar
     4    5    4 ar
     5    6    5 1
     6    7    5 ar
     7    8    1 ar
     8    9   10 1
     9   11    9 1
    10   12    9 1
    11   13   14 1
    12   15   13 1
    13   16   13 1
    14   17   18 1
    15   19   17 1
    16   20   17 1
    17   21    4 1
    18   22   21 1
    19   23   20 1
    20   24   23 ar
    21   25   24 1
    22   26   24 ar
    23   27   26 1
    24   28   26 ar
    25   29   28 1
    26   30   28 ar
    27   31   30 1
    28   32   23 ar
    29   33   32 1
    30   34   35 ar
    31   35   36 1
    32   37   35 ar
    33   38   37 1
    34   39   37 ar
    35   40   39 1
    36   41   39 ar
    37   42   41 1
    38   43   34 ar
    39   44   43 1
    40   45   21 1
    41   46   20 2
    42   47    3 1
    43   50   47 2
    44   51   47 2
    45   52    8 1
    46   53    7 1
    47    7    8 ar
    48    9   52 1
    49   13   53 1
    50   17   21 1
    51   30   32 ar
    52   34   45 1
    53   41   43 ar
    54   45   46 1
@<TRIPOS>SUBSTRUCTURE
     1 RES1 1
     2 SUP2 48

@<TRIPOS>CRYSIN
  36.0919   13.4372    8.8190  90.0000 104.0990  90.0000  15 1

