# MOL2 file generated by ConQuest
# Please check atom types

@<TRIPOS>MOLECULE
OFEMUI
    31    31     1
SMALL
NO_CHARGES
****
Generated from CSD

@<TRIPOS>ATOM
      1 O1         2.2674    2.5992    3.3707 O.2       1 RES1    0.0000
      2 N1         1.3811    1.6866    3.5659 N.3       1 RES1    0.0000
      3 N2        -1.7026   -1.1807    4.2906 N.3       1 RES1    0.0000
      4 H1        -1.1508   -1.9314    4.3028 H         1 RES1    0.0000
      5 H2        -2.2349   -1.2803    3.6361 H         1 RES1    0.0000
      6 C1         0.7956    1.6265    4.9436 C.3       1 RES1    0.0000
      7 C2         0.0067    0.3346    5.1066 C.3       1 RES1    0.0000
      8 H3        -0.5046    0.3824    5.9344 H         1 RES1    0.0000
      9 H4         0.6337   -0.4289    5.1956 H         1 RES1    0.0000
     10 C3        -0.9230    0.0158    3.9564 C.3       1 RES1    0.0000
     11 H5        -1.5709    0.7622    3.8301 H         1 RES1    0.0000
     12 C4        -0.0700   -0.1138    2.7024 C.3       1 RES1    0.0000
     13 H6        -0.6379   -0.3850    1.9005 H         1 RES1    0.0000
     14 H7         0.5816   -0.8759    2.8307 H         1 RES1    0.0000
     15 C5         0.7170    1.1464    2.3434 C.3       1 RES1    0.0000
     16 C6         1.9491    1.6491    5.9346 C.3       1 RES1    0.0000
     17 H8         2.4386    2.5179    5.8623 H         1 RES1    0.0000
     18 H9         2.5889    0.8694    5.7501 H         1 RES1    0.0000
     19 H10        1.5791    1.5477    6.8618 H         1 RES1    0.0000
     20 C7        -0.0989    2.8504    5.1681 C.3       1 RES1    0.0000
     21 H11       -0.3995    2.8784    6.1132 H         1 RES1    0.0000
     22 H12       -0.9362    2.8564    4.6231 H         1 RES1    0.0000
     23 H13        0.4230    3.6548    4.9890 H         1 RES1    0.0000
     24 C8        -0.1891    2.2293    1.7554 C.3       1 RES1    0.0000
     25 H14       -1.0007    2.4055    2.3164 H         1 RES1    0.0000
     26 H15       -0.4883    1.9081    0.8567 H         1 RES1    0.0000
     27 H16        0.2932    3.0373    1.6662 H         1 RES1    0.0000
     28 C9         1.8187    0.7987    1.3433 C.3       1 RES1    0.0000
     29 H17        2.4690    0.1408    1.7494 H         1 RES1    0.0000
     30 H18        1.3917    0.3514    0.5794 H         1 RES1    0.0000
     31 H19        2.2857    1.5813    1.0605 H         1 RES1    0.0000
@<TRIPOS>BOND
     1    1    2 1
     2    2    6 1
     3    3    4 1
     4    5    3 1
     5    6    7 1
     6    7    8 1
     7    9    7 1
     8   10    3 1
     9   11   10 1
    10   12   10 1
    11   13   12 1
    12   14   12 1
    13   15    2 1
    14   16    6 1
    15   17   16 1
    16   18   16 1
    17   19   16 1
    18   20    6 1
    19   21   20 1
    20   22   20 1
    21   23   20 1
    22   24   15 1
    23   25   24 1
    24   26   24 1
    25   27   24 1
    26   28   15 1
    27   29   28 1
    28   30   28 1
    29   31   28 1
    30    7   10 1
    31   12   15 1
@<TRIPOS>SUBSTRUCTURE
     1 RES1 1

@<TRIPOS>CRYSIN
   5.7210   12.9190   13.9550  90.0000  96.6100  90.0000 231 1

