# MOL2 file generated by ConQuest
# Please check atom types

@<TRIPOS>MOLECULE
OFEXUS
    54    57     1
SMALL
NO_CHARGES
****
Generated from CSD

@<TRIPOS>ATOM
      1 N1         4.9303    1.2545    7.0049 N.ar      1 RES1    0.0000
      2 C1         3.9332    0.7428    7.7713 C.ar      1 RES1    0.0000
      3 N2         3.9544   -0.5732    7.9484 N.3       1 RES1    0.0000
      4 C2         2.9836   -1.2825    8.7677 C.3       1 RES1    0.0000
      5 C3         1.6264   -1.4438    8.1303 C.ar      1 RES1    0.0000
      6 C4         1.4893   -1.6281    6.7637 C.ar      1 RES1    0.0000
      7 C5         0.2473   -1.8249    6.1955 C.ar      1 RES1    0.0000
      8 C6        -0.8777   -1.8462    6.9773 C.ar      1 RES1    0.0000
      9 C7        -0.7523   -1.6659    8.3396 C.ar      1 RES1    0.0000
     10 C8         0.4881   -1.4620    8.9126 C.ar      1 RES1    0.0000
     11 N3         2.9374    1.4222    8.3766 N.ar      1 RES1    0.0000
     12 C9         2.9831    2.7344    8.2536 C.ar      1 RES1    0.0000
     13 O1         2.0252    3.4636    8.7954 O.3       1 RES1    0.0000
     14 C10        0.9459    2.7757    9.4658 C.3       1 RES1    0.0000
     15 C11        0.0001    3.8198    9.9773 C.ar      1 RES1    0.0000
     16 C12        0.3211    5.1636   10.0023 C.ar      1 RES1    0.0000
     17 C13       -0.5620    6.0886   10.5321 C.ar      1 RES1    0.0000
     18 C14       -1.7727    5.6884   11.0384 C.ar      1 RES1    0.0000
     19 C15       -2.1166    4.3528   11.0017 C.ar      1 RES1    0.0000
     20 C16       -1.2322    3.4239   10.4674 C.ar      1 RES1    0.0000
     21 C17        4.0250    3.4213    7.5697 C.ar      1 RES1    0.0000
     22 N4         4.2323    4.7626    7.4094 N.2       1 RES1    0.0000
     23 O2         3.4301    5.5624    7.9476 O.2       1 RES1    0.0000
     24 C18        4.9637    2.5623    6.9281 C.ar      1 RES1    0.0000
     25 O3         5.9165    3.1599    6.2165 O.3       1 RES1    0.0000
     26 C19        6.8688    2.3105    5.5154 C.3       1 RES1    0.0000
     27 C20        7.9732    1.8098    6.3982 C.ar      1 RES1    0.0000
     28 C21        8.8482    2.6970    7.0037 C.ar      1 RES1    0.0000
     29 C22        9.9106    2.2391    7.7528 C.ar      1 RES1    0.0000
     30 C23       10.1248    0.8825    7.8834 C.ar      1 RES1    0.0000
     31 C24        9.2621   -0.0035    7.2839 C.ar      1 RES1    0.0000
     32 C25        8.1790    0.4500    6.5571 C.ar      1 RES1    0.0000
     33 H1         4.5864   -1.0392    7.5513 H         1 RES1    0.0000
     34 H2         2.8754   -0.7956    9.6231 H         1 RES1    0.0000
     35 H3         3.3431   -2.1812    8.9784 H         1 RES1    0.0000
     36 H4         2.2612   -1.6181    6.2097 H         1 RES1    0.0000
     37 H5         0.1718   -1.9456    5.2563 H         1 RES1    0.0000
     38 H6        -1.7334   -1.9835    6.5871 H         1 RES1    0.0000
     39 H7        -1.5264   -1.6814    8.8889 H         1 RES1    0.0000
     40 H8         0.5591   -1.3334    9.8512 H         1 RES1    0.0000
     41 H9         1.2983    2.2350   10.2168 H         1 RES1    0.0000
     42 H10        0.4798    2.1717    8.8349 H         1 RES1    0.0000
     43 H11        1.1550    5.4555    9.6526 H         1 RES1    0.0000
     44 H12       -0.3269    7.0087   10.5450 H         1 RES1    0.0000
     45 H13       -2.3705    6.3270   11.4119 H         1 RES1    0.0000
     46 H14       -2.9567    4.0683   11.3412 H         1 RES1    0.0000
     47 H15       -1.4759    2.5055   10.4379 H         1 RES1    0.0000
     48 H16        7.2638    2.8218    4.7649 H         1 RES1    0.0000
     49 H17        6.3869    1.5359    5.1325 H         1 RES1    0.0000
     50 H18        8.7144    3.6317    6.9016 H         1 RES1    0.0000
     51 H19       10.4945    2.8566    8.1783 H         1 RES1    0.0000
     52 H20       10.8654    0.5631    8.3857 H         1 RES1    0.0000
     53 H21        9.4120   -0.9380    7.3704 H         1 RES1    0.0000
     54 H22        7.5755   -0.1708    6.1664 H         1 RES1    0.0000
@<TRIPOS>BOND
     1    1    2 ar
     2    2    3 1
     3    3    4 1
     4    4    5 1
     5    5    6 ar
     6    6    7 ar
     7    7    8 ar
     8    8    9 ar
     9    9   10 ar
    10   10    5 ar
    11   11    2 ar
    12   12   11 ar
    13   13   12 1
    14   14   13 1
    15   15   14 1
    16   16   15 ar
    17   17   16 ar
    18   18   17 ar
    19   19   18 ar
    20   20   15 ar
    21   21   12 ar
    22   22   21 1
    23   23   22 2
    24   24    1 ar
    25   25   24 1
    26   26   25 1
    27   27   26 1
    28   28   27 ar
    29   29   28 ar
    30   30   29 ar
    31   31   30 ar
    32   32   27 ar
    33   33    3 1
    34   34    4 1
    35   35    4 1
    36   36    6 1
    37   37    7 1
    38   38    8 1
    39   39    9 1
    40   40   10 1
    41   41   14 1
    42   42   14 1
    43   43   16 1
    44   44   17 1
    45   45   18 1
    46   46   19 1
    47   47   20 1
    48   48   26 1
    49   49   26 1
    50   50   28 1
    51   51   29 1
    52   52   30 1
    53   53   31 1
    54   54   32 1
    55   19   20 ar
    56   21   24 ar
    57   31   32 ar
@<TRIPOS>SUBSTRUCTURE
     1 RES1 1

@<TRIPOS>CRYSIN
  13.8074   15.8175   10.2119  90.0000 105.7490  90.0000  14 1

