# MOL2 file generated by ConQuest
# Please check atom types

@<TRIPOS>MOLECULE
OFEXOM
    54    57     1
SMALL
NO_CHARGES
****
Generated from CSD

@<TRIPOS>ATOM
      1 N1         5.8702    1.3052    2.9847 N.ar      1 RES1    0.0000
      2 O1         4.0030    0.5966    3.9562 O.3       1 RES1    0.0000
      3 C1         4.6632    0.7342    2.8054 C.ar      1 RES1    0.0000
      4 C2         2.6673    0.0171    3.8896 C.3       1 RES1    0.0000
      5 C3         2.0180    0.2532    5.2174 C.ar      1 RES1    0.0000
      6 C4         0.8537    1.0058    5.3113 C.ar      1 RES1    0.0000
      7 C5         0.2535    1.2390    6.5324 C.ar      1 RES1    0.0000
      8 C6         0.8149    0.7205    7.6869 C.ar      1 RES1    0.0000
      9 C7         1.9697   -0.0249    7.6115 C.ar      1 RES1    0.0000
     10 C8         2.5689   -0.2640    6.3875 C.ar      1 RES1    0.0000
     11 N2         4.0839    0.3255    1.6955 N.ar      1 RES1    0.0000
     12 N3         4.2650    0.1101   -0.5859 N.3       1 RES1    0.0000
     13 C9         2.9728   -0.5720   -0.7020 C.3       1 RES1    0.0000
     14 C10        1.8537    0.3859   -1.0253 C.ar      1 RES1    0.0000
     15 C11        1.2739    1.1623   -0.0274 C.ar      1 RES1    0.0000
     16 C12        0.2440    2.0341   -0.3209 C.ar      1 RES1    0.0000
     17 C13       -0.2203    2.1414   -1.6187 C.ar      1 RES1    0.0000
     18 C14        0.3470    1.3851   -2.6211 C.ar      1 RES1    0.0000
     19 C15        1.3767    0.5107   -2.3231 C.ar      1 RES1    0.0000
     20 C16        4.7870    0.5250    0.5580 C.ar      1 RES1    0.0000
     21 C17        6.0698    1.1763    0.5809 C.ar      1 RES1    0.0000
     22 N4         6.8410    1.4996   -0.4887 N.2       1 RES1    0.0000
     23 O2         6.3992    1.1750   -1.6364 O.2       1 RES1    0.0000
     24 C18        6.5487    1.5175    1.8790 C.ar      1 RES1    0.0000
     25 O3         7.7578    2.0722    1.9458 O.3       1 RES1    0.0000
     26 C19        8.1992    2.4779    3.2703 C.3       1 RES1    0.0000
     27 C20        9.6625    2.8053    3.2103 C.ar      1 RES1    0.0000
     28 C21       10.4989    2.2727    4.1752 C.ar      1 RES1    0.0000
     29 C22       11.8440    2.6100    4.2120 C.ar      1 RES1    0.0000
     30 C23       12.3678    3.4627    3.2670 C.ar      1 RES1    0.0000
     31 C24       11.5440    3.9944    2.2909 C.ar      1 RES1    0.0000
     32 C25       10.1962    3.6772    2.2660 C.ar      1 RES1    0.0000
     33 H1         2.7239   -0.9537    3.7014 H         1 RES1    0.0000
     34 H2         2.1426    0.4469    3.1689 H         1 RES1    0.0000
     35 H3         0.4646    1.3649    4.5229 H         1 RES1    0.0000
     36 H4        -0.5432    1.7543    6.5812 H         1 RES1    0.0000
     37 H5         0.4037    0.8799    8.5298 H         1 RES1    0.0000
     38 H6         2.3569   -0.3777    8.4035 H         1 RES1    0.0000
     39 H7         3.3617   -0.7850    6.3452 H         1 RES1    0.0000
     40 H8         4.7228    0.2526   -1.3228 H         1 RES1    0.0000
     41 H9         2.7700   -1.0338    0.1500 H         1 RES1    0.0000
     42 H10        3.0294   -1.2584   -1.4143 H         1 RES1    0.0000
     43 H11        1.5894    1.0921    0.8654 H         1 RES1    0.0000
     44 H12       -0.1449    2.5595    0.3678 H         1 RES1    0.0000
     45 H13       -0.9325    2.7367   -1.8205 H         1 RES1    0.0000
     46 H14        0.0324    1.4644   -3.5147 H         1 RES1    0.0000
     47 H15        1.7637   -0.0117   -3.0171 H         1 RES1    0.0000
     48 H16        8.0436    1.7449    3.9173 H         1 RES1    0.0000
     49 H17        7.6871    3.2707    3.5696 H         1 RES1    0.0000
     50 H18       10.1480    1.6688    4.8193 H         1 RES1    0.0000
     51 H19       12.4045    2.2517    4.8906 H         1 RES1    0.0000
     52 H20       13.2909    3.6858    3.2842 H         1 RES1    0.0000
     53 H21       11.9040    4.5796    1.6357 H         1 RES1    0.0000
     54 H22        9.6338    4.0565    1.6009 H         1 RES1    0.0000
@<TRIPOS>BOND
     1    1    3 ar
     2    2    3 1
     3    3   11 ar
     4    4    2 1
     5    5    4 1
     6    6    5 ar
     7    7    6 ar
     8    8    7 ar
     9    9    8 ar
    10   10    5 ar
    11   11   20 ar
    12   12   13 1
    13   13   14 1
    14   14   15 ar
    15   15   16 ar
    16   16   17 ar
    17   17   18 ar
    18   18   19 ar
    19   19   14 ar
    20   20   12 1
    21   21   20 ar
    22   22   21 1
    23   23   22 2
    24   24    1 ar
    25   25   24 1
    26   26   25 1
    27   27   26 1
    28   28   27 ar
    29   29   28 ar
    30   30   29 ar
    31   31   30 ar
    32   32   27 ar
    33   33    4 1
    34   34    4 1
    35   35    6 1
    36   36    7 1
    37   37    8 1
    38   38    9 1
    39   39   10 1
    40   40   12 1
    41   41   13 1
    42   42   13 1
    43   43   15 1
    44   44   16 1
    45   45   17 1
    46   46   18 1
    47   47   19 1
    48   48   26 1
    49   49   26 1
    50   50   28 1
    51   51   29 1
    52   52   30 1
    53   53   31 1
    54   54   32 1
    55    9   10 ar
    56   21   24 ar
    57   31   32 ar
@<TRIPOS>SUBSTRUCTURE
     1 RES1 1

@<TRIPOS>CRYSIN
  14.6856    7.7726   18.5721  90.0000  99.8847  90.0000 231 1

