# MOL2 file generated by ConQuest
# Please check atom types

@<TRIPOS>MOLECULE
OFIHER
    50    52     1
SMALL
NO_CHARGES
****
Generated from CSD

@<TRIPOS>ATOM
      1 O1        -3.1674   12.9858    4.4723 O.3       1 RES1    0.0000
      2 O2        -0.9538   12.1950    5.7527 O.3       1 RES1    0.0000
      3 O3         0.9711   10.8735    4.5143 O.3       1 RES1    0.0000
      4 O4        -1.1212    8.7854    0.6959 O.3       1 RES1    0.0000
      5 O5        -1.3854    7.3324   -0.9827 O.2       1 RES1    0.0000
      6 N1        -3.0765   14.7595   -3.5319 N.3       1 RES1    0.0000
      7 N2        -1.4362    9.8048   -0.2791 N.2       1 RES1    0.0000
      8 C1        -1.3877   11.2813    1.7386 C.ar      1 RES1    0.0000
      9 C2        -2.3920   12.0042    2.3794 C.ar      1 RES1    0.0000
     10 H1        -3.1393   12.2969    1.9108 H         1 RES1    0.0000
     11 C3        -2.2514   12.2797    3.7401 C.ar      1 RES1    0.0000
     12 C4        -1.1326   11.8527    4.4181 C.ar      1 RES1    0.0000
     13 C5        -0.1194   11.1844    3.7610 C.ar      1 RES1    0.0000
     14 C6        -0.2447   10.8797    2.4132 C.ar      1 RES1    0.0000
     15 H2         0.4276   10.4136    1.9701 H         1 RES1    0.0000
     16 C7        -4.1273   13.7444    3.7866 C.3       1 RES1    0.0000
     17 H3        -3.6986   14.2550    3.0958 H         1 RES1    0.0000
     18 H4        -4.5635   14.3408    4.4007 H         1 RES1    0.0000
     19 H5        -4.7782   13.1585    3.3935 H         1 RES1    0.0000
     20 C8        -1.5805   11.2940    6.6580 C.3       1 RES1    0.0000
     21 H6        -2.5190   11.2438    6.4615 H         1 RES1    0.0000
     22 H7        -1.4585   11.6078    7.5570 H         1 RES1    0.0000
     23 H8        -1.1874   10.4231    6.5673 H         1 RES1    0.0000
     24 C9         2.0841   10.2803    3.8413 C.3       1 RES1    0.0000
     25 H9         1.8279    9.4235    3.4924 H         1 RES1    0.0000
     26 H10        2.8101   10.1693    4.4600 H         1 RES1    0.0000
     27 H11        2.3631   10.8493    3.1202 H         1 RES1    0.0000
     28 C10       -1.5753   10.9546    0.2873 C.2       1 RES1    0.0000
     29 C11       -1.9932   12.0172   -0.6559 C.ar      1 RES1    0.0000
     30 C12       -2.8458   11.7198   -1.7026 C.ar      1 RES1    0.0000
     31 H12       -3.2058   10.8659   -1.7805 H         1 RES1    0.0000
     32 C13       -3.1660   12.7000   -2.6399 C.ar      1 RES1    0.0000
     33 C14       -3.9746   12.7298   -3.8145 C.2       1 RES1    0.0000
     34 H13       -4.4639   12.0231   -4.1681 H         1 RES1    0.0000
     35 C15       -3.8921   13.9871   -4.3146 C.2       1 RES1    0.0000
     36 H14       -4.3281   14.2831   -5.0810 H         1 RES1    0.0000
     37 C16       -2.6149   13.9834   -2.4911 C.ar      1 RES1    0.0000
     38 C17       -1.7688   14.3081   -1.4421 C.ar      1 RES1    0.0000
     39 H15       -1.4119   15.1622   -1.3549 H         1 RES1    0.0000
     40 C18       -1.4776   13.3140   -0.5338 C.ar      1 RES1    0.0000
     41 H16       -0.9206   13.5106    0.1849 H         1 RES1    0.0000
     42 C19       -2.6957   16.1355   -3.7855 C.3       1 RES1    0.0000
     43 H17       -1.7770   16.1674   -4.0611 H         1 RES1    0.0000
     44 H18       -2.8074   16.6513   -2.9842 H         1 RES1    0.0000
     45 H19       -3.2513   16.4987   -4.4798 H         1 RES1    0.0000
     46 C20       -1.1525    7.5410    0.1558 C.2       1 RES1    0.0000
     47 C21       -0.8723    6.5182    1.2118 C.3       1 RES1    0.0000
     48 H20       -1.6856    6.3048    1.6747 H         1 RES1    0.0000
     49 H21       -0.2312    6.8683    1.8340 H         1 RES1    0.0000
     50 H22       -0.5203    5.7246    0.8024 H         1 RES1    0.0000
@<TRIPOS>BOND
     1    1   11 1
     2    2   12 1
     3    3   13 1
     4    4    7 1
     5    5   46 2
     6    6   35 1
     7    7   28 2
     8    8    9 ar
     9    9   10 1
    10   11    9 ar
    11   12   11 ar
    12   13   12 ar
    13   14    8 ar
    14   15   14 1
    15   16    1 1
    16   17   16 1
    17   18   16 1
    18   19   16 1
    19   20    2 1
    20   21   20 1
    21   22   20 1
    22   23   20 1
    23   24    3 1
    24   25   24 1
    25   26   24 1
    26   27   24 1
    27   28    8 1
    28   29   28 1
    29   30   29 ar
    30   31   30 1
    31   32   30 ar
    32   33   32 1
    33   34   33 1
    34   35   33 2
    35   36   35 1
    36   37    6 1
    37   38   37 ar
    38   39   38 1
    39   40   29 ar
    40   41   40 1
    41   42    6 1
    42   43   42 1
    43   44   42 1
    44   45   42 1
    45   46    4 1
    46   47   46 1
    47   48   47 1
    48   49   47 1
    49   50   47 1
    50   13   14 ar
    51   32   37 ar
    52   38   40 ar
@<TRIPOS>SUBSTRUCTURE
     1 RES1 1

@<TRIPOS>CRYSIN
   8.2330   10.8730   12.0000  97.2700  99.1500 108.9400   2 1

