# MOL2 file generated by ConQuest
# Please check atom types

@<TRIPOS>MOLECULE
OFIJUJ
    58    60     1
SMALL
NO_CHARGES
****
Generated from CSD

@<TRIPOS>ATOM
      1 O1         3.3814    4.4042    1.7359 O.3       1 RES1    0.0000
      2 O2         1.9838    6.1157    1.3426 O.2       1 RES1    0.0000
      3 O3         2.6204    0.6565   -3.0438 O.2       1 RES1    0.0000
      4 O4         3.9518    0.8930   -1.3907 O.2       1 RES1    0.0000
      5 O5        -0.7089    5.8578   -2.6959 O.2       1 RES1    0.0000
      6 O6        -0.4123    4.2729   -4.1220 O.2       1 RES1    0.0000
      7 N1         3.0268    1.2632   -2.0689 N.pl3     1 RES1    0.0000
      8 N2        -0.2066    4.8087   -3.0655 N.pl3     1 RES1    0.0000
      9 C1         3.9773    5.0742    2.8925 C.3       1 RES1    0.0000
     10 H1         4.0547    6.0027    2.6831 H         1 RES1    0.0000
     11 C2         3.1277    4.8560    4.1240 C.3       1 RES1    0.0000
     12 H2         3.2209    5.6000    4.7392 H         1 RES1    0.0000
     13 H3         2.1935    4.7679    3.8812 H         1 RES1    0.0000
     14 C3         3.6331    3.5833    4.7530 C.3       1 RES1    0.0000
     15 H4         2.9376    2.9073    4.7540 H         1 RES1    0.0000
     16 H5         3.9096    3.7453    5.6680 H         1 RES1    0.0000
     17 C4         4.8239    3.1214    3.9097 C.3       1 RES1    0.0000
     18 H6         5.5357    2.7808    4.4739 H         1 RES1    0.0000
     19 H7         4.5577    2.4277    3.2856 H         1 RES1    0.0000
     20 C5         5.2712    4.3764    3.1687 C.3       1 RES1    0.0000
     21 H8         5.7637    4.9618    3.8331 H         1 RES1    0.0000
     22 C6         6.1695    4.1043    1.9617 C.3       1 RES1    0.0000
     23 H9         6.9817    3.6773    2.2792 H         1 RES1    0.0000
     24 H10        5.7168    3.4697    1.3848 H         1 RES1    0.0000
     25 C7         6.5626    5.3037    1.1283 C.3       1 RES1    0.0000
     26 H11        5.6972    5.7780    0.8354 H         1 RES1    0.0000
     27 C8         7.2922    4.8956   -0.1759 C.3       1 RES1    0.0000
     28 H12        8.1214    4.4887    0.0491 H         1 RES1    0.0000
     29 C9         6.4749    3.9334   -1.0094 C.3       1 RES1    0.0000
     30 H13        6.4008    3.0901   -0.5356 H         1 RES1    0.0000
     31 H14        5.5799    4.2912   -1.1175 H         1 RES1    0.0000
     32 C10        7.0678    3.6791   -2.3716 C.2       1 RES1    0.0000
     33 H15        6.7639    2.9446   -2.8532 H         1 RES1    0.0000
     34 C11        7.9970    4.4438   -2.9190 C.2       1 RES1    0.0000
     35 C12        8.4722    5.6609   -2.2546 C.3       1 RES1    0.0000
     36 H16        8.4695    6.3865   -2.8974 H         1 RES1    0.0000
     37 H17        9.3896    5.5225   -1.9735 H         1 RES1    0.0000
     38 C13        7.6575    6.0784   -1.0507 C.3       1 RES1    0.0000
     39 H18        6.8468    6.5166   -1.3504 H         1 RES1    0.0000
     40 H19        8.1657    6.7177   -0.5268 H         1 RES1    0.0000
     41 C14        7.4146    6.2641    1.9460 C.3       1 RES1    0.0000
     42 H20        7.6455    7.0246    1.4074 H         1 RES1    0.0000
     43 H21        8.2156    5.8182    2.2301 H         1 RES1    0.0000
     44 H22        6.9211    6.5545    2.7156 H         1 RES1    0.0000
     45 C15        8.6064    4.1085   -4.2586 C.3       1 RES1    0.0000
     46 H23        8.2062    3.3053   -4.5997 H         1 RES1    0.0000
     47 H24        9.5514    3.9766   -4.1564 H         1 RES1    0.0000
     48 H25        8.4485    4.8306   -4.8719 H         1 RES1    0.0000
     49 C16        2.4332    5.0381    1.0683 C.2       1 RES1    0.0000
     50 C17        2.0417    4.2593   -0.1533 C.ar      1 RES1    0.0000
     51 C18        2.6619    3.0895   -0.4993 C.ar      1 RES1    0.0000
     52 H26        3.2972    2.7074    0.0609 H         1 RES1    0.0000
     53 C19        2.3278    2.4868   -1.6924 C.ar      1 RES1    0.0000
     54 C20        1.3761    2.9978   -2.5387 C.ar      1 RES1    0.0000
     55 H27        1.1521    2.5690   -3.3328 H         1 RES1    0.0000
     56 C21        0.7718    4.1682   -2.1613 C.ar      1 RES1    0.0000
     57 C22        1.0775    4.7933   -0.9769 C.ar      1 RES1    0.0000
     58 H28        0.6342    5.5734   -0.7322 H         1 RES1    0.0000
@<TRIPOS>BOND
     1    1    9 1
     2    2   49 2
     3    3    7 2
     4    4    7 2
     5    5    8 2
     6    6    8 2
     7    7   53 1
     8    8   56 1
     9    9   10 1
    10   11    9 1
    11   12   11 1
    12   13   11 1
    13   14   11 1
    14   15   14 1
    15   16   14 1
    16   17   14 1
    17   18   17 1
    18   19   17 1
    19   20    9 1
    20   21   20 1
    21   22   20 1
    22   23   22 1
    23   24   22 1
    24   25   22 1
    25   26   25 1
    26   27   25 1
    27   28   27 1
    28   29   27 1
    29   30   29 1
    30   31   29 1
    31   32   29 1
    32   33   32 1
    33   34   32 2
    34   35   34 1
    35   36   35 1
    36   37   35 1
    37   38   27 1
    38   39   38 1
    39   40   38 1
    40   41   25 1
    41   42   41 1
    42   43   41 1
    43   44   41 1
    44   45   34 1
    45   46   45 1
    46   47   45 1
    47   48   45 1
    48   49    1 1
    49   50   49 1
    50   51   50 ar
    51   52   51 1
    52   53   51 ar
    53   54   53 ar
    54   55   54 1
    55   56   54 ar
    56   57   50 ar
    57   58   57 1
    58   17   20 1
    59   35   38 1
    60   56   57 ar
@<TRIPOS>SUBSTRUCTURE
     1 RES1 1

@<TRIPOS>CRYSIN
  19.1040    5.9140    9.8340  90.0000  91.9400  90.0000   4 1

