# MOL2 file generated by ConQuest
# Please check atom types

@<TRIPOS>MOLECULE
OFIWUY
    30    31     1
SMALL
NO_CHARGES
****
Generated from CSD

@<TRIPOS>ATOM
      1 O1         4.3748    5.5522    2.3060 O.2       1 RES1    0.0000
      2 O2         1.5573    4.2648    1.8082 O.2       1 RES1    0.0000
      3 N1         2.8260    3.3125    0.1980 N.am      1 RES1    0.0000
      4 H1         2.3272    3.6364   -0.4503 H         1 RES1    0.0000
      5 H2         3.5261    2.8144    0.0078 H         1 RES1    0.0000
      6 O3         3.6925    6.9534    3.7745 O.2       1 RES1    0.0000
      7 N2         3.3483    3.0126    2.4338 N.am      1 RES1    0.0000
      8 C1         2.5192    3.5783    1.4772 C.2       1 RES1    0.0000
      9 N3         3.8517    5.8128    3.3756 N.pl3     1 RES1    0.0000
     10 C2         3.4270    4.7183    4.2614 C.ar      1 RES1    0.0000
     11 C3         3.2250    3.4163    3.7960 C.ar      1 RES1    0.0000
     12 C4         4.3600    2.0345    2.1402 C.ar      1 RES1    0.0000
     13 C5         4.0092    0.7923    1.6439 C.ar      1 RES1    0.0000
     14 H3         3.0961    0.5814    1.4851 H         1 RES1    0.0000
     15 C6         4.9963   -0.1433    1.3792 C.ar      1 RES1    0.0000
     16 H4         4.7577   -0.9900    1.0193 H         1 RES1    0.0000
     17 C7         6.3163    0.1412    1.6322 C.ar      1 RES1    0.0000
     18 H5         6.9882   -0.5042    1.4474 H         1 RES1    0.0000
     19 C8         2.9049    2.4419    4.7336 C.ar      1 RES1    0.0000
     20 H6         2.7707    1.5463    4.4466 H         1 RES1    0.0000
     21 C9         2.7778    2.7499    6.0779 C.ar      1 RES1    0.0000
     22 H7         2.5738    2.0653    6.7037 H         1 RES1    0.0000
     23 C10        2.9484    4.0518    6.5116 C.ar      1 RES1    0.0000
     24 H8         2.8443    4.2657    7.4313 H         1 RES1    0.0000
     25 C11        3.2672    5.0322    5.6071 C.ar      1 RES1    0.0000
     26 H9         3.3794    5.9287    5.9006 H         1 RES1    0.0000
     27 C12        5.6904    2.3237    2.4006 C.ar      1 RES1    0.0000
     28 H10        5.9342    3.1743    2.7462 H         1 RES1    0.0000
     29 C13        6.6617    1.3709    2.1560 C.ar      1 RES1    0.0000
     30 H11        7.5712    1.5630    2.3492 H         1 RES1    0.0000
@<TRIPOS>BOND
     1    1    9 2
     2    2    8 2
     3    3    4 1
     4    5    3 1
     5    6    9 2
     6    7    8 1
     7    8    3 1
     8    9   10 1
     9   10   11 ar
    10   11    7 1
    11   12    7 1
    12   13   12 ar
    13   14   13 1
    14   15   13 ar
    15   16   15 1
    16   17   15 ar
    17   18   17 1
    18   19   11 ar
    19   20   19 1
    20   21   19 ar
    21   22   21 1
    22   23   21 ar
    23   24   23 1
    24   25   10 ar
    25   26   25 1
    26   27   12 ar
    27   28   27 1
    28   29   17 ar
    29   30   29 1
    30   23   25 ar
    31   27   29 ar
@<TRIPOS>SUBSTRUCTURE
     1 RES1 1

@<TRIPOS>CRYSIN
   6.9053    8.1316   11.2989  79.2330  85.0840  74.9630   2 1

