# MOL2 file generated by ConQuest
# Please check atom types

@<TRIPOS>MOLECULE
OFIXEJ
    36    37     1
SMALL
NO_CHARGES
****
Generated from CSD

@<TRIPOS>ATOM
      1 O1         5.3573   -2.9835    5.2700 O.3       1 RES1    0.0000
      2 O2         1.2162    5.7903    8.4799 O.2       1 RES1    0.0000
      3 O3         1.2336    4.2531    6.9635 O.2       1 RES1    0.0000
      4 N1         1.0011    0.9640    8.5806 N.am      1 RES1    0.0000
      5 H1         0.2783    0.8296    9.0635 H         1 RES1    0.0000
      6 H2         1.2248    0.3878    7.9544 H         1 RES1    0.0000
      7 O4         4.6425   -1.9708    3.4061 O.2       1 RES1    0.0000
      8 N2         1.7720    4.9020    7.8516 N.pl3     1 RES1    0.0000
      9 C1         1.7569    2.0390    8.7975 C.2       1 RES1    0.0000
     10 O5         1.5022    2.8841    9.6562 O.2       1 RES1    0.0000
     11 C2         5.8432   -4.1050    4.4920 C.3       1 RES1    0.0000
     12 H3         6.2547   -4.7633    5.0898 H         1 RES1    0.0000
     13 H4         6.5084   -3.7898    3.8446 H         1 RES1    0.0000
     14 H5         5.0947   -4.5206    4.0154 H         1 RES1    0.0000
     15 C3         4.7661   -1.9899    4.6041 C.2       1 RES1    0.0000
     16 C4         4.2731   -0.9170    5.5074 C.ar      1 RES1    0.0000
     17 C5         4.3283   -1.0456    6.8848 C.ar      1 RES1    0.0000
     18 H6         4.6837   -1.8377    7.2702 H         1 RES1    0.0000
     19 C6         3.8687   -0.0315    7.7028 C.ar      1 RES1    0.0000
     20 H7         3.9089   -0.1248    8.6474 H         1 RES1    0.0000
     21 C7         3.3519    1.1158    7.1428 C.ar      1 RES1    0.0000
     22 N3         2.8844    2.1800    7.9899 N.am      1 RES1    0.0000
     23 C8         3.6969    3.3393    8.1123 C.ar      1 RES1    0.0000
     24 C9         3.1861    4.6345    8.1338 C.ar      1 RES1    0.0000
     25 C10        3.9926    5.7314    8.3661 C.ar      1 RES1    0.0000
     26 H8         3.6118    6.5990    8.4310 H         1 RES1    0.0000
     27 C11        5.3539    5.5611    8.5027 C.ar      1 RES1    0.0000
     28 H9         5.9182    6.3119    8.6435 H         1 RES1    0.0000
     29 C12        5.8850    4.3020    8.4339 C.ar      1 RES1    0.0000
     30 H10        6.8248    4.1831    8.5064 H         1 RES1    0.0000
     31 C13        5.0690    3.2005    8.2596 C.ar      1 RES1    0.0000
     32 H11        5.4548    2.3330    8.2403 H         1 RES1    0.0000
     33 C14        3.7412    0.2380    4.9511 C.ar      1 RES1    0.0000
     34 H12        3.6886    0.3284    4.0065 H         1 RES1    0.0000
     35 C15        3.2876    1.2564    5.7661 C.ar      1 RES1    0.0000
     36 H13        2.9335    2.0510    5.3837 H         1 RES1    0.0000
@<TRIPOS>BOND
     1    1   11 1
     2    2    8 2
     3    3    8 2
     4    4    5 1
     5    6    4 1
     6    7   15 2
     7    8   24 1
     8    9    4 1
     9   10    9 2
    10   11   12 1
    11   13   11 1
    12   14   11 1
    13   15    1 1
    14   16   15 1
    15   17   16 ar
    16   18   17 1
    17   19   17 ar
    18   20   19 1
    19   21   19 ar
    20   22    9 1
    21   23   22 1
    22   24   23 ar
    23   25   24 ar
    24   26   25 1
    25   27   25 ar
    26   28   27 1
    27   29   27 ar
    28   30   29 1
    29   31   23 ar
    30   32   31 1
    31   33   16 ar
    32   34   33 1
    33   35   21 ar
    34   36   35 1
    35   21   22 1
    36   29   31 ar
    37   33   35 ar
@<TRIPOS>SUBSTRUCTURE
     1 RES1 1

@<TRIPOS>CRYSIN
   7.7722   10.1203   10.6799 102.4790 103.1820 105.8130   2 1

