# MOL2 file generated by ConQuest
# Please check atom types

@<TRIPOS>MOLECULE
OFOREJ
    62    65     1
SMALL
NO_CHARGES
****
Generated from CSD

@<TRIPOS>ATOM
      1 O1         3.5547    6.0690    0.5408 O.3       1 RES1    0.0000
      2 O2         5.8622    0.8165    2.7638 O.3       1 RES1    0.0000
      3 H1         5.3701    0.2235    2.4835 H         1 RES1    0.0000
      4 N1         4.3654    5.5881    1.6207 N.2       1 RES1    0.0000
      5 C1         4.1796    4.3351    1.7631 C.2       1 RES1    0.0000
      6 C2         4.2762    2.4595    3.5767 C.3       1 RES1    0.0000
      7 H2         3.6676    2.0174    2.9491 H         1 RES1    0.0000
      8 C3         5.3088    1.3694    3.9767 C.3       1 RES1    0.0000
      9 C4         2.6768    1.7135    5.3629 C.3       1 RES1    0.0000
     10 H3         2.2732    1.2516    4.5986 H         1 RES1    0.0000
     11 C5         3.7324    0.7340    5.8933 C.3       1 RES1    0.0000
     12 H4         4.2804    1.1754    6.5611 H         1 RES1    0.0000
     13 H5         3.2936   -0.0226    6.3129 H         1 RES1    0.0000
     14 C6         4.9918    3.5531    2.7431 C.3       1 RES1    0.0000
     15 H6         5.3949    4.1814    3.3622 H         1 RES1    0.0000
     16 H7         5.7156    3.1286    2.2569 H         1 RES1    0.0000
     17 C7         1.4872    1.9715    6.3414 C.3       1 RES1    0.0000
     18 C8         0.4898    2.9065    5.6483 C.3       1 RES1    0.0000
     19 H8         0.0783    2.4327    4.9085 H         1 RES1    0.0000
     20 H9        -0.2120    3.1385    6.2774 H         1 RES1    0.0000
     21 C9         2.5448    5.0685    0.2961 C.3       1 RES1    0.0000
     22 H10        2.3538    5.0191   -0.6644 H         1 RES1    0.0000
     23 C10        1.2694    5.3949    1.0563 C.ar      1 RES1    0.0000
     24 C11        3.2065    3.7724    0.7569 C.3       1 RES1    0.0000
     25 H11        2.5691    3.1681    1.1685 H         1 RES1    0.0000
     26 H12        3.6607    3.3197    0.0293 H         1 RES1    0.0000
     27 C12        2.2583    3.8655    4.1463 C.3       1 RES1    0.0000
     28 H13        2.6595    4.6961    3.8448 H         1 RES1    0.0000
     29 H14        1.8838    3.4206    3.3700 H         1 RES1    0.0000
     30 C13        4.1563    3.8035    5.7715 C.3       1 RES1    0.0000
     31 H15        4.5197    3.2203    6.4424 H         1 RES1    0.0000
     32 H16        3.5750    4.4451    6.1865 H         1 RES1    0.0000
     33 H17        4.8721    4.2625    5.3247 H         1 RES1    0.0000
     34 C14        4.6165    0.2440    4.7438 C.3       1 RES1    0.0000
     35 H18        5.2929   -0.3526    5.1012 H         1 RES1    0.0000
     36 H19        4.0709   -0.2665    4.1253 H         1 RES1    0.0000
     37 C15        1.1254    4.1927    5.1198 C.3       1 RES1    0.0000
     38 H20        1.4729    4.7117    5.8612 H         1 RES1    0.0000
     39 H21        0.4517    4.7251    4.6680 H         1 RES1    0.0000
     40 C16        3.3588    2.9742    4.7452 C.3       1 RES1    0.0000
     41 C17        6.5354    1.8756    4.7374 C.3       1 RES1    0.0000
     42 H22        7.1656    1.1592    4.8422 H         1 RES1    0.0000
     43 H23        6.2663    2.1944    5.6022 H         1 RES1    0.0000
     44 H24        6.9437    2.5920    4.2456 H         1 RES1    0.0000
     45 C18        1.1630    6.5196    1.8655 C.ar      1 RES1    0.0000
     46 H25        1.8941    7.0837    1.9779 H         1 RES1    0.0000
     47 C19        1.9080    2.5363    7.7059 C.3       1 RES1    0.0000
     48 H26        2.6231    2.0054    8.0642 H         1 RES1    0.0000
     49 H27        1.1596    2.5124    8.3062 H         1 RES1    0.0000
     50 H28        2.2045    3.4431    7.6001 H         1 RES1    0.0000
     51 C20        0.1746    4.5615    0.9132 C.ar      1 RES1    0.0000
     52 H29        0.2423    3.7971    0.3885 H         1 RES1    0.0000
     53 C21       -0.0406    6.8009    2.5085 C.ar      1 RES1    0.0000
     54 H30       -0.1067    7.5512    3.0539 H         1 RES1    0.0000
     55 C22        0.7490    0.6501    6.5998 C.3       1 RES1    0.0000
     56 H31        0.5727    0.2129    5.7625 H         1 RES1    0.0000
     57 H32       -0.0810    0.8292    7.0482 H         1 RES1    0.0000
     58 H33        1.2939    0.0811    7.1484 H         1 RES1    0.0000
     59 C23       -1.1341    5.9802    2.3446 C.ar      1 RES1    0.0000
     60 H34       -1.9392    6.1797    2.7656 H         1 RES1    0.0000
     61 C24       -1.0256    4.8562    1.5479 C.ar      1 RES1    0.0000
     62 H35       -1.7587    4.2949    1.4368 H         1 RES1    0.0000
@<TRIPOS>BOND
     1    1    4 1
     2    2    3 1
     3    4    5 2
     4    5   14 1
     5    6    7 1
     6    8    2 1
     7    9   10 1
     8   11    9 1
     9   12   11 1
    10   13   11 1
    11   14    6 1
    12   15   14 1
    13   16   14 1
    14   17    9 1
    15   18   17 1
    16   19   18 1
    17   20   18 1
    18   21    1 1
    19   22   21 1
    20   23   21 1
    21   24    5 1
    22   25   24 1
    23   26   24 1
    24   27   28 1
    25   29   27 1
    26   30   31 1
    27   32   30 1
    28   33   30 1
    29   34    8 1
    30   35   34 1
    31   36   34 1
    32   37   18 1
    33   38   37 1
    34   39   37 1
    35   40    6 1
    36   41    8 1
    37   42   41 1
    38   43   41 1
    39   44   41 1
    40   45   23 ar
    41   46   45 1
    42   47   17 1
    43   48   47 1
    44   49   47 1
    45   50   47 1
    46   51   23 ar
    47   52   51 1
    48   53   45 ar
    49   54   53 1
    50   55   17 1
    51   56   55 1
    52   57   55 1
    53   58   55 1
    54   59   53 ar
    55   60   59 1
    56   61   51 ar
    57   62   61 1
    58    6    8 1
    59    9   40 1
    60   11   34 1
    61   21   24 1
    62   27   37 1
    63   27   40 1
    64   30   40 1
    65   59   61 ar
@<TRIPOS>SUBSTRUCTURE
     1 RES1 1

@<TRIPOS>CRYSIN
   9.6713    7.0513   15.4446  90.0000  93.4847  90.0000   4 1

