# MOL2 file generated by ConQuest
# Please check atom types

@<TRIPOS>MOLECULE
OFUCUQ
    48    50     1
SMALL
NO_CHARGES
****
Generated from CSD

@<TRIPOS>ATOM
      1 O1         5.2007    6.4869    6.9652 O.2       1 RES1    0.0000
      2 O2         9.8488    9.0130    7.7785 O.2       1 RES1    0.0000
      3 O3         6.1486    6.3352   10.3606 O.2       1 RES1    0.0000
      4 O4         8.5539    8.8012    4.2324 O.2       1 RES1    0.0000
      5 N1         6.4639    7.8776    8.2166 N.am      1 RES1    0.0000
      6 N2         5.4140    8.0712    9.1199 N.am      1 RES1    0.0000
      7 O5        13.6281    7.7970    0.6218 O.3       1 RES1    0.0000
      8 N3         8.6221    7.5586    6.5621 N.am      1 RES1    0.0000
      9 N4         9.6358    7.4043    5.6160 N.am      1 RES1    0.0000
     10 N5         0.5531    7.4634   13.3027 N.pl3     1 RES1    0.0000
     11 O6         0.2716    6.4938   13.9610 O.2       1 RES1    0.0000
     12 O7        -0.1138    8.4579   13.2481 O.2       1 RES1    0.0000
     13 C1         8.8290    8.3512    7.6100 C.2       1 RES1    0.0000
     14 C2         6.2729    7.0354    7.1982 C.2       1 RES1    0.0000
     15 C3         5.2933    7.1780   10.1383 C.2       1 RES1    0.0000
     16 C4         4.0709    7.3332   10.9855 C.ar      1 RES1    0.0000
     17 C5        10.6631    7.9642    3.4950 C.ar      1 RES1    0.0000
     18 C6         3.3684    8.5155   11.1095 C.ar      1 RES1    0.0000
     19 H1         3.6638    9.2782   10.6667 H         1 RES1    0.0000
     20 C7         1.8196    7.4394   12.5205 C.ar      1 RES1    0.0000
     21 C8        12.6880    7.7854    1.6191 C.ar      1 RES1    0.0000
     22 C9         9.5464    8.1222    4.4588 C.2       1 RES1    0.0000
     23 C10       11.6640    7.0181    3.6146 C.ar      1 RES1    0.0000
     24 H2        11.6552    6.4338    4.3378 H         1 RES1    0.0000
     25 C11        2.2245    8.5703   11.8917 C.ar      1 RES1    0.0000
     26 H3         1.7465    9.3630   11.9818 H         1 RES1    0.0000
     27 C12       12.6785    6.9250    2.6788 C.ar      1 RES1    0.0000
     28 H4        13.3451    6.2827    2.7704 H         1 RES1    0.0000
     29 C13        7.7527    8.3965    8.6491 C.3       1 RES1    0.0000
     30 H5         8.0471    7.8877    9.4210 H         1 RES1    0.0000
     31 H6         7.6352    9.3161    8.9324 H         1 RES1    0.0000
     32 C14        7.4321    6.7986    6.2757 C.3       1 RES1    0.0000
     33 H7         7.6574    5.8548    6.3053 H         1 RES1    0.0000
     34 H8         7.1498    7.0024    5.3710 H         1 RES1    0.0000
     35 C15        3.6395    6.2128   11.6703 C.ar      1 RES1    0.0000
     36 H9         4.1230    5.4214   11.6069 H         1 RES1    0.0000
     37 C16       10.6909    8.8108    2.4102 C.ar      1 RES1    0.0000
     38 H10       10.0180    9.4448    2.3069 H         1 RES1    0.0000
     39 C17        2.4982    6.2577   12.4467 C.ar      1 RES1    0.0000
     40 H11        2.2020    5.5055   12.9072 H         1 RES1    0.0000
     41 C18       11.6985    8.7332    1.4774 C.ar      1 RES1    0.0000
     42 H12       11.7108    9.3165    0.7527 H         1 RES1    0.0000
     43 C19       14.7073    6.8712    0.7232 C.3       1 RES1    0.0000
     44 H13       15.2011    7.0426    1.5276 H         1 RES1    0.0000
     45 H14       15.2868    6.9716   -0.0354 H         1 RES1    0.0000
     46 H15       14.3603    5.9762    0.7454 H         1 RES1    0.0000
     47 H16       10.3414    7.1254    5.9333 H         1 RES1    0.0000
     48 H17        4.7729    8.3611    8.7524 H         1 RES1    0.0000
@<TRIPOS>BOND
     1    1   14 2
     2    2   13 2
     3    3   15 2
     4    4   22 2
     5    5    6 1
     6    6   15 1
     7    7   21 1
     8    8    9 1
     9    9   22 1
    10   10   11 2
    11   12   10 2
    12   13    8 1
    13   14    5 1
    14   15   16 1
    15   16   18 ar
    16   17   22 1
    17   18   19 1
    18   20   10 1
    19   21   27 ar
    20   23   17 ar
    21   24   23 1
    22   25   18 ar
    23   26   25 1
    24   27   23 ar
    25   28   27 1
    26   29    5 1
    27   30   29 1
    28   31   29 1
    29   32    8 1
    30   33   32 1
    31   34   32 1
    32   35   16 ar
    33   36   35 1
    34   37   17 ar
    35   38   37 1
    36   39   20 ar
    37   40   39 1
    38   41   21 ar
    39   42   41 1
    40   43    7 1
    41   44   43 1
    42   45   43 1
    43   46   43 1
    44   47    9 1
    45   48    6 1
    46   13   29 1
    47   14   32 1
    48   20   25 ar
    49   35   39 ar
    50   37   41 ar
@<TRIPOS>SUBSTRUCTURE
     1 RES1 1

@<TRIPOS>CRYSIN
   6.8411   10.0919   15.0838  83.9060  78.4300  72.5040   2 1

