# MOL2 file generated by ConQuest
# Please check atom types

@<TRIPOS>MOLECULE
OFUKOR
    30    33     1
SMALL
NO_CHARGES
****
Generated from CSD

@<TRIPOS>ATOM
      1 C1         2.2288   12.2100   10.4160 C.ar      1 RES1    0.0000
      2 C2         1.4384   11.7846   11.4708 C.ar      1 RES1    0.0000
      3 C3         0.8915   12.7813   12.3376 C.ar      1 RES1    0.0000
      4 C4         1.9156   14.5250   11.0205 C.ar      1 RES1    0.0000
      5 C5         2.4963   13.5953   10.1684 C.ar      1 RES1    0.0000
      6 C6         1.1091   14.1388   12.1388 C.ar      1 RES1    0.0000
      7 C7         2.7073   10.9614    7.5171 C.3       1 RES1    0.0000
      8 H1         3.3319   10.8364    6.7715 H         1 RES1    0.0000
      9 H2         2.2822   11.8415    7.4442 H         1 RES1    0.0000
     10 H3         2.0204   10.2624    7.4880 H         1 RES1    0.0000
     11 C8         2.7370   17.4591   11.9661 C.3       1 RES1    0.0000
     12 H4         2.4243   18.3553   12.2108 H         1 RES1    0.0000
     13 H5         3.6731   17.5078   11.6793 H         1 RES1    0.0000
     14 H6         2.6629   16.8631   12.7406 H         1 RES1    0.0000
     15 C9         0.3469   11.3114   15.2112 C.3       1 RES1    0.0000
     16 H7        -0.0602   10.5322   15.6436 H         1 RES1    0.0000
     17 H8         0.3708   12.0606   15.8438 H         1 RES1    0.0000
     18 H9         1.2602   11.0900   14.9322 H         1 RES1    0.0000
     19 N1         2.3303   15.6943   10.5102 N.3       1 RES1    0.0000
     20 N2         2.5822   11.0467    9.8289 N.3       1 RES1    0.0000
     21 N3         0.1142   12.7755   13.4378 N.3       1 RES1    0.0000
     22 N4         0.4794   14.8601   13.1088 N.2       1 RES1    0.0000
     23 N5         3.1087   15.5361    9.4205 N.2       1 RES1    0.0000
     24 N6         2.0504    9.9724   10.4483 N.2       1 RES1    0.0000
     25 N7         1.3459   10.4217   11.4645 N.2       1 RES1    0.0000
     26 N8        -0.1409   14.0120   13.9059 N.2       1 RES1    0.0000
     27 N9         3.2196   14.2377    9.2096 N.2       1 RES1    0.0000
     28 O1         3.4314   10.8766    8.7755 O.3       1 RES1    0.0000
     29 O2        -0.4362   11.6847   14.0500 O.3       1 RES1    0.0000
     30 O3         1.9292   16.9460   10.8858 O.3       1 RES1    0.0000
@<TRIPOS>BOND
     1    1    2 ar
     2    2    3 ar
     3    3    6 ar
     4    4    5 ar
     5    5    1 ar
     6    6    4 ar
     7    7    8 1
     8    9    7 1
     9   10    7 1
    10   11   12 1
    11   13   11 1
    12   14   11 1
    13   15   16 1
    14   17   15 1
    15   18   15 1
    16   19    4 1
    17   20    1 1
    18   21    3 1
    19   22    6 1
    20   23   19 1
    21   24   20 1
    22   25    2 1
    23   26   21 1
    24   27    5 1
    25   28    7 1
    26   29   15 1
    27   30   11 1
    28   19   30 1
    29   20   28 1
    30   21   29 1
    31   22   26 2
    32   23   27 2
    33   24   25 2
@<TRIPOS>SUBSTRUCTURE
     1 RES1 1

@<TRIPOS>CRYSIN
   4.0975   18.1090   16.8910  90.0000  95.2810  90.0000  14 1

