# MOL2 file generated by ConQuest
# Please check atom types

@<TRIPOS>MOLECULE
OFUZUM
    59    62     1
SMALL
NO_CHARGES
****
Generated from CSD

@<TRIPOS>ATOM
      1 O1         5.7243    2.4517    4.6758 O.3       1 RES1    0.0000
      2 O2         3.9034   -1.2060    4.7928 O.2       1 RES1    0.0000
      3 O3         3.6842    0.4219    3.4073 O.2       1 RES1    0.0000
      4 O4         8.2507    3.2491    5.0318 O.2       1 RES1    0.0000
      5 O5         8.9043    2.4737    3.0338 O.3       1 RES1    0.0000
      6 O6         8.6363    0.0180    4.7547 O.3       1 RES1    0.0000
      7 N1         4.3455   -0.2527    4.1707 N.pl3     1 RES1    0.0000
      8 C1         6.0898    3.1753    2.4303 C.ar      1 RES1    0.0000
      9 C2         6.6990    3.1507    1.1842 C.ar      1 RES1    0.0000
     10 H1         7.4419    2.6088    1.0436 H         1 RES1    0.0000
     11 C3         6.2093    3.9266    0.1499 C.ar      1 RES1    0.0000
     12 H2         6.6227    3.8983   -0.6828 H         1 RES1    0.0000
     13 C4         5.1188    4.7361    0.3406 C.ar      1 RES1    0.0000
     14 H3         4.7892    5.2541   -0.3574 H         1 RES1    0.0000
     15 C5         4.5169    4.7741    1.5816 C.ar      1 RES1    0.0000
     16 H4         3.7849    5.3301    1.7213 H         1 RES1    0.0000
     17 C6         4.9915    3.9944    2.6174 C.ar      1 RES1    0.0000
     18 H5         4.5702    4.0205    3.4461 H         1 RES1    0.0000
     19 C7         2.5454    2.0498    7.4835 C.ar      1 RES1    0.0000
     20 C8         1.4765    2.9025    7.3267 C.ar      1 RES1    0.0000
     21 H6         1.4760    3.5174    6.6291 H         1 RES1    0.0000
     22 C9         0.3961    2.8540    8.2026 C.ar      1 RES1    0.0000
     23 H7        -0.3254    3.4265    8.0773 H         1 RES1    0.0000
     24 C10        0.3883    1.9737    9.2421 C.ar      1 RES1    0.0000
     25 H8        -0.3358    1.9447    9.8256 H         1 RES1    0.0000
     26 C11        1.4444    1.1374    9.4209 C.ar      1 RES1    0.0000
     27 H9         1.4489    0.5396   10.1325 H         1 RES1    0.0000
     28 C12        2.5105    1.1754    8.5485 C.ar      1 RES1    0.0000
     29 H10        3.2249    0.5948    8.6809 H         1 RES1    0.0000
     30 C13        7.6120   -0.0477    2.6552 C.ar      1 RES1    0.0000
     31 C14        7.6112   -0.4465    1.3270 C.ar      1 RES1    0.0000
     32 H11        6.9025   -0.2020    0.7772 H         1 RES1    0.0000
     33 C15        8.6488   -1.2030    0.8066 C.ar      1 RES1    0.0000
     34 H12        8.6344   -1.4661   -0.0860 H         1 RES1    0.0000
     35 C16        9.6932   -1.5593    1.6123 C.ar      1 RES1    0.0000
     36 H13       10.3869   -2.0721    1.2645 H         1 RES1    0.0000
     37 C17        9.7329   -1.1672    2.9371 C.ar      1 RES1    0.0000
     38 H14       10.4549   -1.4020    3.4747 H         1 RES1    0.0000
     39 C18        8.6898   -0.4226    3.4562 C.ar      1 RES1    0.0000
     40 C19        5.7824    1.2761    5.4734 C.3       1 RES1    0.0000
     41 H15        6.6382    1.2656    5.9514 H         1 RES1    0.0000
     42 C20        5.7814    0.1304    4.4426 C.3       1 RES1    0.0000
     43 H16        6.2952   -0.6380    4.7695 H         1 RES1    0.0000
     44 C21        6.4348    0.7424    3.1915 C.3       1 RES1    0.0000
     45 H17        5.7504    0.7066    2.4901 H         1 RES1    0.0000
     46 C22        6.5894    2.2719    3.5619 C.3       1 RES1    0.0000
     47 C23        4.6742    1.2515    6.4809 C.2       1 RES1    0.0000
     48 H18        4.7074    0.5933    7.1366 H         1 RES1    0.0000
     49 C24        3.6588    2.0848    6.5123 C.2       1 RES1    0.0000
     50 H19        3.6388    2.7549    5.8671 H         1 RES1    0.0000
     51 C25        8.0058    2.7176    3.9921 C.2       1 RES1    0.0000
     52 C26       10.2872    2.7102    3.3528 C.3       1 RES1    0.0000
     53 H20       10.8316    2.5015    2.5896 H         1 RES1    0.0000
     54 H21       10.5452    2.1541    4.0918 H         1 RES1    0.0000
     55 H22       10.4075    3.6329    3.5894 H         1 RES1    0.0000
     56 C27        9.7201   -0.3071    5.6142 C.3       1 RES1    0.0000
     57 H23        9.5507    0.0470    6.4909 H         1 RES1    0.0000
     58 H24       10.5293    0.0738    5.2669 H         1 RES1    0.0000
     59 H25        9.8120   -1.2612    5.6664 H         1 RES1    0.0000
@<TRIPOS>BOND
     1    1   40 1
     2    2    7 2
     3    3    7 2
     4    4   51 2
     5    5   51 1
     6    6   39 1
     7    7   42 1
     8    8    9 ar
     9    9   10 1
    10   11    9 ar
    11   12   11 1
    12   13   11 ar
    13   14   13 1
    14   15   13 ar
    15   16   15 1
    16   17    8 ar
    17   18   17 1
    18   19   20 ar
    19   20   21 1
    20   22   20 ar
    21   23   22 1
    22   24   22 ar
    23   25   24 1
    24   26   24 ar
    25   27   26 1
    26   28   19 ar
    27   29   28 1
    28   30   31 ar
    29   31   32 1
    30   33   31 ar
    31   34   33 1
    32   35   33 ar
    33   36   35 1
    34   37   35 ar
    35   38   37 1
    36   39   30 ar
    37   40   41 1
    38   42   40 1
    39   43   42 1
    40   44   30 1
    41   45   44 1
    42   46    1 1
    43   47   40 1
    44   48   47 1
    45   49   19 1
    46   50   49 1
    47   51   46 1
    48   52    5 1
    49   53   52 1
    50   54   52 1
    51   55   52 1
    52   56    6 1
    53   57   56 1
    54   58   56 1
    55   59   56 1
    56    8   46 1
    57   15   17 ar
    58   26   28 ar
    59   37   39 ar
    60   42   44 1
    61   44   46 1
    62   47   49 2
@<TRIPOS>SUBSTRUCTURE
     1 RES1 1

@<TRIPOS>CRYSIN
   9.2228    7.4537   16.9570  90.0000  96.1510  90.0000   4 1

