# MOL2 file generated by ConQuest
# Please check atom types

@<TRIPOS>MOLECULE
OGADOS
    60    63     1
SMALL
NO_CHARGES
****
Generated from CSD

@<TRIPOS>ATOM
      1 O1        -9.6324   -6.4455   -3.1301 O.3       1 RES1    0.0000
      2 N1        -9.8245   -5.2734   -3.9841 N.3       1 RES1    0.0000
      3 O2       -11.7996   -8.6166   -4.7278 O.2       1 RES1    0.0000
      4 C1       -15.0538  -10.6649   -1.5760 C.ar      1 RES1    0.0000
      5 H1       -15.7959  -10.0728   -1.5432 H         1 RES1    0.0000
      6 C2       -11.4556  -10.2591   -1.5026 C.2       1 RES1    0.0000
      7 H2       -10.5645  -10.5873   -1.4768 H         1 RES1    0.0000
      8 N2       -13.2322   -8.8722   -1.5455 N.pl3     1 RES1    0.0000
      9 C3       -14.0008   -7.6906   -1.6438 C.ar      1 RES1    0.0000
     10 C4        -9.7657   -4.0762   -3.0871 C.3       1 RES1    0.0000
     11 C5       -12.6390  -11.0602   -1.5562 C.ar      1 RES1    0.0000
     12 C6       -13.7339  -10.1821   -1.5760 C.ar      1 RES1    0.0000
     13 N3       -15.2086   -7.8252   -2.2002 N.ar      1 RES1    0.0000
     14 C7       -11.8188   -8.9528   -1.4941 C.2       1 RES1    0.0000
     15 C8        -9.8820   -2.8410   -3.9923 C.3       1 RES1    0.0000
     16 H3       -10.7990   -2.8050   -4.3657 H         1 RES1    0.0000
     17 H4        -9.7505   -2.0287   -3.4421 H         1 RES1    0.0000
     18 C9       -10.8543   -7.1936   -3.0221 C.3       1 RES1    0.0000
     19 H5       -11.6450   -6.5973   -3.1614 H         1 RES1    0.0000
     20 N4       -13.4421   -6.5814   -1.1848 N.ar      1 RES1    0.0000
     21 C10      -10.8732   -7.7947   -1.6127 C.3       1 RES1    0.0000
     22 H6        -9.9603   -8.0967   -1.3780 H         1 RES1    0.0000
     23 H7       -11.1370   -7.0936   -0.9660 H         1 RES1    0.0000
     24 C11      -10.8616   -8.3317   -4.0262 C.2       1 RES1    0.0000
     25 H8       -10.0733   -8.8556   -4.1066 H         1 RES1    0.0000
     26 C12      -14.1726   -5.4619   -1.3430 C.ar      1 RES1    0.0000
     27 H9       -13.8084   -4.6348   -1.0510 H         1 RES1    0.0000
     28 C13      -15.9131   -6.6975   -2.3132 C.ar      1 RES1    0.0000
     29 H10      -16.7861   -6.7428   -2.6856 H         1 RES1    0.0000
     30 C14      -11.0149   -4.1175   -2.1960 C.3       1 RES1    0.0000
     31 H11      -11.8125   -4.2203   -2.7559 H         1 RES1    0.0000
     32 H12      -11.0797   -3.2834   -1.6852 H         1 RES1    0.0000
     33 H13      -10.9503   -4.8749   -1.5773 H         1 RES1    0.0000
     34 C15       -8.5320   -3.9869   -2.1720 C.3       1 RES1    0.0000
     35 H14       -8.4097   -4.8396   -1.7055 H         1 RES1    0.0000
     36 H15       -8.6641   -3.2710   -1.5160 H         1 RES1    0.0000
     37 H16       -7.7386   -3.7927   -2.7129 H         1 RES1    0.0000
     38 C16      -15.4261   -5.4668   -1.9121 C.ar      1 RES1    0.0000
     39 H17      -15.9286   -4.6682   -2.0232 H         1 RES1    0.0000
     40 C17       -7.3640   -5.5528   -4.7196 C.3       1 RES1    0.0000
     41 H18       -7.0007   -4.6960   -4.4123 H         1 RES1    0.0000
     42 H19       -6.8568   -5.8622   -5.4988 H         1 RES1    0.0000
     43 H20       -7.2931   -6.2144   -3.9999 H         1 RES1    0.0000
     44 C18      -15.2295  -12.0414   -1.6254 C.ar      1 RES1    0.0000
     45 H21      -16.1123  -12.3934   -1.6436 H         1 RES1    0.0000
     46 C19       -8.8884   -2.8229   -5.1376 C.3       1 RES1    0.0000
     47 H22       -7.9669   -2.7551   -4.7807 H         1 RES1    0.0000
     48 H23       -9.0552   -2.0358   -5.7147 H         1 RES1    0.0000
     49 C20      -12.8560  -12.4443   -1.6071 C.ar      1 RES1    0.0000
     50 H24      -12.1219  -13.0467   -1.6114 H         1 RES1    0.0000
     51 C21      -14.1481  -12.9193   -1.6509 C.ar      1 RES1    0.0000
     52 H25      -14.3034  -13.8553   -1.6979 H         1 RES1    0.0000
     53 C22       -9.0338   -4.0992   -5.9510 C.3       1 RES1    0.0000
     54 H26       -8.3645   -4.0944   -6.6804 H         1 RES1    0.0000
     55 H27       -9.9326   -4.1161   -6.3652 H         1 RES1    0.0000
     56 C23       -9.2639   -6.5500   -5.9807 C.3       1 RES1    0.0000
     57 H28       -8.9981   -7.3878   -5.5480 H         1 RES1    0.0000
     58 H29       -8.8256   -6.4803   -6.8548 H         1 RES1    0.0000
     59 H30      -10.2364   -6.5386   -6.1016 H         1 RES1    0.0000
     60 C24       -8.8468   -5.3731   -5.1093 C.3       1 RES1    0.0000
@<TRIPOS>BOND
     1    1    2 1
     2    2   10 1
     3    3   24 2
     4    4    5 1
     5    6    7 1
     6    8    9 1
     7    9   13 ar
     8   10   15 1
     9   11    6 1
    10   12    4 ar
    11   13   28 ar
    12   14    6 2
    13   15   16 1
    14   17   15 1
    15   18    1 1
    16   19   18 1
    17   20    9 ar
    18   21   14 1
    19   22   21 1
    20   23   21 1
    21   24   18 1
    22   25   24 1
    23   26   20 ar
    24   27   26 1
    25   28   29 1
    26   30   10 1
    27   31   30 1
    28   32   30 1
    29   33   30 1
    30   34   10 1
    31   35   34 1
    32   36   34 1
    33   37   34 1
    34   38   26 ar
    35   39   38 1
    36   40   41 1
    37   42   40 1
    38   43   40 1
    39   44    4 ar
    40   45   44 1
    41   46   15 1
    42   47   46 1
    43   48   46 1
    44   49   11 ar
    45   50   49 1
    46   51   44 ar
    47   52   51 1
    48   53   46 1
    49   54   53 1
    50   55   53 1
    51   56   57 1
    52   58   56 1
    53   59   56 1
    54   60    2 1
    55    8   12 1
    56    8   14 1
    57   11   12 ar
    58   18   21 1
    59   28   38 ar
    60   40   60 1
    61   49   51 ar
    62   53   60 1
    63   56   60 1
@<TRIPOS>SUBSTRUCTURE
     1 RES1 1

@<TRIPOS>CRYSIN
  17.5556   17.5556   14.1220  90.0000  90.0000  90.0000  82 1

