# MOL2 file generated by ConQuest
# Please check atom types

@<TRIPOS>MOLECULE
OGEDAG
    51    55     1
SMALL
NO_CHARGES
****
Generated from CSD

@<TRIPOS>ATOM
      1 N1         5.2386   13.1300   11.7635 N.pl3     1 RES1    0.0000
      2 N2         3.3395    9.6702    7.7471 N.2       1 RES1    0.0000
      3 N3         4.1787    9.3209    6.9161 N.2       1 RES1    0.0000
      4 O1         6.4395   13.2182   11.9764 O.2       1 RES1    0.0000
      5 O2         4.3978   13.7833   12.3655 O.2       1 RES1    0.0000
      6 O3         2.6677    5.9724    2.7210 O.3       1 RES1    0.0000
      7 O4         0.5732    6.6632    2.2391 O.2       1 RES1    0.0000
      8 C1         4.7802   12.1964   10.7296 C.ar      1 RES1    0.0000
      9 C2         3.4309   12.0003   10.5695 C.ar      1 RES1    0.0000
     10 H1         2.8044   12.4510   11.1229 H         1 RES1    0.0000
     11 C3         3.0073   11.1341    9.5863 C.ar      1 RES1    0.0000
     12 H2         2.0795   10.9655    9.4718 H         1 RES1    0.0000
     13 C4         3.9262   10.5088    8.7663 C.ar      1 RES1    0.0000
     14 C5         5.2902   10.6937    8.9636 C.ar      1 RES1    0.0000
     15 H3         5.9172   10.2413    8.4129 H         1 RES1    0.0000
     16 C6         5.7267   11.5349    9.9641 C.ar      1 RES1    0.0000
     17 H4         6.6546   11.6588   10.1248 H         1 RES1    0.0000
     18 C7         3.6441    8.4824    5.8704 C.ar      1 RES1    0.0000
     19 C8         2.3085    8.1495    5.7046 C.ar      1 RES1    0.0000
     20 H5         1.6579    8.4927    6.3038 H         1 RES1    0.0000
     21 C9         1.9179    7.3127    4.6619 C.ar      1 RES1    0.0000
     22 H6         1.0072    7.0684    4.5490 H         1 RES1    0.0000
     23 C10        2.8908    6.8465    3.7943 C.ar      1 RES1    0.0000
     24 C11        4.2255    7.1750    3.9606 C.ar      1 RES1    0.0000
     25 H7         4.8807    6.8370    3.3612 H         1 RES1    0.0000
     26 C12        4.5958    7.9930    5.0003 C.ar      1 RES1    0.0000
     27 H8         5.5098    8.2227    5.1196 H         1 RES1    0.0000
     28 C13        1.5142    5.9674    1.9913 C.2       1 RES1    0.0000
     29 C14        1.6580    5.0351    0.8329 C.ar      1 RES1    0.0000
     30 C15        1.4175    5.5417   -0.4597 C.ar      1 RES1    0.0000
     31 C16        0.9985    6.8860   -0.7311 C.ar      1 RES1    0.0000
     32 H9         0.8492    7.4821   -0.0072 H         1 RES1    0.0000
     33 C17        0.8107    7.3238   -1.9983 C.ar      1 RES1    0.0000
     34 H10        0.5382    8.2218   -2.1484 H         1 RES1    0.0000
     35 C18        1.0151    6.4620   -3.0999 C.ar      1 RES1    0.0000
     36 H11        0.8680    6.7794   -3.9837 H         1 RES1    0.0000
     37 C19        1.4177    5.1908   -2.8988 C.ar      1 RES1    0.0000
     38 H12        1.5575    4.6231   -3.6474 H         1 RES1    0.0000
     39 C20        1.6373    4.6842   -1.5912 C.ar      1 RES1    0.0000
     40 C21        2.0423    3.3725   -1.3783 C.ar      1 RES1    0.0000
     41 H13        2.1942    2.8117   -2.1305 H         1 RES1    0.0000
     42 C22        2.2334    2.8521   -0.1046 C.ar      1 RES1    0.0000
     43 C23        2.5872    1.4837    0.0882 C.ar      1 RES1    0.0000
     44 H14        2.6969    0.9195   -0.6672 H         1 RES1    0.0000
     45 C24        2.7686    0.9754    1.3277 C.ar      1 RES1    0.0000
     46 H15        3.0088    0.0628    1.4364 H         1 RES1    0.0000
     47 C25        2.6015    1.8019    2.4584 C.ar      1 RES1    0.0000
     48 H16        2.7367    1.4424    3.3272 H         1 RES1    0.0000
     49 C26        2.2484    3.1093    2.3210 C.ar      1 RES1    0.0000
     50 H17        2.1272    3.6434    3.0983 H         1 RES1    0.0000
     51 C27        2.0572    3.6925    1.0370 C.ar      1 RES1    0.0000
@<TRIPOS>BOND
     1    1    4 2
     2    2    3 2
     3    3   18 1
     4    5    1 2
     5    6   23 1
     6    7   28 2
     7    8    1 1
     8    9    8 ar
     9   10    9 1
    10   11    9 ar
    11   12   11 1
    12   13    2 1
    13   14   13 ar
    14   15   14 1
    15   16    8 ar
    16   17   16 1
    17   18   19 ar
    18   19   20 1
    19   21   19 ar
    20   22   21 1
    21   23   21 ar
    22   24   23 ar
    23   25   24 1
    24   26   18 ar
    25   27   26 1
    26   28    6 1
    27   29   28 1
    28   30   29 ar
    29   31   30 ar
    30   32   31 1
    31   33   31 ar
    32   34   33 1
    33   35   33 ar
    34   36   35 1
    35   37   35 ar
    36   38   37 1
    37   39   30 ar
    38   40   39 ar
    39   41   40 1
    40   42   40 ar
    41   43   42 ar
    42   44   43 1
    43   45   43 ar
    44   46   45 1
    45   47   45 ar
    46   48   47 1
    47   49   47 ar
    48   50   49 1
    49   51   29 ar
    50   11   13 ar
    51   14   16 ar
    52   24   26 ar
    53   37   39 ar
    54   42   51 ar
    55   49   51 ar
@<TRIPOS>SUBSTRUCTURE
     1 RES1 1

@<TRIPOS>CRYSIN
  13.5250    8.6011   18.9560  90.0000 109.3220  90.0000  14 1

