# MOL2 file generated by ConQuest
# Please check atom types

@<TRIPOS>MOLECULE
OGEDIO
    27    27     1
SMALL
NO_CHARGES
****
Generated from CSD

@<TRIPOS>ATOM
      1 C1         8.9672    6.5121    5.5922 C.ar      1 RES1    0.0000
      2 C2         8.6667    5.1713    5.4584 C.ar      1 RES1    0.0000
      3 H1         7.7794    4.8920    5.4280 H         1 RES1    0.0000
      4 C3         9.6876    4.2490    5.3686 C.ar      1 RES1    0.0000
      5 H2         9.4954    3.3443    5.2744 H         1 RES1    0.0000
      6 C4        10.9912    4.6810    5.4193 C.ar      1 RES1    0.0000
      7 C5        11.2996    6.0028    5.5602 C.ar      1 RES1    0.0000
      8 H3        12.1869    6.2793    5.6004 H         1 RES1    0.0000
      9 C6        10.2903    6.9075    5.6409 C.ar      1 RES1    0.0000
     10 H4        10.4937    7.8107    5.7307 H         1 RES1    0.0000
     11 C7         6.6995    7.4302    5.3338 C.3       1 RES1    0.0000
     12 C8         5.9446    6.4157    6.1852 C.2       1 RES1    0.0000
     13 C9         6.1357    8.8097    5.6569 C.3       1 RES1    0.0000
     14 H5         6.3431    9.0355    6.5666 H         1 RES1    0.0000
     15 H6         5.1825    8.8019    5.5381 H         1 RES1    0.0000
     16 H7         6.5254    9.4604    5.0687 H         1 RES1    0.0000
     17 C10        6.5959    7.1277    3.8549 C.3       1 RES1    0.0000
     18 H8         7.1221    7.7615    3.3608 H         1 RES1    0.0000
     19 H9         5.6787    7.1903    3.5795 H         1 RES1    0.0000
     20 H10        6.9217    6.2406    3.6853 H         1 RES1    0.0000
     21 H11        5.6887    5.8952    7.9239 H         1 RES1    0.0000
     22 N1        12.0837    3.7193    5.2846 N.pl3     1 RES1    0.0000
     23 O1        11.8159    2.5761    5.0253 O.2       1 RES1    0.0000
     24 O2        13.2090    4.1097    5.3411 O.2       1 RES1    0.0000
     25 O3         8.0781    7.5315    5.7474 O.3       1 RES1    0.0000
     26 O4         5.1407    5.6511    5.6900 O.2       1 RES1    0.0000
     27 O5         6.2032    6.4805    7.4423 O.3       1 RES1    0.0000
@<TRIPOS>BOND
     1    1    2 ar
     2    2    3 1
     3    4    2 ar
     4    5    4 1
     5    6    4 ar
     6    7    6 ar
     7    8    7 1
     8    9    1 ar
     9   10    9 1
    10   11   12 1
    11   12   26 2
    12   13   11 1
    13   14   13 1
    14   15   13 1
    15   16   13 1
    16   17   11 1
    17   18   17 1
    18   19   17 1
    19   20   17 1
    20   21   27 1
    21   22    6 1
    22   23   22 2
    23   24   22 2
    24   25    1 1
    25   27   12 1
    26    7    9 ar
    27   11   25 1
@<TRIPOS>SUBSTRUCTURE
     1 RES1 1

@<TRIPOS>CRYSIN
  21.2960    7.0348   14.5180  90.0000  93.7940  90.0000  15 1

