# MOL2 file generated by ConQuest
# Please check atom types

@<TRIPOS>MOLECULE
OGEPUM01
    33    35     1
SMALL
NO_CHARGES
****
Generated from CSD

@<TRIPOS>ATOM
      1 O1        -0.0315    7.4089   17.7233 O.2       1 RES1    0.0000
      2 O2         1.3850    2.0857   13.6998 O.2       1 RES1    0.0000
      3 O3         1.1063    8.7244   16.4711 O.2       1 RES1    0.0000
      4 N1         0.6466    7.6328   16.7244 N.pl3     1 RES1    0.0000
      5 N2         3.1597    4.2378    9.6995 N.ar      1 RES1    0.0000
      6 N3         2.2127    3.3686   12.0374 N.am      1 RES1    0.0000
      7 H1         2.3476    4.1852   11.7998 H         1 RES1    0.0000
      8 C1         1.6569    3.1886   13.2653 C.2       1 RES1    0.0000
      9 C2         1.4082    4.4222   14.0939 C.ar      1 RES1    0.0000
     10 C3         2.5908    2.3867   11.1152 C.ar      1 RES1    0.0000
     11 C4         0.5374    5.2402   16.1834 C.ar      1 RES1    0.0000
     12 H2         0.1297    5.0924   17.0071 H         1 RES1    0.0000
     13 C5         1.7545    5.7143   13.7404 C.ar      1 RES1    0.0000
     14 H3         2.1533    5.8695   12.9147 H         1 RES1    0.0000
     15 C6         2.9522    0.1405   10.3303 C.ar      1 RES1    0.0000
     16 H4         2.8974   -0.7741   10.4874 H         1 RES1    0.0000
     17 C7         0.9046    6.5148   15.7862 C.ar      1 RES1    0.0000
     18 C8         3.1068    2.8799    9.8811 C.ar      1 RES1    0.0000
     19 C9         1.5200    6.7811   14.5895 C.ar      1 RES1    0.0000
     20 H5         1.7698    7.6474   14.3588 H         1 RES1    0.0000
     21 C10        2.5232    1.0346   11.3264 C.ar      1 RES1    0.0000
     22 H6         2.1925    0.7068   12.1315 H         1 RES1    0.0000
     23 C11        0.7954    4.2042   15.3217 C.ar      1 RES1    0.0000
     24 H7         0.5554    3.3393   15.5653 H         1 RES1    0.0000
     25 C12        3.4457    0.5824    9.1447 C.ar      1 RES1    0.0000
     26 H8         3.7215   -0.0278    8.5000 H         1 RES1    0.0000
     27 C13        4.0317    2.4994    7.6860 C.ar      1 RES1    0.0000
     28 H9         4.3371    1.9345    7.0136 H         1 RES1    0.0000
     29 C14        3.5383    1.9594    8.8940 C.ar      1 RES1    0.0000
     30 C15        3.6018    4.6754    8.5379 C.ar      1 RES1    0.0000
     31 H10        3.6101    5.5943    8.3942 H         1 RES1    0.0000
     32 C16        4.0584    3.8471    7.5098 C.ar      1 RES1    0.0000
     33 H11        4.3764    4.2115    6.7149 H         1 RES1    0.0000
@<TRIPOS>BOND
     1    1    4 2
     2    2    8 2
     3    3    4 2
     4    4   17 1
     5    5   18 ar
     6    6    7 1
     7    8    6 1
     8    9    8 1
     9   10    6 1
    10   11   12 1
    11   13    9 ar
    12   14   13 1
    13   15   16 1
    14   17   11 ar
    15   18   10 ar
    16   19   13 ar
    17   20   19 1
    18   21   10 ar
    19   22   21 1
    20   23    9 ar
    21   24   23 1
    22   25   15 ar
    23   26   25 1
    24   27   28 1
    25   29   18 ar
    26   30    5 ar
    27   31   30 1
    28   32   27 ar
    29   33   32 1
    30   11   23 ar
    31   15   21 ar
    32   17   19 ar
    33   25   29 ar
    34   27   29 ar
    35   30   32 ar
@<TRIPOS>SUBSTRUCTURE
     1 RES1 1

@<TRIPOS>CRYSIN
   3.8313   14.6334   23.5223  90.0000  90.8510  90.0000   9 1

