# MOL2 file generated by ConQuest
# Please check atom types

@<TRIPOS>MOLECULE
OGEPUM02
    33    35     1
SMALL
NO_CHARGES
****
Generated from CSD

@<TRIPOS>ATOM
      1 O1        -0.4161   13.0636    1.9731 O.2       1 RES1    0.0000
      2 O2        -5.9325    9.0684    4.3523 O.2       1 RES1    0.0000
      3 O3        -6.4287   11.1514    4.5344 O.2       1 RES1    0.0000
      4 N1         1.9415    8.8121    1.8496 N.ar      1 RES1    0.0000
      5 N2         0.3836   10.9433    1.9372 N.am      1 RES1    0.0000
      6 H1         0.1984   10.1401    2.1841 H         1 RES1    0.0000
      7 N3        -5.6562   10.2549    4.2378 N.pl3     1 RES1    0.0000
      8 C1         2.7084    7.7403    1.8178 C.ar      1 RES1    0.0000
      9 H2         2.3867    6.9617    2.2100 H         1 RES1    0.0000
     10 C2         3.9773    7.7015    1.2304 C.ar      1 RES1    0.0000
     11 H3         4.4714    6.9136    1.2274 H         1 RES1    0.0000
     12 C3         4.4735    8.8247    0.6680 C.ar      1 RES1    0.0000
     13 H4         5.3163    8.8126    0.2748 H         1 RES1    0.0000
     14 C4         3.7194   10.0119    0.6759 C.ar      1 RES1    0.0000
     15 C5         4.1500   11.2151    0.1035 C.ar      1 RES1    0.0000
     16 H5         4.9879   11.2632   -0.2977 H         1 RES1    0.0000
     17 C6         3.3533   12.3128    0.1304 C.ar      1 RES1    0.0000
     18 H6         3.6512   13.1021   -0.2588 H         1 RES1    0.0000
     19 C7         2.0735   12.2803    0.7406 C.ar      1 RES1    0.0000
     20 H7         1.5377   13.0407    0.7486 H         1 RES1    0.0000
     21 C8         1.6330   11.1182    1.3190 C.ar      1 RES1    0.0000
     22 C9         2.4418    9.9464    1.2872 C.ar      1 RES1    0.0000
     23 C10       -0.5704   11.8762    2.1951 C.2       1 RES1    0.0000
     24 C11       -1.8659   11.3676    2.7555 C.ar      1 RES1    0.0000
     25 C12       -2.7303   12.3165    3.2791 C.ar      1 RES1    0.0000
     26 H8        -2.4710   13.2089    3.3020 H         1 RES1    0.0000
     27 C13       -3.9629   11.9590    3.7639 C.ar      1 RES1    0.0000
     28 H9        -4.5429   12.6013    4.1074 H         1 RES1    0.0000
     29 C14       -4.3262   10.6315    3.7331 C.ar      1 RES1    0.0000
     30 C15       -3.4924    9.6534    3.2443 C.ar      1 RES1    0.0000
     31 H10       -3.7530    8.7606    3.2423 H         1 RES1    0.0000
     32 C16       -2.2595   10.0336    2.7565 C.ar      1 RES1    0.0000
     33 H11       -1.6815    9.3869    2.4220 H         1 RES1    0.0000
@<TRIPOS>BOND
     1    1   23 2
     2    2    7 2
     3    3    7 2
     4    4    8 ar
     5    5    6 1
     6    7   29 1
     7    8    9 1
     8   10    8 ar
     9   11   10 1
    10   12   10 ar
    11   13   12 1
    12   14   12 ar
    13   15   14 ar
    14   16   15 1
    15   17   15 ar
    16   18   17 1
    17   19   17 ar
    18   20   19 1
    19   21    5 1
    20   22    4 ar
    21   23    5 1
    22   24   23 1
    23   25   24 ar
    24   26   25 1
    25   27   25 ar
    26   28   27 1
    27   29   27 ar
    28   30   29 ar
    29   31   30 1
    30   32   24 ar
    31   33   32 1
    32   14   22 ar
    33   19   21 ar
    34   21   22 ar
    35   30   32 ar
@<TRIPOS>SUBSTRUCTURE
     1 RES1 1

@<TRIPOS>CRYSIN
  10.2024   13.3545   12.6962  90.0000 128.3640  90.0000  14 1

