# MOL2 file generated by ConQuest
# Please check atom types

@<TRIPOS>MOLECULE
OGEWUS
    40    42     1
SMALL
NO_CHARGES
****
Generated from CSD

@<TRIPOS>ATOM
      1 C1         2.5346    0.7120    9.0785 C.3       1 RES1    0.0000
      2 H1         3.0214    1.4378    9.5082 H         1 RES1    0.0000
      3 C2         1.7044   -0.2447    9.8910 C.2       1 RES1    0.0000
      4 H2         1.3793   -0.0623   10.8397 H         1 RES1    0.0000
      5 C3         1.3802   -1.2372    9.1118 C.2       1 RES1    0.0000
      6 H3         0.7628   -2.0282    9.3105 H         1 RES1    0.0000
      7 C4         2.0044   -0.9856    7.7740 C.3       1 RES1    0.0000
      8 H4         2.0442   -1.7269    7.1363 H         1 RES1    0.0000
      9 C5         3.3133   -0.2553    8.1776 C.3       1 RES1    0.0000
     10 H5         3.7847    0.1257    7.4276 H         1 RES1    0.0000
     11 H6         3.8339   -0.7894    8.6759 H         1 RES1    0.0000
     12 C6         1.4231    0.4263    5.8214 C.2       1 RES1    0.0000
     13 C7         1.1555    2.0977    4.1393 C.3       1 RES1    0.0000
     14 H7         0.7783    1.3199    3.6410 H         1 RES1    0.0000
     15 H8         2.0739    2.2763    3.7658 H         1 RES1    0.0000
     16 C8         0.2732    3.3019    4.1330 C.3       1 RES1    0.0000
     17 H9         0.6661    4.0475    4.6605 H         1 RES1    0.0000
     18 H10        0.1251    3.5828    3.2041 H         1 RES1    0.0000
     19 H11       -0.6008    3.1014    4.5148 H         1 RES1    0.0000
     20 C9         0.5248    2.0530    8.5719 C.2       1 RES1    0.0000
     21 C10       -1.7409    2.8747    7.9800 C.ar      1 RES1    0.0000
     22 C11       -1.9314    3.7547    9.0432 C.ar      1 RES1    0.0000
     23 H12       -1.2912    3.7761    9.7370 H         1 RES1    0.0000
     24 C12       -3.0208    4.5968    9.0525 C.ar      1 RES1    0.0000
     25 H13       -3.1291    5.1898    9.7370 H         1 RES1    0.0000
     26 C13       -3.9198    4.5536    8.0143 C.ar      1 RES1    0.0000
     27 C14       -3.7723    3.6714    6.9626 C.ar      1 RES1    0.0000
     28 H14       -4.4202    3.6592    6.2521 H         1 RES1    0.0000
     29 C15       -2.6829    2.8423    6.9459 C.ar      1 RES1    0.0000
     30 H15       -2.5910    2.2556    6.2417 H         1 RES1    0.0000
     31 N1        -5.0467    5.4872    7.9987 N.pl3     1 RES1    0.0000
     32 N2         1.2601    0.1957    7.1821 N.am      1 RES1    0.0000
     33 N3         1.5810    1.2997    8.0566 N.am      1 RES1    0.0000
     34 N4        -0.6425    1.9990    7.8663 N.am      1 RES1    0.0000
     35 H16       -0.6497    1.4354    7.1987 H         1 RES1    0.0000
     36 O1        -5.1437    6.3028    8.9018 O.2       1 RES1    0.0000
     37 O2        -5.8168    5.4540    7.0531 O.2       1 RES1    0.0000
     38 O3         1.5395   -0.4756    5.0137 O.2       1 RES1    0.0000
     39 O4         1.3128    1.7176    5.5389 O.3       1 RES1    0.0000
     40 O5         0.7141    2.7647    9.5453 O.2       1 RES1    0.0000
@<TRIPOS>BOND
     1    1    2 1
     2    3    1 1
     3    4    3 1
     4    5    3 2
     5    6    5 1
     6    7    5 1
     7    8    7 1
     8    9    1 1
     9   10    9 1
    10   11    9 1
    11   12   32 1
    12   13   14 1
    13   15   13 1
    14   16   13 1
    15   17   16 1
    16   18   16 1
    17   19   16 1
    18   20   33 1
    19   21   22 ar
    20   22   23 1
    21   24   22 ar
    22   25   24 1
    23   26   24 ar
    24   27   26 ar
    25   28   27 1
    26   29   21 ar
    27   30   29 1
    28   31   26 1
    29   32    7 1
    30   33    1 1
    31   34   20 1
    32   35   34 1
    33   36   31 2
    34   37   31 2
    35   38   12 2
    36   39   12 1
    37   40   20 2
    38    7    9 1
    39   13   39 1
    40   21   34 1
    41   27   29 ar
    42   32   33 1
@<TRIPOS>SUBSTRUCTURE
     1 RES1 1

@<TRIPOS>CRYSIN
   7.4577    9.9550   10.4050  91.1360  90.1790  96.7490   2 1

