# MOL2 file generated by ConQuest
# Please check atom types

@<TRIPOS>MOLECULE
OGILIA
    20    21     1
SMALL
NO_CHARGES
****
Generated from CSD

@<TRIPOS>ATOM
      1 O1         0.3907   -2.6654    2.0713 O.2       1 RES1    0.0000
      2 O2         2.5677    2.6422    4.2647 O.2       1 RES1    0.0000
      3 O3         3.5560    2.7392    2.3499 O.2       1 RES1    0.0000
      4 N1         0.9338   -1.5112    2.2799 N.pl3     1 RES1    0.0000
      5 N2         2.7919    2.1966    3.1334 N.pl3     1 RES1    0.0000
      6 C1         1.0321   -1.0272    3.5280 C.ar      1 RES1    0.0000
      7 H1         0.6837   -1.5320    4.2536 H         1 RES1    0.0000
      8 C2         1.6340    0.1953    3.7753 C.ar      1 RES1    0.0000
      9 H2         1.6994    0.5139    4.6684 H         1 RES1    0.0000
     10 C3         2.1323    0.9448    2.7565 C.ar      1 RES1    0.0000
     11 C4         2.0200    0.5170    1.4000 C.ar      1 RES1    0.0000
     12 C5         2.4100    1.2408    0.2429 C.ar      1 RES1    0.0000
     13 H3         2.8002    2.1020    0.3363 H         1 RES1    0.0000
     14 C6         2.2307    0.7104   -1.0055 C.ar      1 RES1    0.0000
     15 H4         2.4906    1.2152   -1.7666 H         1 RES1    0.0000
     16 C7         1.6689   -0.5682   -1.1846 C.ar      1 RES1    0.0000
     17 H5         1.5774   -0.9271   -2.0585 H         1 RES1    0.0000
     18 C8         1.2530   -1.2958   -0.0990 C.ar      1 RES1    0.0000
     19 H6         0.8606   -2.1539   -0.2134 H         1 RES1    0.0000
     20 C9         1.4181   -0.7513    1.1829 C.ar      1 RES1    0.0000
@<TRIPOS>BOND
     1    1    4 1
     2    2    5 2
     3    3    5 2
     4    4    6 ar
     5    5   10 1
     6    6    7 1
     7    8    6 ar
     8    9    8 1
     9   10    8 ar
    10   11   10 ar
    11   12   11 ar
    12   13   12 1
    13   14   12 ar
    14   15   14 1
    15   16   14 ar
    16   17   16 1
    17   18   16 ar
    18   19   18 1
    19   20    4 ar
    20   11   20 ar
    21   18   20 ar
@<TRIPOS>SUBSTRUCTURE
     1 RES1 1

@<TRIPOS>CRYSIN
   7.4350    6.1034   17.0690  90.0000  90.0940  90.0000  14 1

