# MOL2 file generated by ConQuest
# Please check atom types

@<TRIPOS>MOLECULE
OGILIA01
    20    21     1
SMALL
NO_CHARGES
****
Generated from CSD

@<TRIPOS>ATOM
      1 O1        -1.2348   -1.9060    2.5640 O.2       1 RES1    0.0000
      2 O2         0.7576    3.4935    4.9972 O.2       1 RES1    0.0000
      3 O3        -1.1957    3.2656    5.8729 O.2       1 RES1    0.0000
      4 N1        -1.0243   -0.7625    3.1207 N.pl3     1 RES1    0.0000
      5 N2        -0.3083    2.8957    5.1107 N.pl3     1 RES1    0.0000
      6 C1        -1.7733   -0.3467    4.1473 C.ar      1 RES1    0.0000
      7 H1        -2.4842   -0.8966    4.4549 H         1 RES1    0.0000
      8 C2        -1.5385    0.8630    4.7728 C.ar      1 RES1    0.0000
      9 H2        -2.0831    1.1324    5.5029 H         1 RES1    0.0000
     10 C3        -0.5253    1.6714    4.3439 C.ar      1 RES1    0.0000
     11 C4         0.2824    1.3125    3.2263 C.ar      1 RES1    0.0000
     12 C5         1.3063    2.0867    2.6341 C.ar      1 RES1    0.0000
     13 H3         1.5050    2.9447    2.9912 H         1 RES1    0.0000
     14 C6         2.0167    1.6291    1.5606 C.ar      1 RES1    0.0000
     15 H4         2.6997    2.1712    1.1832 H         1 RES1    0.0000
     16 C7         1.7495    0.3742    1.0106 C.ar      1 RES1    0.0000
     17 H5         2.2576    0.0631    0.2703 H         1 RES1    0.0000
     18 C8         0.7606   -0.4054    1.5328 C.ar      1 RES1    0.0000
     19 H6         0.5771   -1.2592    1.1577 H         1 RES1    0.0000
     20 C9         0.0167    0.0576    2.6252 C.ar      1 RES1    0.0000
@<TRIPOS>BOND
     1    1    4 1
     2    2    5 2
     3    3    5 2
     4    4    6 ar
     5    5   10 1
     6    6    7 1
     7    8    6 ar
     8    9    8 1
     9   10    8 ar
    10   11   10 ar
    11   12   11 ar
    12   13   12 1
    13   14   12 ar
    14   15   14 1
    15   16   14 ar
    16   17   16 1
    17   18   16 ar
    18   19   18 1
    19   20    4 ar
    20   11   20 ar
    21   18   20 ar
@<TRIPOS>SUBSTRUCTURE
     1 RES1 1

@<TRIPOS>CRYSIN
   5.0709    6.1246   25.5000  90.0000  90.0000  90.0000  19 1

