# MOL2 file generated by ConQuest
# Please check atom types

@<TRIPOS>MOLECULE
OGOCUK
    64    68     1
SMALL
NO_CHARGES
****
Generated from CSD

@<TRIPOS>ATOM
      1 C1        23.7958    3.6253    4.4582 C.ar      1 RES1    0.0000
      2 C2        22.6070    2.9705    4.7931 C.ar      1 RES1    0.0000
      3 H1        21.8033    3.1547    4.3222 H         1 RES1    0.0000
      4 C3        22.6252    2.0357    5.8394 C.ar      1 RES1    0.0000
      5 H2        21.8273    1.5818    6.0819 H         1 RES1    0.0000
      6 C4        23.7966    1.7716    6.5176 C.ar      1 RES1    0.0000
      7 C5        24.9781    2.4798    6.2265 C.ar      1 RES1    0.0000
      8 H3        25.7736    2.3309    6.7249 H         1 RES1    0.0000
      9 C6        24.9445    3.4024    5.1888 C.ar      1 RES1    0.0000
     10 C7        24.0374    4.5956    3.3159 C.3       1 RES1    0.0000
     11 H4        23.6253    5.4802    3.5365 H         1 RES1    0.0000
     12 C8        23.4730    4.0897    1.9842 C.3       1 RES1    0.0000
     13 H5        23.8543    3.1938    1.8025 H         1 RES1    0.0000
     14 H6        22.4940    3.9821    2.0793 H         1 RES1    0.0000
     15 C9        23.7415    4.9707    0.7933 C.ar      1 RES1    0.0000
     16 C10       24.3992    4.4826   -0.3405 C.ar      1 RES1    0.0000
     17 H7        24.7223    3.5888   -0.3415 H         1 RES1    0.0000
     18 C11       24.5884    5.2678   -1.4534 C.ar      1 RES1    0.0000
     19 H8        25.0233    4.9215   -2.2229 H         1 RES1    0.0000
     20 C12       24.1311    6.5720   -1.4315 C.ar      1 RES1    0.0000
     21 C13       23.5205    7.1120   -0.3186 C.ar      1 RES1    0.0000
     22 H9        23.2388    8.0193   -0.3101 H         1 RES1    0.0000
     23 C14       23.3273    6.3016    0.7838 C.ar      1 RES1    0.0000
     24 H10       22.9021    6.6599    1.5533 H         1 RES1    0.0000
     25 C15       22.8230   -0.0105    7.7855 C.3       1 RES1    0.0000
     26 H11       22.1092    0.5231    8.1945 H         1 RES1    0.0000
     27 H12       23.0938   -0.7206    8.4038 H         1 RES1    0.0000
     28 H13       22.4958   -0.4110    6.9532 H         1 RES1    0.0000
     29 C16       27.4571    3.7118    4.7465 C.ar      1 RES1    0.0000
     30 C17       28.5321    4.4155    5.2734 C.ar      1 RES1    0.0000
     31 H14       28.3845    5.2649    5.6739 H         1 RES1    0.0000
     32 C18       29.8236    3.8988    5.2249 C.ar      1 RES1    0.0000
     33 H15       30.5466    4.3842    5.6054 H         1 RES1    0.0000
     34 C19       30.0514    2.6738    4.6171 C.ar      1 RES1    0.0000
     35 C20       28.9868    1.9282    4.1415 C.ar      1 RES1    0.0000
     36 H16       29.1336    1.0640    3.7762 H         1 RES1    0.0000
     37 C21       27.6989    2.4565    4.2033 C.ar      1 RES1    0.0000
     38 H17       26.9714    1.9483    3.8656 H         1 RES1    0.0000
     39 C22       26.0672    4.3036    4.7293 C.3       1 RES1    0.0000
     40 H18       26.0702    5.1155    5.3134 H         1 RES1    0.0000
     41 C23       25.5866    4.7345    3.3073 C.3       1 RES1    0.0000
     42 H19       25.9422    4.0621    2.6576 H         1 RES1    0.0000
     43 C24       26.1220    6.0827    2.8897 C.ar      1 RES1    0.0000
     44 C25       25.6469    7.2533    3.4795 C.ar      1 RES1    0.0000
     45 H20       24.9574    7.2008    4.1320 H         1 RES1    0.0000
     46 C26       26.1612    8.4906    3.1304 C.ar      1 RES1    0.0000
     47 H21       25.8462    9.2826    3.5489 H         1 RES1    0.0000
     48 C27       27.1383    8.5449    2.1611 C.ar      1 RES1    0.0000
     49 C28       27.6451    7.4197    1.5523 C.ar      1 RES1    0.0000
     50 H22       28.3272    7.4837    0.8960 H         1 RES1    0.0000
     51 C29       27.1263    6.1857    1.9281 C.ar      1 RES1    0.0000
     52 H23       27.4617    5.3966    1.5210 H         1 RES1    0.0000
     53 C30       31.6318    0.9975    3.9845 C.3       1 RES1    0.0000
     54 H24       31.1950    0.3096    4.5305 H         1 RES1    0.0000
     55 H25       32.5995    0.8416    3.9741 H         1 RES1    0.0000
     56 H26       31.2834    0.9573    3.0695 H         1 RES1    0.0000
     57 N1        24.2620    7.3992   -2.6358 N.pl3     1 RES1    0.0000
     58 N2        27.6722    9.8671    1.7949 N.pl3     1 RES1    0.0000
     59 O1        23.9395    0.8272    7.5049 O.3       1 RES1    0.0000
     60 O2        23.8544    8.5561   -2.5882 O.2       1 RES1    0.0000
     61 O3        24.7455    6.8957   -3.6412 O.2       1 RES1    0.0000
     62 O4        31.3635    2.2814    4.5391 O.3       1 RES1    0.0000
     63 O5        28.6046    9.9029    0.9864 O.2       1 RES1    0.0000
     64 O6        27.1457   10.8610    2.2810 O.2       1 RES1    0.0000
@<TRIPOS>BOND
     1    1    2 ar
     2    2    3 1
     3    4    2 ar
     4    5    4 1
     5    6    4 ar
     6    7    6 ar
     7    8    7 1
     8    9    1 ar
     9   10    1 1
    10   11   10 1
    11   12   10 1
    12   13   12 1
    13   14   12 1
    14   15   12 1
    15   16   15 ar
    16   17   16 1
    17   18   16 ar
    18   19   18 1
    19   20   18 ar
    20   21   20 ar
    21   22   21 1
    22   23   15 ar
    23   24   23 1
    24   25   26 1
    25   27   25 1
    26   28   25 1
    27   29   30 ar
    28   30   31 1
    29   32   30 ar
    30   33   32 1
    31   34   32 ar
    32   35   34 ar
    33   36   35 1
    34   37   29 ar
    35   38   37 1
    36   39    9 1
    37   40   39 1
    38   41   10 1
    39   42   41 1
    40   43   41 1
    41   44   43 ar
    42   45   44 1
    43   46   44 ar
    44   47   46 1
    45   48   46 ar
    46   49   48 ar
    47   50   49 1
    48   51   43 ar
    49   52   51 1
    50   53   54 1
    51   55   53 1
    52   56   53 1
    53   57   20 1
    54   58   48 1
    55   59    6 1
    56   60   57 2
    57   61   57 2
    58   62   34 1
    59   63   58 2
    60   64   58 2
    61    7    9 ar
    62   21   23 ar
    63   25   59 1
    64   29   39 1
    65   35   37 ar
    66   39   41 1
    67   49   51 ar
    68   53   62 1
@<TRIPOS>SUBSTRUCTURE
     1 RES1 1

@<TRIPOS>CRYSIN
  29.5190   17.7930    9.6147  90.0000  98.3850  90.0000  15 1

