# MOL2 file generated by ConQuest
# Please check atom types

@<TRIPOS>MOLECULE
OGOKAY
    22    22     1
SMALL
NO_CHARGES
****
Generated from CSD

@<TRIPOS>ATOM
      1 O1         6.2993    3.3040    0.2892 O.2       1 RES1    0.0000
      2 O2         5.2388    5.1505   -0.1990 O.2       1 RES1    0.0000
      3 O3         4.5858    1.7779    2.2537 O.2       1 RES1    0.0000
      4 O4         6.0019    3.0241    3.3543 O.2       1 RES1    0.0000
      5 O5         2.3489    4.0485    2.1368 O.2       1 RES1    0.0000
      6 O6         3.0883    3.3108    0.2218 O.2       1 RES1    0.0000
      7 O7         7.7555    7.9960    2.5863 O.2       1 RES1    0.0000
      8 O8         7.5139    7.7916    4.7319 O.2       1 RES1    0.0000
      9 O9         3.6067    6.8298    6.0931 O.2       1 RES1    0.0000
     10 O10        4.9095    8.4827    5.5536 O.2       1 RES1    0.0000
     11 N1         4.8068    5.2565    2.5346 N.3       1 RES1    0.0000
     12 N2         6.0001    5.9181    2.3904 N.2       1 RES1    0.0000
     13 N3         5.4955    4.1836    0.4882 N.pl3     1 RES1    0.0000
     14 N4         5.1217    2.8242    2.5438 N.pl3     1 RES1    0.0000
     15 N5         3.2110    3.7941    1.3226 N.pl3     1 RES1    0.0000
     16 N6         7.1845    7.5902    3.5787 N.pl3     1 RES1    0.0000
     17 N7         4.4343    7.3699    5.3741 N.pl3     1 RES1    0.0000
     18 C1         6.0032    6.7611    3.3916 C.2       1 RES1    0.0000
     19 C2         4.8594    6.6269    4.2088 C.2       1 RES1    0.0000
     20 C3         4.1131    5.6349    3.6502 C.2       1 RES1    0.0000
     21 C4         4.6516    4.0795    1.7636 C.3       1 RES1    0.0000
     22 H1         3.2805    5.2351    3.9273 H         1 RES1    0.0000
@<TRIPOS>BOND
     1    1   13 2
     2    2   13 2
     3    3   14 2
     4    4   14 2
     5    5   15 2
     6    6   15 2
     7    7   16 2
     8    8   16 2
     9    9   17 2
    10   10   17 2
    11   11   12 1
    12   12   18 2
    13   13   21 1
    14   14   21 1
    15   15   21 1
    16   16   18 1
    17   17   19 1
    18   18   19 1
    19   19   20 2
    20   20   11 1
    21   21   11 1
    22   22   20 1
@<TRIPOS>SUBSTRUCTURE
     1 RES1 1

@<TRIPOS>CRYSIN
   6.2605    7.5434   21.9405  90.0000  90.0000  90.0000  19 1

