# MOL2 file generated by ConQuest
# Please check atom types

@<TRIPOS>MOLECULE
OGOSIO
    45    47     1
SMALL
NO_CHARGES
****
Generated from CSD

@<TRIPOS>ATOM
      1 O1         8.1095   11.8797    3.1494 O.3       1 RES1    0.0000
      2 O2         7.2910    8.1896    1.8285 O.3       1 RES1    0.0000
      3 O3         8.5102    6.6860    3.0099 O.3       1 RES1    0.0000
      4 O4        10.4637    9.3280    4.6162 O.3       1 RES1    0.0000
      5 O5        11.3412    7.2082    6.1023 O.3       1 RES1    0.0000
      6 N1         9.2875   11.1066    2.8058 N.3       1 RES1    0.0000
      7 C1        10.1165   12.1707    2.1198 C.3       1 RES1    0.0000
      8 C2         9.0428   12.9719    1.3424 C.3       1 RES1    0.0000
      9 H1         9.0544   13.9111    1.5872 H         1 RES1    0.0000
     10 H2         9.1637   12.8879    0.3837 H         1 RES1    0.0000
     11 C3         7.7646   12.2919    1.8052 C.3       1 RES1    0.0000
     12 H3         6.9710   12.8631    1.7558 H         1 RES1    0.0000
     13 C4         7.6033   10.9520    1.1128 C.3       1 RES1    0.0000
     14 H4         7.7739   11.0171    0.1599 H         1 RES1    0.0000
     15 H5         6.7212   10.5776    1.2570 H         1 RES1    0.0000
     16 C5         8.6980   10.1347    1.8366 C.3       1 RES1    0.0000
     17 H6         9.3758    9.8293    1.2000 H         1 RES1    0.0000
     18 C6         8.1639    8.9645    2.6506 C.3       1 RES1    0.0000
     19 H7         7.6750    9.2996    3.4314 H         1 RES1    0.0000
     20 C7         9.2067    7.9356    3.0942 C.3       1 RES1    0.0000
     21 H8         9.9523    7.9338    2.4564 H         1 RES1    0.0000
     22 C8         9.7515    8.1107    4.4971 C.3       1 RES1    0.0000
     23 H9         9.0102    8.1005    5.1389 H         1 RES1    0.0000
     24 C9        10.7316    7.0117    4.8401 C.3       1 RES1    0.0000
     25 H10       10.2659    6.1599    4.8401 H         1 RES1    0.0000
     26 H11       11.4189    6.9758    4.1569 H         1 RES1    0.0000
     27 C10        7.2322    6.9008    2.4157 C.3       1 RES1    0.0000
     28 C11        6.9986    5.8890    1.3244 C.3       1 RES1    0.0000
     29 H12        6.1655    6.0765    0.8872 H         1 RES1    0.0000
     30 H13        6.9697    5.0082    1.7058 H         1 RES1    0.0000
     31 H14        7.7141    5.9368    0.6855 H         1 RES1    0.0000
     32 C12        6.1704    6.8494    3.4918 C.3       1 RES1    0.0000
     33 H15        6.3620    7.5078    4.1633 H         1 RES1    0.0000
     34 H16        6.1603    5.9774    3.8912 H         1 RES1    0.0000
     35 H17        5.3119    7.0322    3.1029 H         1 RES1    0.0000
     36 C13       11.2070   11.5617    1.2622 C.3       1 RES1    0.0000
     37 H18       11.6999   10.9202    1.7791 H         1 RES1    0.0000
     38 H19       11.7988   12.2545    0.9593 H         1 RES1    0.0000
     39 H20       10.8112   11.1253    0.5041 H         1 RES1    0.0000
     40 C14       10.7435   13.0195    3.2139 C.3       1 RES1    0.0000
     41 H21       10.0564   13.3476    3.7976 H         1 RES1    0.0000
     42 H22       11.2081   13.7601    2.8174 H         1 RES1    0.0000
     43 H23       11.3629   12.4867    3.7174 H         1 RES1    0.0000
     44 H24       10.0642    9.9533    4.1569 H         1 RES1    0.0000
     45 H25       11.7507    7.9112    6.0813 H         1 RES1    0.0000
@<TRIPOS>BOND
     1    1    6 1
     2    2   18 1
     3    3   20 1
     4    4   22 1
     5    5   24 1
     6    6    7 1
     7    7    8 1
     8    8    9 1
     9   10    8 1
    10   11    1 1
    11   12   11 1
    12   13   11 1
    13   14   13 1
    14   15   13 1
    15   16    6 1
    16   17   16 1
    17   18   16 1
    18   19   18 1
    19   20   18 1
    20   21   20 1
    21   22   20 1
    22   23   22 1
    23   24   22 1
    24   25   24 1
    25   26   24 1
    26   27    2 1
    27   28   27 1
    28   29   28 1
    29   30   28 1
    30   31   28 1
    31   32   27 1
    32   33   32 1
    33   34   32 1
    34   35   32 1
    35   36    7 1
    36   37   36 1
    37   38   36 1
    38   39   36 1
    39   40    7 1
    40   41   40 1
    41   42   40 1
    42   43   40 1
    43   44    4 1
    44   45    5 1
    45    3   27 1
    46    8   11 1
    47   13   16 1
@<TRIPOS>SUBSTRUCTURE
     1 RES1 1

@<TRIPOS>CRYSIN
  26.0259   26.0259    5.8139  90.0000  90.0000 120.0000 232 1

