# MOL2 file generated by ConQuest
# Please check atom types

@<TRIPOS>MOLECULE
OGUGEC
    46    46     1
SMALL
NO_CHARGES
****
Generated from CSD

@<TRIPOS>ATOM
      1 O1         6.3676    0.3944   19.1704 O.2       1 RES1    0.0000
      2 O2         1.8753   -0.4506   18.4165 O.3       1 RES1    0.0000
      3 O3         3.0336    2.0506   18.1179 O.3       1 RES1    0.0000
      4 O4         4.4532    3.6177   18.7700 O.2       1 RES1    0.0000
      5 O5         4.1050    1.9135   15.6312 O.3       1 RES1    0.0000
      6 O6         3.3839    0.7785   13.8797 O.2       1 RES1    0.0000
      7 O7         4.7936   -1.4667   16.4014 O.3       1 RES1    0.0000
      8 O8         6.0881    0.0722   15.4096 O.2       1 RES1    0.0000
      9 N1         5.2706   -0.2442   19.4796 N.pl3     1 RES1    0.0000
     10 C1         5.3286   -1.2100   20.4364 C.ar      1 RES1    0.0000
     11 C2         4.2327   -1.9362   20.7602 C.ar      1 RES1    0.0000
     12 C3         3.0360   -1.7195   20.1171 C.ar      1 RES1    0.0000
     13 C4         2.9751   -0.7443   19.1464 C.ar      1 RES1    0.0000
     14 C5         4.1034    0.0247   18.8438 C.ar      1 RES1    0.0000
     15 C6         4.1310    1.1549   17.8540 C.3       1 RES1    0.0000
     16 C7         3.9874    0.7186   16.3965 C.3       1 RES1    0.0000
     17 C8         5.0824   -0.2405   15.9900 C.2       1 RES1    0.0000
     18 C9         0.7062   -1.2404   18.6328 C.3       1 RES1    0.0000
     19 C10        3.3230    3.2850   18.5456 C.2       1 RES1    0.0000
     20 C11        2.1073    4.1158   18.6425 C.3       1 RES1    0.0000
     21 C12        3.7622    1.8136   14.3391 C.2       1 RES1    0.0000
     22 C13        3.9808    3.0616   13.5880 C.3       1 RES1    0.0000
     23 C14        5.7811   -2.5312   16.1701 C.3       1 RES1    0.0000
     24 C15        5.0016   -3.7669   16.1025 C.3       1 RES1    0.0000
     25 C16        6.7629   -2.5312   17.2422 C.3       1 RES1    0.0000
     26 H1         6.1328   -1.3726   20.8755 H         1 RES1    0.0000
     27 H2         4.2897   -2.5873   21.4213 H         1 RES1    0.0000
     28 H3         2.2831   -2.2204   20.3338 H         1 RES1    0.0000
     29 H4         4.9731    1.6463   17.9550 H         1 RES1    0.0000
     30 H5         3.1092    0.3089   16.2523 H         1 RES1    0.0000
     31 H6         0.9011   -2.1596   18.4356 H         1 RES1    0.0000
     32 H7         0.4315   -1.1606   19.5476 H         1 RES1    0.0000
     33 H8         0.0019   -0.9315   18.0609 H         1 RES1    0.0000
     34 H9         1.6948    4.1804   17.7798 H         1 RES1    0.0000
     35 H10        1.4923    3.7127   19.2584 H         1 RES1    0.0000
     36 H11        2.3421    4.9931   18.9529 H         1 RES1    0.0000
     37 H12        3.4532    3.7650   13.9754 H         1 RES1    0.0000
     38 H13        4.9094    3.3002   13.6251 H         1 RES1    0.0000
     39 H14        3.7213    2.9343   12.6719 H         1 RES1    0.0000
     40 H15        6.2307   -2.3801   15.3114 H         1 RES1    0.0000
     41 H16        5.5919   -4.5093   15.9550 H         1 RES1    0.0000
     42 H17        4.5292   -3.8933   16.9285 H         1 RES1    0.0000
     43 H18        4.3724   -3.7089   15.3807 H         1 RES1    0.0000
     44 H19        7.4065   -3.2270   17.0874 H         1 RES1    0.0000
     45 H20        7.2097   -1.6815   17.2666 H         1 RES1    0.0000
     46 H21        6.3219   -2.6852   18.0812 H         1 RES1    0.0000
@<TRIPOS>BOND
     1    1    9 1
     2    2   13 1
     3    3   15 1
     4    4   19 2
     5    5   16 1
     6    6   21 2
     7    7   17 1
     8    8   17 2
     9    9   10 ar
    10   10   11 ar
    11   11   12 ar
    12   12   13 ar
    13   13   14 ar
    14   14    9 ar
    15   15   14 1
    16   16   15 1
    17   17   16 1
    18   18    2 1
    19   19    3 1
    20   20   19 1
    21   21    5 1
    22   22   21 1
    23   23    7 1
    24   24   23 1
    25   25   23 1
    26   26   10 1
    27   27   11 1
    28   28   12 1
    29   29   15 1
    30   30   16 1
    31   31   18 1
    32   32   18 1
    33   33   18 1
    34   34   20 1
    35   35   20 1
    36   36   20 1
    37   37   22 1
    38   38   22 1
    39   39   22 1
    40   40   23 1
    41   41   24 1
    42   42   24 1
    43   43   24 1
    44   44   25 1
    45   45   25 1
    46   46   25 1
@<TRIPOS>SUBSTRUCTURE
     1 RES1 1

@<TRIPOS>CRYSIN
   9.5052    9.5052   40.7327  90.0000  90.0000  90.0000  92 1

