# MOL2 file generated by ConQuest
# Please check atom types

@<TRIPOS>MOLECULE
OGUGOM
    48    51     1
SMALL
NO_CHARGES
****
Generated from CSD

@<TRIPOS>ATOM
      1 O1        -0.5691   13.8758    9.4083 O.2       1 RES1    0.0000
      2 N1         0.7471   13.8541    9.3780 N.pl3     1 RES1    0.0000
      3 O2         0.1287   12.4237   13.6008 O.3       1 RES1    0.0000
      4 O3         1.2723   14.6380   11.5461 O.3       1 RES1    0.0000
      5 O4         1.6428   11.6861   12.1370 O.3       1 RES1    0.0000
      6 O5         0.3600   16.5847   13.4570 O.3       1 RES1    0.0000
      7 C1        -0.2499   13.0051   12.3516 C.3       1 RES1    0.0000
      8 H1        -1.1699   12.8243   12.1438 H         1 RES1    0.0000
      9 C2         1.3892   13.5634   10.6631 C.3       1 RES1    0.0000
     10 H2         2.3165   13.3595   10.5227 H         1 RES1    0.0000
     11 C3         0.2503   15.1702   13.6569 C.3       1 RES1    0.0000
     12 H3        -0.5126   14.9895   14.2108 H         1 RES1    0.0000
     13 C4         0.8886   14.3574    7.0200 C.3       1 RES1    0.0000
     14 H4        -0.0658   14.4514    6.9807 H         1 RES1    0.0000
     15 O6         1.8875   16.0337   15.0275 O.3       1 RES1    0.0000
     16 C5         1.4154   17.1112   14.2389 C.3       1 RES1    0.0000
     17 C6         0.0564   14.5151   12.3156 C.3       1 RES1    0.0000
     18 H5        -0.6529   14.9663   11.8517 H         1 RES1    0.0000
     19 C7         0.9515   11.2884   13.3076 C.3       1 RES1    0.0000
     20 C8         1.4539   14.0783    8.3344 C.2       1 RES1    0.0000
     21 H6         2.4097   14.0667    8.4231 H         1 RES1    0.0000
     22 C9         1.5427   13.7601    5.8113 C.3       1 RES1    0.0000
     23 H7         0.9757   13.4824    5.0878 H         1 RES1    0.0000
     24 H8         2.3179   13.2105    5.9483 H         1 RES1    0.0000
     25 C10        0.6967   12.3717   11.3271 C.3       1 RES1    0.0000
     26 H9         0.2480   11.7975   10.7025 H         1 RES1    0.0000
     27 C11        1.9366   11.0859   14.4085 C.3       1 RES1    0.0000
     28 H10        2.4445   11.8900   14.5354 H         1 RES1    0.0000
     29 H11        1.4713   10.8704   15.2207 H         1 RES1    0.0000
     30 H12        2.5292   10.3656   14.1782 H         1 RES1    0.0000
     31 C12        2.4526   17.6391   13.3020 C.3       1 RES1    0.0000
     32 H13        2.7605   16.9362   12.7257 H         1 RES1    0.0000
     33 H14        2.0739   18.3434   12.7728 H         1 RES1    0.0000
     34 H15        3.1907   17.9818   13.8109 H         1 RES1    0.0000
     35 C13        1.4992   14.8217   14.4141 C.3       1 RES1    0.0000
     36 H16        2.1825   14.5035   13.8187 H         1 RES1    0.0000
     37 H17        1.3221   14.1463   15.0724 H         1 RES1    0.0000
     38 C14        0.0930   10.0648   13.0346 C.3       1 RES1    0.0000
     39 H18       -0.5191   10.2572   12.3201 H         1 RES1    0.0000
     40 H19        0.6577    9.3301   12.7830 H         1 RES1    0.0000
     41 H20       -0.4002    9.8334   13.8255 H         1 RES1    0.0000
     42 C15        0.8827   18.1597   15.1724 C.3       1 RES1    0.0000
     43 H21        0.2206   17.7736   15.7498 H         1 RES1    0.0000
     44 H22        1.6043   18.5083   15.7015 H         1 RES1    0.0000
     45 H23        0.4878   18.8713   14.6624 H         1 RES1    0.0000
     46 C16        1.6708   15.1963    6.0505 C.3       1 RES1    0.0000
     47 H24        2.5266   15.5217    6.3381 H         1 RES1    0.0000
     48 H25        1.1839   15.7921    5.4776 H         1 RES1    0.0000
@<TRIPOS>BOND
     1    1    2 1
     2    2    9 1
     3    3    7 1
     4    4    9 1
     5    5   19 1
     6    6   11 1
     7    7    8 1
     8    9   10 1
     9   11   12 1
    10   13   14 1
    11   15   16 1
    12   16    6 1
    13   17    4 1
    14   18   17 1
    15   19    3 1
    16   20    2 2
    17   21   20 1
    18   22   13 1
    19   23   22 1
    20   24   22 1
    21   25    5 1
    22   26   25 1
    23   27   19 1
    24   28   27 1
    25   29   27 1
    26   30   27 1
    27   31   16 1
    28   32   31 1
    29   33   31 1
    30   34   31 1
    31   35   11 1
    32   36   35 1
    33   37   35 1
    34   38   19 1
    35   39   38 1
    36   40   38 1
    37   41   38 1
    38   42   16 1
    39   43   42 1
    40   44   42 1
    41   45   42 1
    42   46   13 1
    43   47   46 1
    44   48   46 1
    45    7   17 1
    46    7   25 1
    47    9   25 1
    48   11   17 1
    49   13   20 1
    50   15   35 1
    51   22   46 1
@<TRIPOS>SUBSTRUCTURE
     1 RES1 1

@<TRIPOS>CRYSIN
   5.2040   14.4630   11.5160  90.0000 102.7100  90.0000   4 1

