# MOL2 file generated by ConQuest
# Please check atom types

@<TRIPOS>MOLECULE
OHAYEB
    19    19     1
SMALL
NO_CHARGES
****
Generated from CSD

@<TRIPOS>ATOM
      1 O1         7.4655    5.9865    7.7954 O.3       1 RES1    0.0000
      2 N1         6.1090    6.3019    7.6084 N.2       1 RES1    0.0000
      3 C1         5.2341    5.3939    7.7533 C.2       1 RES1    0.0000
      4 C2         5.4770    3.9433    8.0741 C.3       1 RES1    0.0000
      5 O2         4.5697    3.1468    7.3331 O.3       1 RES1    0.0000
      6 C3         6.9144    3.5893    7.7445 C.3       1 RES1    0.0000
      7 O3         7.2918    2.3598    8.3428 O.3       1 RES1    0.0000
      8 C4         7.8272    4.6743    8.2955 C.3       1 RES1    0.0000
      9 C5         9.2819    4.5162    7.8890 C.3       1 RES1    0.0000
     10 O4         9.4236    4.5635    6.4716 O.3       1 RES1    0.0000
     11 H1         4.2832    5.7329    7.5709 H         1 RES1    0.0000
     12 H2         5.3060    3.8131    9.0708 H         1 RES1    0.0000
     13 H3         4.2113    2.7868    7.8477 H         1 RES1    0.0000
     14 H4         6.9841    3.5123    6.7942 H         1 RES1    0.0000
     15 H5         7.0241    1.7871    7.8388 H         1 RES1    0.0000
     16 H6         7.7193    4.6978    9.2405 H         1 RES1    0.0000
     17 H7         9.5972    3.7069    8.2807 H         1 RES1    0.0000
     18 H8         9.8209    5.2640    8.2316 H         1 RES1    0.0000
     19 H9         9.5732    3.8573    6.2139 H         1 RES1    0.0000
@<TRIPOS>BOND
     1    1    2 1
     2    2    3 2
     3    3    4 1
     4    4    5 1
     5    5   13 1
     6    6    4 1
     7    7    6 1
     8    8    1 1
     9    9    8 1
    10   10    9 1
    11   11    3 1
    12   12    4 1
    13   14    6 1
    14   15    7 1
    15   16    8 1
    16   17    9 1
    17   18    9 1
    18   19   10 1
    19    6    8 1
@<TRIPOS>SUBSTRUCTURE
     1 RES1 1

@<TRIPOS>CRYSIN
   7.9910    8.8470    8.9280  90.0000  90.0000  90.0000  19 1

