# MOL2 file generated by ConQuest
# Please check atom types

@<TRIPOS>MOLECULE
OHELAO
    44    42     2
SMALL
NO_CHARGES
****
Generated from CSD

@<TRIPOS>ATOM
      1 O1         0.7529    2.4067    1.3561 O.3       1 RES1    0.0000
      2 O2         0.9121    0.7072   -0.1058 O.2       1 RES1    0.0000
      3 O3         3.9827    0.9599    3.9048 O.3       1 RES1    0.0000
      4 O4         5.3714   -0.4957    4.8758 O.3       1 RES1    0.0000
      5 O5         3.6626    0.5380    5.9641 O.2       1 RES1    0.0000
      6 O6         5.4735   -5.3915    2.8141 O.2       1 RES1    0.0000
      7 O7         3.4345   -5.4317    3.4844 O.2       1 RES1    0.0000
      8 O8         5.6705    0.8753    4.7387 Du        2 SUP2    0.0000
      9 O9         4.1928   -0.6399    5.3347 Du        2 SUP2    0.0000
     10 N1         2.5957    1.1974    1.3754 N.am      1 RES1    0.0000
     11 N2         4.3591   -4.8872    2.9159 N.pl3     1 RES1    0.0000
     12 C1         2.9067    2.3113    2.2782 C.3       1 RES1    0.0000
     13 C2         1.5773    2.9642    2.3653 C.3       1 RES1    0.0000
     14 C3         1.3996    1.3633    0.7858 C.2       1 RES1    0.0000
     15 C4         3.0526    1.8189    3.7872 C.3       1 RES1    0.0000
     16 C5         4.4252    0.3677    4.9055 C.2       1 RES1    0.0000
     17 C6         5.5125   -1.4132    6.0574 C.3       1 RES1    0.0000
     18 C7         4.4126   -2.3742    6.4252 C.3       1 RES1    0.0000
     19 C8         6.6366   -2.1952    5.3507 C.3       1 RES1    0.0000
     20 C9         5.9563   -0.6562    7.2510 C.3       1 RES1    0.0000
     21 C10        3.6062    0.3590    0.7481 C.3       1 RES1    0.0000
     22 C11        3.7677   -1.0076    1.3510 C.ar      1 RES1    0.0000
     23 C12        2.7794   -1.6236    2.1007 C.ar      1 RES1    0.0000
     24 C13        2.9451   -2.9100    2.5968 C.ar      1 RES1    0.0000
     25 C14        4.1496   -3.5575    2.3402 C.ar      1 RES1    0.0000
     26 C15        5.1439   -2.9729    1.6036 C.ar      1 RES1    0.0000
     27 C16        4.9433   -1.7017    1.1057 C.ar      1 RES1    0.0000
     28 C17        3.9208    2.0857    3.2741 Du        2 SUP2    0.0000
     29 H1         1.6566    3.9414    2.2477 H         1 RES1    0.0000
     30 H2         1.1660    2.7690    3.2714 H         1 RES1    0.0000
     31 H3         4.5206   -2.9675    7.2323 H         1 RES1    0.0000
     32 H4         3.5792   -2.4078    5.8906 H         1 RES1    0.0000
     33 H5         6.9055   -2.9382    5.9307 H         1 RES1    0.0000
     34 H6         7.3517   -1.5792    5.1449 H         1 RES1    0.0000
     35 H7         6.2187   -2.5618    4.4982 H         1 RES1    0.0000
     36 H8         6.0235   -1.2636    8.0368 H         1 RES1    0.0000
     37 H9         6.8341   -0.2321    7.0639 H         1 RES1    0.0000
     38 H10        5.2766    0.0662    7.4542 H         1 RES1    0.0000
     39 H11        4.4846    0.8135    0.8098 H         1 RES1    0.0000
     40 H12        3.3534    0.2256   -0.2085 H         1 RES1    0.0000
     41 H13        1.9316   -1.1334    2.2932 H         1 RES1    0.0000
     42 H14        2.2150   -3.3709    3.1217 H         1 RES1    0.0000
     43 H15        5.9995   -3.4599    1.4753 H         1 RES1    0.0000
     44 H16        5.6555   -1.2863    0.5452 H         1 RES1    0.0000
@<TRIPOS>BOND
     1    1   13 1
     2    2   14 2
     3    3   15 1
     4    4   16 1
     5    5   16 2
     6    6   11 2
     7    7   11 2
     8   10   12 1
     9   11   25 1
    10   12   13 1
    11   13   29 1
    12   14    1 1
    13   15   12 1
    14   16    3 1
    15   17    4 1
    16   18   17 1
    17   19   17 1
    18   20   17 1
    19   21   10 1
    20   22   21 1
    21   23   22 ar
    22   24   23 ar
    23   25   24 ar
    24   26   25 ar
    25   27   22 ar
    26   30   13 1
    27   31   18 1
    28   32   18 1
    29   33   19 1
    30   34   19 1
    31   35   19 1
    32   36   20 1
    33   37   20 1
    34   38   20 1
    35   39   21 1
    36   40   21 1
    37   41   23 1
    38   42   24 1
    39   43   26 1
    40   44   27 1
    41   10   14 1
    42   26   27 ar
@<TRIPOS>SUBSTRUCTURE
     1 RES1 1
     2 SUP2 8

@<TRIPOS>CRYSIN
   6.0043   10.8460   26.7270  90.0000  90.0000  90.0000  19 1

