# MOL2 file generated by ConQuest
# Please check atom types

@<TRIPOS>MOLECULE
OHMISX
    35    37     1
SMALL
NO_CHARGES
****
Generated from CSD

@<TRIPOS>ATOM
      1 C1         9.4838   16.2627    0.6885 C.2       1 RES1    0.0000
      2 C2         9.6884   16.5982    2.1648 C.3       1 RES1    0.0000
      3 C3         8.8792   15.4070    2.7919 C.3       1 RES1    0.0000
      4 C4         8.0955   15.6615    4.0521 C.3       1 RES1    0.0000
      5 C5        10.3416   16.7503   -0.4074 C.ar      1 RES1    0.0000
      6 C6        11.0063   17.9696   -0.2967 C.ar      1 RES1    0.0000
      7 C7        11.8802   18.3849   -1.2948 C.ar      1 RES1    0.0000
      8 C8        12.0964   17.5921   -2.4018 C.ar      1 RES1    0.0000
      9 C9        11.4479   16.3792   -2.5264 C.ar      1 RES1    0.0000
     10 C10       10.5739   15.9592   -1.5404 C.ar      1 RES1    0.0000
     11 C11        9.1382   17.9777    2.5212 C.ar      1 RES1    0.0000
     12 C12        9.7879   18.7688    3.4648 C.ar      1 RES1    0.0000
     13 C13        9.2792   20.0262    3.7779 C.ar      1 RES1    0.0000
     14 C14        8.1382   20.4963    3.1776 C.ar      1 RES1    0.0000
     15 C15        7.4816   19.7121    2.2608 C.ar      1 RES1    0.0000
     16 C16        7.9752   18.4556    1.9270 C.ar      1 RES1    0.0000
     17 O1         7.9336   15.0843    1.7350 O.3       1 RES1    0.0000
     18 O2        11.0537   16.5628    2.5419 O.3       1 RES1    0.0000
     19 O3         9.7959   14.3491    2.9156 O.3       1 RES1    0.0000
     20 N1         8.5163   15.4446    0.4757 N.2       1 RES1    0.0000
     21 H1         7.4678   16.3013    3.9266 H         1 RES1    0.0000
     22 H2        10.5543   18.4155    3.8661 H         1 RES1    0.0000
     23 H3         9.7104   20.5297    4.4715 H         1 RES1    0.0000
     24 H4         7.7336   21.3086    3.4077 H         1 RES1    0.0000
     25 H5         6.6932   20.0568    1.8336 H         1 RES1    0.0000
     26 H6         7.5024   17.9148    1.3060 H         1 RES1    0.0000
     27 H7         7.6065   14.8548    4.3504 H         1 RES1    0.0000
     28 H8        10.9011   18.4990    0.5103 H         1 RES1    0.0000
     29 H9        12.2998   19.3335   -1.1936 H         1 RES1    0.0000
     30 H10       12.6929   17.8592   -3.0963 H         1 RES1    0.0000
     31 H11       11.5947   15.8284   -3.3126 H         1 RES1    0.0000
     32 H12       10.1266   15.0774   -1.5741 H         1 RES1    0.0000
     33 H13        8.6584   15.9675    4.7570 H         1 RES1    0.0000
     34 H14       11.3057   15.7172    2.5947 H         1 RES1    0.0000
     35 H15        9.4792   13.6865    3.3731 H         1 RES1    0.0000
@<TRIPOS>BOND
     1    1    2 1
     2    2    3 1
     3    3    4 1
     4    4   21 1
     5    5    1 1
     6    6    5 ar
     7    7    6 ar
     8    8    7 ar
     9    9    8 ar
    10   10    5 ar
    11   11    2 1
    12   12   11 ar
    13   13   12 ar
    14   14   13 ar
    15   15   14 ar
    16   16   11 ar
    17   17    3 1
    18   18    2 1
    19   19    3 1
    20   20    1 2
    21   22   12 1
    22   23   13 1
    23   24   14 1
    24   25   15 1
    25   26   16 1
    26   27    4 1
    27   28    6 1
    28   29    7 1
    29   30    8 1
    30   31    9 1
    31   32   10 1
    32   33    4 1
    33   34   18 1
    34   35   19 1
    35    9   10 ar
    36   15   16 ar
    37   17   20 1
@<TRIPOS>SUBSTRUCTURE
     1 RES1 1

@<TRIPOS>CRYSIN
  11.5600   27.8180    8.6490  90.0000  90.0000  90.0000  61 1

