# MOL2 file generated by ConQuest
# Please check atom types

@<TRIPOS>MOLECULE
OHNODC
    30    31     1
SMALL
NO_CHARGES
****
Generated from CSD

@<TRIPOS>ATOM
      1 C1         6.6998    1.9098    6.0982 C.3       1 RES1    0.0000
      2 C2         5.5468    2.3187    7.0456 C.3       1 RES1    0.0000
      3 C3         6.0343    2.5479    8.4713 C.3       1 RES1    0.0000
      4 C4         7.0914    3.6542    8.5015 C.3       1 RES1    0.0000
      5 C5         8.1435    3.4994    7.4628 C.2       1 RES1    0.0000
      6 C6         7.6592    3.1228    6.0563 C.3       1 RES1    0.0000
      7 C7         8.7963    2.9122    5.0779 C.3       1 RES1    0.0000
      8 C8         8.2488    2.5920    3.6740 C.3       1 RES1    0.0000
      9 C9         7.3511    1.3807    3.7058 C.3       1 RES1    0.0000
     10 C10        6.2049    1.5772    4.6759 C.3       1 RES1    0.0000
     11 N1         4.4824    1.2457    7.0138 N.pl3     1 RES1    0.0000
     12 O1         7.3688    0.7482    6.5715 O.3       1 RES1    0.0000
     13 O2         9.3237    3.6926    7.7023 O.2       1 RES1    0.0000
     14 O3         4.5972    0.2919    7.7685 O.2       1 RES1    0.0000
     15 O4         3.5654    1.3903    6.2197 O.2       1 RES1    0.0000
     16 H1         5.0338    3.1284    6.6678 H         1 RES1    0.0000
     17 H2         6.4656    1.6263    8.8458 H         1 RES1    0.0000
     18 H3         5.3231    2.8348    8.9379 H         1 RES1    0.0000
     19 H4         6.6515    4.5063    8.3264 H         1 RES1    0.0000
     20 H5         7.5218    3.7722    9.3651 H         1 RES1    0.0000
     21 H6         7.1217    3.8004    5.8134 H         1 RES1    0.0000
     22 H7         9.3385    2.2136    5.3527 H         1 RES1    0.0000
     23 H8         9.3539    3.7270    5.1433 H         1 RES1    0.0000
     24 H9         8.9710    2.3887    3.0407 H         1 RES1    0.0000
     25 H10        7.7045    3.3769    3.3842 H         1 RES1    0.0000
     26 H11        7.9222    0.5534    4.0124 H         1 RES1    0.0000
     27 H12        7.0078    1.2536    2.8313 H         1 RES1    0.0000
     28 H13        5.6517    2.3153    4.3726 H         1 RES1    0.0000
     29 H14        5.6183    0.7454    4.7077 H         1 RES1    0.0000
     30 H15        7.7609    0.9318    7.1872 H         1 RES1    0.0000
@<TRIPOS>BOND
     1    1    2 1
     2    2    3 1
     3    3    4 1
     4    4    5 1
     5    5    6 1
     6    6    1 1
     7    7    6 1
     8    8    7 1
     9    9    8 1
    10   10    1 1
    11   11    2 1
    12   12    1 1
    13   13    5 2
    14   14   11 2
    15   15   11 2
    16   16    2 1
    17   17    3 1
    18   18    3 1
    19   19    4 1
    20   20    4 1
    21   21    6 1
    22   22    7 1
    23   23    7 1
    24   24    8 1
    25   25    8 1
    26   26    9 1
    27   27    9 1
    28   28   10 1
    29   29   10 1
    30   30   12 1
    31    9   10 1
@<TRIPOS>SUBSTRUCTURE
     1 RES1 1

@<TRIPOS>CRYSIN
  10.9920    5.6470    8.5970  90.0000 103.0000  90.0000   4 1

