# MOL2 file generated by ConQuest
# Please check atom types

@<TRIPOS>MOLECULE
OHUJUW
    44    48     1
SMALL
NO_CHARGES
****
Generated from CSD

@<TRIPOS>ATOM
      1 O1         1.3434    3.1924    1.3677 O.3       1 RES1    0.0000
      2 O2         4.0998    3.5131    0.3771 O.3       1 RES1    0.0000
      3 O3         4.4091    1.9505    6.6487 O.2       1 RES1    0.0000
      4 O4         2.4959    1.0433    7.1140 O.2       1 RES1    0.0000
      5 O5         3.5955    0.9982   -5.2888 O.2       1 RES1    0.0000
      6 O6         1.5935    1.7959   -5.0831 O.2       1 RES1    0.0000
      7 N1         3.5791    4.4921    2.3964 N.3       1 RES1    0.0000
      8 N2         1.6354    4.2520   -0.6811 N.3       1 RES1    0.0000
      9 N3         3.2430    1.6715    6.3679 N.pl3     1 RES1    0.0000
     10 N4         2.7291    1.6104   -4.6593 N.pl3     1 RES1    0.0000
     11 C1         1.8389    4.4238    0.7166 C.3       1 RES1    0.0000
     12 C2         1.7999    2.8930    2.6266 C.ar      1 RES1    0.0000
     13 C3         2.9779    3.4783    3.1212 C.ar      1 RES1    0.0000
     14 C4         3.3427    4.5994    1.0037 C.3       1 RES1    0.0000
     15 C5         3.7396    3.1080   -0.8786 C.ar      1 RES1    0.0000
     16 C6         2.4812    3.4192   -1.4081 C.ar      1 RES1    0.0000
     17 C7         1.0353    5.6067    1.2327 C.3       1 RES1    0.0000
     18 C8         1.5518    6.9260    0.6618 C.3       1 RES1    0.0000
     19 C9         3.0219    7.1141    1.0080 C.3       1 RES1    0.0000
     20 C10        3.8515    5.9405    0.4854 C.3       1 RES1    0.0000
     21 C11        1.0844    1.9753    3.3758 C.ar      1 RES1    0.0000
     22 C12        1.5399    1.5803    4.6219 C.ar      1 RES1    0.0000
     23 C13        2.7266    2.1196    5.0758 C.ar      1 RES1    0.0000
     24 C14        3.4582    3.0512    4.3549 C.ar      1 RES1    0.0000
     25 C15        4.6475    2.3310   -1.5818 C.ar      1 RES1    0.0000
     26 C16        4.3221    1.8368   -2.8308 C.ar      1 RES1    0.0000
     27 C17        3.0772    2.1393   -3.3422 C.ar      1 RES1    0.0000
     28 C18        2.1459    2.9171   -2.6620 C.ar      1 RES1    0.0000
     29 H1         0.2542    1.6036    3.0356 H         1 RES1    0.0000
     30 H2         1.0751    0.9476    5.1610 H         1 RES1    0.0000
     31 H3         4.2879    3.4040    4.6936 H         1 RES1    0.0000
     32 H4         4.3370    4.7962    2.6638 H         1 RES1    0.0000
     33 H5         5.4976    2.1503   -1.1927 H         1 RES1    0.0000
     34 H6         4.9579    1.2902   -3.3485 H         1 RES1    0.0000
     35 H7         1.3017    3.0905   -3.0620 H         1 RES1    0.0000
     36 H8         0.7990    4.3078   -0.9306 H         1 RES1    0.0000
     37 H9         1.0715    5.6271    2.2086 H         1 RES1    0.0000
     38 H10        0.0986    5.4522    0.9956 H         1 RES1    0.0000
     39 H11        1.4504    6.9464   -0.3414 H         1 RES1    0.0000
     40 H12        1.0198    7.6899    1.0159 H         1 RES1    0.0000
     41 H13        3.3677    7.9450    0.6177 H         1 RES1    0.0000
     42 H14        3.1392    7.1797    1.9973 H         1 RES1    0.0000
     43 H15        3.8365    5.9260   -0.4551 H         1 RES1    0.0000
     44 H16        4.7847    6.0134    0.7721 H         1 RES1    0.0000
@<TRIPOS>BOND
     1    1   11 1
     2    2   14 1
     3    3    9 2
     4    4    9 2
     5    5   10 2
     6    6   10 2
     7    7   13 1
     8    8   11 1
     9    9   23 1
    10   10   27 1
    11   11   14 1
    12   12    1 1
    13   13   12 ar
    14   14    7 1
    15   15    2 1
    16   16    8 1
    17   17   11 1
    18   18   17 1
    19   19   18 1
    20   20   14 1
    21   21   12 ar
    22   22   21 ar
    23   23   22 ar
    24   24   13 ar
    25   25   15 ar
    26   26   25 ar
    27   27   26 ar
    28   28   16 ar
    29   29   21 1
    30   30   22 1
    31   31   24 1
    32   32    7 1
    33   33   25 1
    34   34   26 1
    35   35   28 1
    36   36    8 1
    37   37   17 1
    38   38   17 1
    39   39   18 1
    40   40   18 1
    41   41   19 1
    42   42   19 1
    43   43   20 1
    44   44   20 1
    45   15   16 ar
    46   19   20 1
    47   23   24 ar
    48   27   28 ar
@<TRIPOS>SUBSTRUCTURE
     1 RES1 1

@<TRIPOS>CRYSIN
  22.0560    7.2890   20.3320  90.0000  92.0700  90.0000  15 1

