# MOL2 file generated by ConQuest
# Please check atom types

@<TRIPOS>MOLECULE
OJAZIJ
    47    50     1
SMALL
NO_CHARGES
****
Generated from CSD

@<TRIPOS>ATOM
      1 O1         0.0322   -0.4208    4.5985 O.3       1 RES1    0.0000
      2 C1        -1.1196    0.4067    4.8730 C.3       1 RES1    0.0000
      3 C2        -0.8783    1.4896    5.9158 C.3       1 RES1    0.0000
      4 C3         0.2402    1.1233    6.9107 C.3       1 RES1    0.0000
      5 C4        -0.1382   -0.1566    7.6384 C.2       1 RES1    0.0000
      6 C5        -0.5003   -0.2235    8.9177 C.2       1 RES1    0.0000
      7 C6        -0.6215    0.9702    9.7585 C.2       1 RES1    0.0000
      8 C7        -0.6112    2.2773    9.0025 C.3       1 RES1    0.0000
      9 C8         0.4649    2.2869    7.9083 C.3       1 RES1    0.0000
     10 C9         1.8756    2.1867    8.5098 C.3       1 RES1    0.0000
     11 C10        2.9596    2.3359    7.4604 C.3       1 RES1    0.0000
     12 C11        2.7542    1.3302    6.3564 C.ar      1 RES1    0.0000
     13 C12        3.8172    0.9019    5.5779 C.ar      1 RES1    0.0000
     14 C13        3.6388    0.0138    4.5197 C.ar      1 RES1    0.0000
     15 C14        2.3674   -0.4184    4.1852 C.ar      1 RES1    0.0000
     16 C15        1.2817    0.0387    4.9412 C.ar      1 RES1    0.0000
     17 C16        1.4710    0.8479    6.0598 C.ar      1 RES1    0.0000
     18 O2        -1.5350    1.0696    3.7176 O.3       1 RES1    0.0000
     19 C17       -1.8748    0.2228    2.5948 C.3       1 RES1    0.0000
     20 C18       -0.8400    0.3518    1.5122 C.3       1 RES1    0.0000
     21 O3        -0.7292    0.9033   10.9764 O.2       1 RES1    0.0000
     22 N1         2.0128    3.2926    9.5340 N.pl3     1 RES1    0.0000
     23 O4         2.0333    2.9885   10.7173 O.2       1 RES1    0.0000
     24 O5         2.0503    4.4472    9.1347 O.2       1 RES1    0.0000
     25 O6         2.0718   -1.2915    3.1737 O.3       1 RES1    0.0000
     26 C19        3.1755   -1.8130    2.4219 C.3       1 RES1    0.0000
     27 H1        -1.8067   -0.2900    5.1657 H         1 RES1    0.0000
     28 H2        -1.7454    1.6838    6.3879 H         1 RES1    0.0000
     29 H3        -0.5986    2.2778    5.4569 H         1 RES1    0.0000
     30 H4        -0.1158   -0.9611    7.1046 H         1 RES1    0.0000
     31 H5        -0.6996   -1.0806    9.3484 H         1 RES1    0.0000
     32 H6        -0.5041    3.0291    9.6375 H         1 RES1    0.0000
     33 H7        -1.4968    2.3785    8.6015 H         1 RES1    0.0000
     34 H8         0.3987    3.1472    7.4219 H         1 RES1    0.0000
     35 H9         1.9980    1.3640    9.0332 H         1 RES1    0.0000
     36 H10        3.8437    2.2422    7.8525 H         1 RES1    0.0000
     37 H11        2.9276    3.2435    7.1244 H         1 RES1    0.0000
     38 H12        4.7170    1.2333    5.7929 H         1 RES1    0.0000
     39 H13        4.3940   -0.2814    4.0204 H         1 RES1    0.0000
     40 H14       -2.7684    0.5213    2.2666 H         1 RES1    0.0000
     41 H15       -1.9870   -0.7322    2.9188 H         1 RES1    0.0000
     42 H16       -1.1442   -0.1625    0.6907 H         1 RES1    0.0000
     43 H17       -0.7274    1.2891    1.2545 H         1 RES1    0.0000
     44 H18        0.0551    0.0027    1.8276 H         1 RES1    0.0000
     45 H19        2.7886   -2.4377    1.8037 H         1 RES1    0.0000
     46 H20        3.6272   -1.0838    1.8973 H         1 RES1    0.0000
     47 H21        3.8423   -2.2416    3.0124 H         1 RES1    0.0000
@<TRIPOS>BOND
     1    1    2 1
     2    2    3 1
     3    3    4 1
     4    4    5 1
     5    5    6 2
     6    6    7 1
     7    7    8 1
     8    8    9 1
     9    9    4 1
    10   10    9 1
    11   11   10 1
    12   12   11 1
    13   13   12 ar
    14   14   13 ar
    15   15   14 ar
    16   16    1 1
    17   17    4 1
    18   18    2 1
    19   19   18 1
    20   20   19 1
    21   21    7 2
    22   22   10 1
    23   23   22 2
    24   24   22 2
    25   25   15 1
    26   26   25 1
    27   27    2 1
    28   28    3 1
    29   29    3 1
    30   30    5 1
    31   31    6 1
    32   32    8 1
    33   33    8 1
    34   34    9 1
    35   35   10 1
    36   36   11 1
    37   37   11 1
    38   38   13 1
    39   39   14 1
    40   40   19 1
    41   41   19 1
    42   42   20 1
    43   43   20 1
    44   44   20 1
    45   45   26 1
    46   46   26 1
    47   47   26 1
    48   12   17 ar
    49   15   16 ar
    50   16   17 ar
@<TRIPOS>SUBSTRUCTURE
     1 RES1 1

@<TRIPOS>CRYSIN
   8.7189    9.8011   11.0087 106.7450  92.8900 109.4870   2 1

