# MOL2 file generated by ConQuest
# Please check atom types

@<TRIPOS>MOLECULE
OJAZEF
    45    48     1
SMALL
NO_CHARGES
****
Generated from CSD

@<TRIPOS>ATOM
      1 O1         6.3697    8.8716    4.7739 O.3       1 RES1    0.0000
      2 C1         6.3840   10.3089    4.5268 C.3       1 RES1    0.0000
      3 C2         5.3159   11.0283    5.3020 C.3       1 RES1    0.0000
      4 C3         5.3601   10.7033    6.8024 C.3       1 RES1    0.0000
      5 C4         6.7003   11.0748    7.4199 C.2       1 RES1    0.0000
      6 C5         6.8989   12.0076    8.3461 C.2       1 RES1    0.0000
      7 C6         5.8110   12.8851    8.7687 C.2       1 RES1    0.0000
      8 C7         4.6122   12.8847    7.8500 C.3       1 RES1    0.0000
      9 C8         4.1853   11.4391    7.5207 C.3       1 RES1    0.0000
     10 C9         3.7425   10.6848    8.7444 C.2       1 RES1    0.0000
     11 C10        4.0353    9.4127    9.0243 C.2       1 RES1    0.0000
     12 C11        4.7809    8.5875    8.0955 C.ar      1 RES1    0.0000
     13 C12        4.8692    7.2086    8.2641 C.ar      1 RES1    0.0000
     14 C13        5.4397    6.4177    7.2766 C.ar      1 RES1    0.0000
     15 C14        5.9135    6.9929    6.1132 C.ar      1 RES1    0.0000
     16 C15        5.8483    8.3977    5.9463 C.ar      1 RES1    0.0000
     17 C16        5.2960    9.1902    6.9342 C.ar      1 RES1    0.0000
     18 O2         6.1542   10.4931    3.1769 O.3       1 RES1    0.0000
     19 C17        7.2299   10.0929    2.3177 C.3       1 RES1    0.0000
     20 C18        7.0705   10.7497    0.9967 C.3       1 RES1    0.0000
     21 O3         5.8817   13.5761    9.7716 O.2       1 RES1    0.0000
     22 N1         2.7351   11.3248    9.5804 N.pl3     1 RES1    0.0000
     23 O4         2.0314   12.1991    9.0653 O.2       1 RES1    0.0000
     24 O5         2.5831   10.9588   10.7412 O.2       1 RES1    0.0000
     25 O6         6.4582    6.3222    5.0667 O.3       1 RES1    0.0000
     26 C19        6.4898    4.8892    5.1375 C.3       1 RES1    0.0000
     27 H1         7.2934   10.6016    4.7454 H         1 RES1    0.0000
     28 H2         4.4349   10.7497    4.9537 H         1 RES1    0.0000
     29 H3         5.4259   11.9624    5.1408 H         1 RES1    0.0000
     30 H4         7.4908   10.5559    7.1009 H         1 RES1    0.0000
     31 H5         7.7635   12.1326    8.7781 H         1 RES1    0.0000
     32 H6         4.8808   13.3855    6.9717 H         1 RES1    0.0000
     33 H7         3.9077   13.3727    8.2324 H         1 RES1    0.0000
     34 H8         3.4044   11.4668    6.9093 H         1 RES1    0.0000
     35 H9         3.6985    9.0176    9.8338 H         1 RES1    0.0000
     36 H10        4.5242    6.8464    9.0710 H         1 RES1    0.0000
     37 H11        5.4795    5.5002    7.3748 H         1 RES1    0.0000
     38 H12        7.2228    9.0395    2.1494 H         1 RES1    0.0000
     39 H13        8.1051   10.2540    2.7731 H         1 RES1    0.0000
     40 H14        7.8207   10.4790    0.3787 H         1 RES1    0.0000
     41 H15        6.2024   10.6455    0.6459 H         1 RES1    0.0000
     42 H16        7.1578   11.7740    1.2139 H         1 RES1    0.0000
     43 H17        6.8449    4.6240    4.2855 H         1 RES1    0.0000
     44 H18        7.0964    4.6258    5.8546 H         1 RES1    0.0000
     45 H19        5.5862    4.5527    5.2388 H         1 RES1    0.0000
@<TRIPOS>BOND
     1    1    2 1
     2    2    3 1
     3    3    4 1
     4    4    5 1
     5    5    6 2
     6    6    7 1
     7    7    8 1
     8    8    9 1
     9    9    4 1
    10   10    9 1
    11   11   10 2
    12   12   11 1
    13   13   12 ar
    14   14   13 ar
    15   15   14 ar
    16   16    1 1
    17   17    4 1
    18   18    2 1
    19   19   18 1
    20   20   19 1
    21   21    7 2
    22   22   10 1
    23   23   22 2
    24   24   22 2
    25   25   15 1
    26   26   25 1
    27   27    2 1
    28   28    3 1
    29   29    3 1
    30   30    5 1
    31   31    6 1
    32   32    8 1
    33   33    8 1
    34   34    9 1
    35   35   11 1
    36   36   13 1
    37   37   14 1
    38   38   19 1
    39   39   19 1
    40   40   20 1
    41   41   20 1
    42   42   20 1
    43   43   26 1
    44   44   26 1
    45   45   26 1
    46   12   17 ar
    47   15   16 ar
    48   16   17 ar
@<TRIPOS>SUBSTRUCTURE
     1 RES1 1

@<TRIPOS>CRYSIN
   8.4748   18.2912   11.1855  90.0000  95.3460  90.0000  14 1

