# MOL2 file generated by ConQuest
# Please check atom types

@<TRIPOS>MOLECULE
OJEJUK
    53    55     1
SMALL
NO_CHARGES
****
Generated from CSD

@<TRIPOS>ATOM
      1 O1        13.1640    3.3205    1.9026 O.2       1 RES1    0.0000
      2 N1        10.8480    2.9943    2.0063 N.am      1 RES1    0.0000
      3 C1        12.0859    3.5838    2.3629 C.2       1 RES1    0.0000
      4 C2        11.8173    4.6459    3.4437 C.3       1 RES1    0.0000
      5 N2        13.6017    7.7755    1.9292 N.pl3     1 RES1    0.0000
      6 O2        12.9060    8.6693    2.4355 O.2       1 RES1    0.0000
      7 C3        10.3589    4.4389    3.7322 C.ar      1 RES1    0.0000
      8 O3        14.3754    7.9219    1.0535 O.2       1 RES1    0.0000
      9 O4         9.4524    2.2549    0.3630 O.2       1 RES1    0.0000
     10 C4         9.5595    5.0541    4.6805 C.ar      1 RES1    0.0000
     11 H1         9.9233    5.7063    5.2685 H         1 RES1    0.0000
     12 O5        11.6757    1.8518    0.2540 O.3       1 RES1    0.0000
     13 C5         8.2217    4.7048    4.7585 C.ar      1 RES1    0.0000
     14 H2         7.6610    5.1195    5.4028 H         1 RES1    0.0000
     15 C6         7.7000    3.7532    3.9001 C.ar      1 RES1    0.0000
     16 H3         6.7815    3.5224    3.9673 H         1 RES1    0.0000
     17 C7         8.4931    3.1250    2.9364 C.ar      1 RES1    0.0000
     18 H4         8.1332    2.4662    2.3539 H         1 RES1    0.0000
     19 C8         9.8129    3.4967    2.8665 C.ar      1 RES1    0.0000
     20 C9        12.7267    4.3909    4.6496 C.3       1 RES1    0.0000
     21 H5        12.5906    5.0957    5.3166 H         1 RES1    0.0000
     22 H6        13.6624    4.3931    4.3593 H         1 RES1    0.0000
     23 H7        12.5089    3.5208    5.0444 H         1 RES1    0.0000
     24 C10       11.9994    6.0853    2.8257 C.3       1 RES1    0.0000
     25 H8        11.7161    6.7356    3.5308 H         1 RES1    0.0000
     26 C11       13.4375    6.3803    2.5281 C.3       1 RES1    0.0000
     27 H9        13.7874    5.7063    1.8929 H         1 RES1    0.0000
     28 H10       13.9666    6.3169    3.3638 H         1 RES1    0.0000
     29 C12       11.0507    6.2872    1.6452 C.ar      1 RES1    0.0000
     30 C13       11.3021    5.7740    0.3838 C.ar      1 RES1    0.0000
     31 H11       12.1404    5.3685    0.2005 H         1 RES1    0.0000
     32 C14       10.3340    5.8458   -0.6234 C.ar      1 RES1    0.0000
     33 H12       10.5083    5.4716   -1.4791 H         1 RES1    0.0000
     34 C15        9.1304    6.4596   -0.3693 C.ar      1 RES1    0.0000
     35 H13        8.4623    6.4961   -1.0426 H         1 RES1    0.0000
     36 C16        8.8993    7.0242    0.8720 C.ar      1 RES1    0.0000
     37 H14        8.0803    7.4762    1.0390 H         1 RES1    0.0000
     38 C17        9.8440    6.9341    1.8666 C.ar      1 RES1    0.0000
     39 H15        9.6677    7.3208    2.7168 H         1 RES1    0.0000
     40 C18       10.5679    2.3366    0.7922 C.2       1 RES1    0.0000
     41 C19       11.6195    1.2702   -1.1279 C.3       1 RES1    0.0000
     42 C20       13.0650    0.8691   -1.3702 C.3       1 RES1    0.0000
     43 H16       13.6351    1.6668   -1.3375 H         1 RES1    0.0000
     44 H17       13.1434    0.4472   -2.2513 H         1 RES1    0.0000
     45 H18       13.3492    0.2363   -0.6788 H         1 RES1    0.0000
     46 C21       11.1687    2.3218   -2.0853 C.3       1 RES1    0.0000
     47 H19       10.2401    2.5645   -1.8911 H         1 RES1    0.0000
     48 H20       11.2327    1.9793   -3.0008 H         1 RES1    0.0000
     49 H21       11.7394    3.1132   -1.9927 H         1 RES1    0.0000
     50 C22       10.7320    0.0400   -1.1152 C.3       1 RES1    0.0000
     51 H22       11.1002   -0.6233   -0.4945 H         1 RES1    0.0000
     52 H23       10.6911   -0.3442   -2.0163 H         1 RES1    0.0000
     53 H24        9.8296    0.2918   -0.8267 H         1 RES1    0.0000
@<TRIPOS>BOND
     1    1    3 2
     2    2    3 1
     3    3    4 1
     4    4    7 1
     5    5    6 2
     6    7   10 ar
     7    8    5 2
     8    9   40 2
     9   10   11 1
    10   12   40 1
    11   13   10 ar
    12   14   13 1
    13   15   13 ar
    14   16   15 1
    15   17   15 ar
    16   18   17 1
    17   19    2 1
    18   20    4 1
    19   21   20 1
    20   22   20 1
    21   23   20 1
    22   24    4 1
    23   25   24 1
    24   26    5 1
    25   27   26 1
    26   28   26 1
    27   29   24 1
    28   30   29 ar
    29   31   30 1
    30   32   30 ar
    31   33   32 1
    32   34   32 ar
    33   35   34 1
    34   36   34 ar
    35   37   36 1
    36   38   29 ar
    37   39   38 1
    38   40    2 1
    39   41   12 1
    40   42   41 1
    41   43   42 1
    42   44   42 1
    43   45   42 1
    44   46   41 1
    45   47   46 1
    46   48   46 1
    47   49   46 1
    48   50   41 1
    49   51   50 1
    50   52   50 1
    51   53   50 1
    52    7   19 ar
    53   17   19 ar
    54   24   26 1
    55   36   38 ar
@<TRIPOS>SUBSTRUCTURE
     1 RES1 1

@<TRIPOS>CRYSIN
  14.0628   15.8596    9.1818  90.0000  98.7790  90.0000   9 1

