# MOL2 file generated by ConQuest
# Please check atom types

@<TRIPOS>MOLECULE
OJIRIJ
    32    34     1
SMALL
NO_CHARGES
****
Generated from CSD

@<TRIPOS>ATOM
      1 N1        -0.5961    2.2200   12.3690 N.ar      1 RES1    0.0000
      2 N2        -0.9342    0.5197   10.1298 N.ar      1 RES1    0.0000
      3 O1         1.5538    3.9669   11.1771 O.2       1 RES1    0.0000
      4 O2        -2.4228    8.1414   11.0264 O.3       1 RES1    0.0000
      5 C1        -1.0001    2.6766   11.1974 C.ar      1 RES1    0.0000
      6 C2        -1.2950    4.1200   11.0931 C.ar      1 RES1    0.0000
      7 C3        -0.5126    0.0311   11.3391 C.ar      1 RES1    0.0000
      8 C4        -0.3677    0.8815   12.4588 C.ar      1 RES1    0.0000
      9 N3         0.9545    4.7596   11.8960 N.pl3     1 RES1    0.0000
     10 C5         0.0353    0.3246   13.6939 C.ar      1 RES1    0.0000
     11 H1         0.1304    0.8718   14.4394 H         1 RES1    0.0000
     12 C6        -2.9040    5.8904   10.6804 C.ar      1 RES1    0.0000
     13 H2        -3.7544    6.1483   10.4054 H         1 RES1    0.0000
     14 C7        -1.9916    6.8523   11.0910 C.ar      1 RES1    0.0000
     15 C8        -1.1816    1.8104   10.0876 C.ar      1 RES1    0.0000
     16 H3        -1.4918    2.1739    9.2906 H         1 RES1    0.0000
     17 C9        -0.4193    5.1209   11.5094 C.ar      1 RES1    0.0000
     18 C10       -2.5598    4.5570   10.6769 C.ar      1 RES1    0.0000
     19 H4        -3.1840    3.9300   10.3911 H         1 RES1    0.0000
     20 O3         1.4362    5.2811   12.8878 O.2       1 RES1    0.0000
     21 C11       -0.7274    6.4694   11.5252 C.ar      1 RES1    0.0000
     22 H5        -0.1085    7.0993   11.8170 H         1 RES1    0.0000
     23 C12       -0.2286   -1.3429   11.4673 C.ar      1 RES1    0.0000
     24 H6        -0.3099   -1.9060   10.7320 H         1 RES1    0.0000
     25 C13        0.2859   -1.0069   13.7966 C.ar      1 RES1    0.0000
     26 H7         0.5387   -1.3674   14.6157 H         1 RES1    0.0000
     27 C14        0.1646   -1.8435   12.6710 C.ar      1 RES1    0.0000
     28 H8         0.3551   -2.7500   12.7504 H         1 RES1    0.0000
     29 C15       -1.5295    9.1717   11.4331 C.3       1 RES1    0.0000
     30 H9        -1.2022    8.9817   12.3148 H         1 RES1    0.0000
     31 H10       -1.9916   10.0131   11.4372 H         1 RES1    0.0000
     32 H11       -0.7913    9.2163   10.8202 H         1 RES1    0.0000
@<TRIPOS>BOND
     1    1    5 ar
     2    2    7 ar
     3    3    9 2
     4    4   14 1
     5    5    6 1
     6    6   17 ar
     7    7    8 ar
     8    8    1 ar
     9    9   17 1
    10   10    8 ar
    11   11   10 1
    12   12   13 1
    13   14   12 ar
    14   15    2 ar
    15   16   15 1
    16   17   21 ar
    17   18    6 ar
    18   19   18 1
    19   20    9 2
    20   21   14 ar
    21   22   21 1
    22   23    7 ar
    23   24   23 1
    24   25   10 ar
    25   26   25 1
    26   27   23 ar
    27   28   27 1
    28   29    4 1
    29   30   29 1
    30   31   29 1
    31   32   29 1
    32    5   15 ar
    33   12   18 ar
    34   25   27 ar
@<TRIPOS>SUBSTRUCTURE
     1 RES1 1

@<TRIPOS>CRYSIN
   7.3130   13.8820   13.1120  90.0000  98.6470  90.0000 231 1

