# MOL2 file generated by ConQuest
# Please check atom types

@<TRIPOS>MOLECULE
OJOCEW
    62    67     1
SMALL
NO_CHARGES
****
Generated from CSD

@<TRIPOS>ATOM
      1 O1         3.7935    2.3215    2.0198 O.2       1 RES1    0.0000
      2 O2         2.0611    1.3920    2.8764 O.2       1 RES1    0.0000
      3 O3         7.0178    4.6358    4.9805 O.3       1 RES1    0.0000
      4 N1         1.1875    4.2104    4.2385 N.3       1 RES1    0.0000
      5 N2         2.9740    2.1893    2.9112 N.pl3     1 RES1    0.0000
      6 N3         5.8318    4.0871    4.3442 N.3       1 RES1    0.0000
      7 N4         6.4037    6.8760    4.4683 N.3       1 RES1    0.0000
      8 C1        -1.3274    5.4022    2.9437 C.ar      1 RES1    0.0000
      9 H1        -1.2711    4.5328    2.6163 H         1 RES1    0.0000
     10 C2        -1.9642    6.3555    2.2016 C.ar      1 RES1    0.0000
     11 H2        -2.3303    6.1339    1.3751 H         1 RES1    0.0000
     12 C3        -2.0645    7.6335    2.6723 C.ar      1 RES1    0.0000
     13 H3        -2.4868    8.2845    2.1608 H         1 RES1    0.0000
     14 C4        -1.5446    7.9527    3.8889 C.ar      1 RES1    0.0000
     15 H4        -1.6262    8.8183    4.2173 H         1 RES1    0.0000
     16 C5        -0.8927    6.9851    4.6396 C.ar      1 RES1    0.0000
     17 H5        -0.5386    7.2092    5.4699 H         1 RES1    0.0000
     18 C6        -0.7650    5.6987    4.1689 C.ar      1 RES1    0.0000
     19 C7        -0.0270    4.6462    4.9366 C.3       1 RES1    0.0000
     20 H6         0.2145    4.9958    5.8078 H         1 RES1    0.0000
     21 H7        -0.6089    3.8833    5.0714 H         1 RES1    0.0000
     22 C8         2.2080    5.2472    4.1366 C.3       1 RES1    0.0000
     23 H8         2.2962    5.7297    4.9736 H         1 RES1    0.0000
     24 H9         1.9902    5.8788    3.4325 H         1 RES1    0.0000
     25 C9         3.4989    4.4823    3.8069 C.3       1 RES1    0.0000
     26 H10        3.6550    4.5190    2.8403 H         1 RES1    0.0000
     27 C10        3.1818    3.0222    4.2115 C.3       1 RES1    0.0000
     28 C11        1.8589    3.1349    4.9366 C.3       1 RES1    0.0000
     29 H11        1.3541    2.3095    4.8721 H         1 RES1    0.0000
     30 H12        1.9912    3.3535    5.8714 H         1 RES1    0.0000
     31 C12        4.2771    2.3243    4.9623 C.ar      1 RES1    0.0000
     32 C13        4.0120    1.1379    5.6371 C.ar      1 RES1    0.0000
     33 H13        3.1534    0.7790    5.6151 H         1 RES1    0.0000
     34 C14        5.0000    0.4870    6.3356 C.ar      1 RES1    0.0000
     35 H14        4.8087   -0.3002    6.7919 H         1 RES1    0.0000
     36 C15        6.2680    1.0039    6.3572 C.ar      1 RES1    0.0000
     37 H15        6.9396    0.5632    6.8251 H         1 RES1    0.0000
     38 C16        6.5531    2.1730    5.6905 C.ar      1 RES1    0.0000
     39 H16        7.4197    2.5097    5.7043 H         1 RES1    0.0000
     40 C17        5.5673    2.8511    5.0013 C.ar      1 RES1    0.0000
     41 C18        4.7173    5.0390    4.5309 C.3       1 RES1    0.0000
     42 H17        4.5193    5.1332    5.4861 H         1 RES1    0.0000
     43 C19        5.1330    6.3908    3.9539 C.3       1 RES1    0.0000
     44 H18        5.1943    6.3145    2.9893 H         1 RES1    0.0000
     45 H19        4.4436    7.0424    4.1546 H         1 RES1    0.0000
     46 C20        7.3760    5.8498    4.2951 C.3       1 RES1    0.0000
     47 H20        8.2314    6.1634    4.6282 H         1 RES1    0.0000
     48 H21        7.4759    5.6630    3.3480 H         1 RES1    0.0000
     49 C21        6.3043    7.3721    5.8429 C.3       1 RES1    0.0000
     50 H22        6.1970    6.6186    6.4436 H         1 RES1    0.0000
     51 H23        5.5132    7.9274    5.9207 H         1 RES1    0.0000
     52 C22        7.5058    8.1682    6.2671 C.ar      1 RES1    0.0000
     53 C23        7.8911    9.2963    5.5705 C.ar      1 RES1    0.0000
     54 H24        7.4292    9.5384    4.8009 H         1 RES1    0.0000
     55 C24        8.9404   10.0621    5.9966 C.ar      1 RES1    0.0000
     56 H25        9.1811   10.8237    5.5193 H         1 RES1    0.0000
     57 C25        9.6322    9.7193    7.1126 C.ar      1 RES1    0.0000
     58 H26       10.3481   10.2409    7.3973 H         1 RES1    0.0000
     59 C26        9.2747    8.6083    7.8120 C.ar      1 RES1    0.0000
     60 H27        9.7498    8.3669    8.5750 H         1 RES1    0.0000
     61 C27        8.2047    7.8344    7.3916 C.ar      1 RES1    0.0000
     62 H28        7.9608    7.0817    7.8794 H         1 RES1    0.0000
@<TRIPOS>BOND
     1    1    5 2
     2    2    5 2
     3    3    6 1
     4    4   19 1
     5    5   27 1
     6    6   40 1
     7    7   43 1
     8    8    9 1
     9   10    8 ar
    10   11   10 1
    11   12   10 ar
    12   13   12 1
    13   14   12 ar
    14   15   14 1
    15   16   14 ar
    16   17   16 1
    17   18    8 ar
    18   19   18 1
    19   20   19 1
    20   21   19 1
    21   22    4 1
    22   23   22 1
    23   24   22 1
    24   25   22 1
    25   26   25 1
    26   27   25 1
    27   28    4 1
    28   29   28 1
    29   30   28 1
    30   31   27 1
    31   32   31 ar
    32   33   32 1
    33   34   32 ar
    34   35   34 1
    35   36   34 ar
    36   37   36 1
    37   38   36 ar
    38   39   38 1
    39   40   31 ar
    40   41    6 1
    41   42   41 1
    42   43   41 1
    43   44   43 1
    44   45   43 1
    45   46    3 1
    46   47   46 1
    47   48   46 1
    48   49    7 1
    49   50   49 1
    50   51   49 1
    51   52   49 1
    52   53   52 ar
    53   54   53 1
    54   55   53 ar
    55   56   55 1
    56   57   55 ar
    57   58   57 1
    58   59   57 ar
    59   60   59 1
    60   61   52 ar
    61   62   61 1
    62    7   46 1
    63   16   18 ar
    64   25   41 1
    65   27   28 1
    66   38   40 ar
    67   59   61 ar
@<TRIPOS>SUBSTRUCTURE
     1 RES1 1

@<TRIPOS>CRYSIN
  12.6743   19.6223    9.6475  90.0000 100.3730  90.0000  14 1

