# MOL2 file generated by ConQuest
# Please check atom types

@<TRIPOS>MOLECULE
OJOLAC
    23    23     1
SMALL
NO_CHARGES
****
Generated from CSD

@<TRIPOS>ATOM
      1 C1         2.9640    9.2634   -0.2017 C.3       1 RES1    0.0000
      2 H1         2.9526    8.6997   -0.9905 H         1 RES1    0.0000
      3 H2         3.1630   10.1730   -0.4717 H         1 RES1    0.0000
      4 C2         1.6153    9.2013    0.5224 C.3       1 RES1    0.0000
      5 C3         4.1814    9.7467    1.7720 C.3       1 RES1    0.0000
      6 C4         1.8043    9.7183    1.9572 C.3       1 RES1    0.0000
      7 H3         1.0425   10.2606    2.2150 H         1 RES1    0.0000
      8 H4         1.8682    8.9705    2.5714 H         1 RES1    0.0000
      9 C5         4.5867    8.9288    2.9689 C.3       1 RES1    0.0000
     10 H5         3.8858    8.3094    3.1855 H         1 RES1    0.0000
     11 H6         4.7416    9.5110    3.7172 H         1 RES1    0.0000
     12 H7         5.3918    8.4448    2.7679 H         1 RES1    0.0000
     13 C6         5.2182   10.7392    1.3414 C.3       1 RES1    0.0000
     14 H8         4.9079   11.2083    0.5635 H         1 RES1    0.0000
     15 H9         6.0351   10.2795    1.1340 H         1 RES1    0.0000
     16 H10        5.3753   11.3656    2.0515 H         1 RES1    0.0000
     17 N1         0.6152    9.9646   -0.2357 N.2       1 RES1    0.0000
     18 N2         1.1274    7.7511    0.4662 N.pl3     1 RES1    0.0000
     19 O1         0.9035   10.6227   -1.2667 O.2       1 RES1    0.0000
     20 O2         3.9212    8.8015    0.7218 O.3       1 RES1    0.0000
     21 O3         2.9814   10.4870    2.0163 O.3       1 RES1    0.0000
     22 O4         0.5440    7.4187   -0.5410 O.2       1 RES1    0.0000
     23 O5         1.4103    7.0298    1.3870 O.2       1 RES1    0.0000
@<TRIPOS>BOND
     1    1    2 1
     2    3    1 1
     3    4    1 1
     4    5    9 1
     5    6    4 1
     6    7    6 1
     7    8    6 1
     8    9   10 1
     9   11    9 1
    10   12    9 1
    11   13    5 1
    12   14   13 1
    13   15   13 1
    14   16   13 1
    15   17    4 1
    16   18    4 1
    17   19   17 2
    18   20    1 1
    19   21    5 1
    20   22   18 2
    21   23   18 2
    22    5   20 1
    23    6   21 1
@<TRIPOS>SUBSTRUCTURE
     1 RES1 1

@<TRIPOS>CRYSIN
  14.5150    9.9550   11.8970  90.0000  98.6000  90.0000  15 1

