# MOL2 file generated by ConQuest
# Please check atom types

@<TRIPOS>MOLECULE
OJUHOS
    51    53     1
SMALL
NO_CHARGES
****
Generated from CSD

@<TRIPOS>ATOM
      1 N1         1.6436    7.9981   13.5925 N.3       1 RES1    0.0000
      2 H1         1.2818    7.5344   14.2651 H         1 RES1    0.0000
      3 C1         1.0973    7.6333   12.2812 C.3       1 RES1    0.0000
      4 H2         0.2567    7.1424   12.3935 H         1 RES1    0.0000
      5 C2         0.8217    9.0199   11.5944 C.3       1 RES1    0.0000
      6 C3         1.6298    9.9984   12.4456 C.3       1 RES1    0.0000
      7 H3         2.5589   10.0217   12.1690 H         1 RES1    0.0000
      8 H4         1.2604   10.8948   12.3998 H         1 RES1    0.0000
      9 C4         1.4830    9.4118   13.8353 C.3       1 RES1    0.0000
     10 H5         0.5846    9.5918   14.1829 H         1 RES1    0.0000
     11 C5         2.1074    6.7728   11.4960 C.ar      1 RES1    0.0000
     12 C6         3.4621    7.0646   11.6285 C.ar      1 RES1    0.0000
     13 H6         3.7353    7.7420   12.2038 H         1 RES1    0.0000
     14 C7         4.4075    6.3491   10.9059 C.ar      1 RES1    0.0000
     15 H7         5.3115    6.5494   10.9976 H         1 RES1    0.0000
     16 C8         4.0049    5.3354   10.0476 C.ar      1 RES1    0.0000
     17 H8         4.6386    4.8544    9.5654 H         1 RES1    0.0000
     18 C9         2.6575    5.0392    9.9078 C.ar      1 RES1    0.0000
     19 H9         2.3868    4.3619    9.3315 H         1 RES1    0.0000
     20 C10        1.7126    5.7594   10.6321 C.ar      1 RES1    0.0000
     21 N2         0.3270    5.3405   10.4655 N.pl3     1 RES1    0.0000
     22 O1        -0.3566    5.1738   11.4510 O.2       1 RES1    0.0000
     23 O2        -0.0797    5.1819    9.3406 O.2       1 RES1    0.0000
     24 C11       -0.6678    9.3657   11.6823 C.2       1 RES1    0.0000
     25 O3        -1.4873    8.7555   12.3076 O.2       1 RES1    0.0000
     26 O4        -0.9270   10.4649   11.0024 O.3       1 RES1    0.0000
     27 C12       -2.3121   10.9053   10.9703 C.3       1 RES1    0.0000
     28 H10       -2.8864   10.1469   10.8411 H         1 RES1    0.0000
     29 H11       -2.4346   11.5257   10.2483 H         1 RES1    0.0000
     30 H12       -2.5312   11.3346   11.8007 H         1 RES1    0.0000
     31 C13        1.2311    9.0321   10.1277 C.2       1 RES1    0.0000
     32 O5         2.1991    9.5973    9.6898 O.2       1 RES1    0.0000
     33 O6         0.3869    8.3012    9.4070 O.3       1 RES1    0.0000
     34 C14        0.6941    8.1834    7.9824 C.3       1 RES1    0.0000
     35 H13        0.0402    7.6217    7.5594 H         1 RES1    0.0000
     36 H14        1.5656    7.7963    7.8740 H         1 RES1    0.0000
     37 H15        0.6773    9.0548    7.5783 H         1 RES1    0.0000
     38 C15        2.5571    9.9272   14.8404 C.ar      1 RES1    0.0000
     39 C16        2.2238   10.9439   15.7282 C.ar      1 RES1    0.0000
     40 H16        1.3533   11.2703   15.7542 H         1 RES1    0.0000
     41 C17        3.1874   11.4735   16.5766 C.ar      1 RES1    0.0000
     42 H17        2.9624   12.1549   17.1690 H         1 RES1    0.0000
     43 C18        4.4902   10.9852   16.5413 C.ar      1 RES1    0.0000
     44 C19        4.8208    9.9750   15.6573 C.ar      1 RES1    0.0000
     45 H18        5.6918    9.6478   15.6325 H         1 RES1    0.0000
     46 C20        3.8576    9.4442   14.8056 C.ar      1 RES1    0.0000
     47 H19        4.0850    8.7649   14.2130 H         1 RES1    0.0000
     48 C21        5.5478   11.6177   17.4191 C.3       1 RES1    0.0000
     49 H20        5.5790   12.5634   17.2528 H         1 RES1    0.0000
     50 H21        6.4037   11.2292   17.2196 H         1 RES1    0.0000
     51 H22        5.3331   11.4614   18.3420 H         1 RES1    0.0000
@<TRIPOS>BOND
     1    1    2 1
     2    3    1 1
     3    4    3 1
     4    5    3 1
     5    6    5 1
     6    7    6 1
     7    8    6 1
     8    9    1 1
     9   10    9 1
    10   11    3 1
    11   12   11 ar
    12   13   12 1
    13   14   12 ar
    14   15   14 1
    15   16   14 ar
    16   17   16 1
    17   18   16 ar
    18   19   18 1
    19   20   11 ar
    20   21   20 1
    21   22   21 2
    22   23   21 2
    23   24    5 1
    24   25   24 2
    25   26   24 1
    26   27   26 1
    27   28   27 1
    28   29   27 1
    29   30   27 1
    30   31    5 1
    31   32   31 2
    32   33   31 1
    33   34   33 1
    34   35   34 1
    35   36   34 1
    36   37   34 1
    37   38    9 1
    38   39   38 ar
    39   40   39 1
    40   41   39 ar
    41   42   41 1
    42   43   41 ar
    43   44   43 ar
    44   45   44 1
    45   46   38 ar
    46   47   46 1
    47   48   43 1
    48   49   48 1
    49   50   48 1
    50   51   48 1
    51    6    9 1
    52   18   20 ar
    53   44   46 ar
@<TRIPOS>SUBSTRUCTURE
     1 RES1 1

@<TRIPOS>CRYSIN
   7.7936   16.4723   15.9747  90.0000  98.2850  90.0000 231 1

