# MOL2 file generated by ConQuest
# Please check atom types

@<TRIPOS>MOLECULE
OJUNUC
    40    41     1
SMALL
NO_CHARGES
****
Generated from CSD

@<TRIPOS>ATOM
      1 N1         2.9278    5.6854    2.5977 N.3       1 RES1    0.0000
      2 N2         2.0968    6.0077    1.5153 N.2       1 RES1    0.0000
      3 C1         1.8369    5.0538    0.6735 C.2       1 RES1    0.0000
      4 C2         2.4348    3.7316    0.7212 C.2       1 RES1    0.0000
      5 H1         3.2052    3.6035    1.2671 H         1 RES1    0.0000
      6 N3         1.9193    2.7730    0.0315 N.2       1 RES1    0.0000
      7 N4         2.4873    1.5683    0.0565 N.3       1 RES1    0.0000
      8 C3         1.8492    0.5588   -0.7066 C.3       1 RES1    0.0000
      9 H2         1.7193   -0.1965   -0.4119 H         1 RES1    0.0000
     10 H3         1.2197    0.9115   -1.2033 H         1 RES1    0.0000
     11 H4         2.5275    0.0733   -1.4052 H         1 RES1    0.0000
     12 C4         3.6419    1.2783    0.8577 C.3       1 RES1    0.0000
     13 H5         3.7854    0.4046    0.8641 H         1 RES1    0.0000
     14 H6         4.3375    1.9257    0.6218 H         1 RES1    0.0000
     15 H7         3.3265    1.4691    1.8655 H         1 RES1    0.0000
     16 C5         2.3628    4.7838    3.6115 C.3       1 RES1    0.0000
     17 H8         2.3580    3.9212    3.3999 H         1 RES1    0.0000
     18 H9         1.4792    4.9010    3.5776 H         1 RES1    0.0000
     19 C6         2.9175    5.2304    4.9125 C.3       1 RES1    0.0000
     20 H10        3.1973    4.4262    5.4674 H         1 RES1    0.0000
     21 H11        2.2683    5.4913    5.5320 H         1 RES1    0.0000
     22 C7         3.8433    6.3731    4.6121 C.3       1 RES1    0.0000
     23 H12        4.0891    7.0498    5.3058 H         1 RES1    0.0000
     24 H13        2.9166    7.0888    4.9020 H         1 RES1    0.0000
     25 C8         3.3585    6.8936    3.2990 C.3       1 RES1    0.0000
     26 H14        4.0489    7.3903    2.8104 H         1 RES1    0.0000
     27 H15        2.5858    7.5093    3.2949 H         1 RES1    0.0000
     28 C9         0.9488    5.4402   -0.4506 C.ar      1 RES1    0.0000
     29 C10       -0.1996    6.2022   -0.2148 C.ar      1 RES1    0.0000
     30 H16       -0.4373    6.3611    0.6622 H         1 RES1    0.0000
     31 C11       -1.0003    6.6166   -1.2485 C.ar      1 RES1    0.0000
     32 H17       -1.8460    7.1271   -1.0579 H         1 RES1    0.0000
     33 C12       -0.6399    6.2796   -2.5318 C.ar      1 RES1    0.0000
     34 C13        0.4828    5.5332   -2.8104 C.ar      1 RES1    0.0000
     35 H18        0.7520    5.2715   -3.7714 H         1 RES1    0.0000
     36 C14        1.2649    5.1126   -1.7589 C.ar      1 RES1    0.0000
     37 H19        2.0322    4.6075   -1.9301 H         1 RES1    0.0000
     38 N5        -1.4748    6.7271   -3.6697 N.pl3     1 RES1    0.0000
     39 O1        -1.2001    6.3185   -4.7898 O.2       1 RES1    0.0000
     40 O2        -2.3878    7.4945   -3.4266 O.2       1 RES1    0.0000
@<TRIPOS>BOND
     1    1    2 1
     2    2    3 2
     3    3    4 1
     4    4    5 1
     5    6    4 2
     6    7    6 1
     7    8    7 1
     8    9    8 1
     9   10    8 1
    10   11    8 1
    11   12    7 1
    12   13   12 1
    13   14   12 1
    14   15   12 1
    15   16    1 1
    16   17   16 1
    17   18   16 1
    18   19   16 1
    19   20   19 1
    20   21   19 1
    21   22   19 1
    22   23   22 1
    23   24   22 1
    24   25    1 1
    25   26   25 1
    26   27   25 1
    27   28    3 1
    28   29   28 ar
    29   30   29 1
    30   31   29 ar
    31   32   31 1
    32   33   31 ar
    33   34   33 ar
    34   35   34 1
    35   36   28 ar
    36   37   36 1
    37   38   33 1
    38   39   38 2
    39   40   38 2
    40   22   25 1
    41   34   36 ar
@<TRIPOS>SUBSTRUCTURE
     1 RES1 1

@<TRIPOS>CRYSIN
   9.8212    9.9351   10.1398 116.6130 106.5770 104.0490   2 1

