# MOL2 file generated by ConQuest
# Please check atom types

@<TRIPOS>MOLECULE
OKIGAQ
    44    44     1
SMALL
NO_CHARGES
****
Generated from CSD

@<TRIPOS>ATOM
      1 O1        10.0392   -1.9384    5.6909 O.2       1 RES1    0.0000
      2 O2        11.3189    0.2173    4.0162 O.2       1 RES1    0.0000
      3 O3         9.5529   -0.5585    3.0359 O.2       1 RES1    0.0000
      4 O4         9.2350    2.4925    3.3602 O.3       1 RES1    0.0000
      5 O5         5.9656    2.2618    8.1880 O.2       1 RES1    0.0000
      6 O6         7.0263    4.0673    7.6723 O.2       1 RES1    0.0000
      7 O7         7.8044    0.2300    8.1984 O.3       1 RES1    0.0000
      8 N1        10.1114    0.0732    3.9051 N.pl3     1 RES1    0.0000
      9 N2         6.8515    2.8726    7.5994 N.pl3     1 RES1    0.0000
     10 C1         8.9589    0.1344    6.1116 C.ar      1 RES1    0.0000
     11 C2         9.2607    0.7572    4.9107 C.ar      1 RES1    0.0000
     12 C3         8.8434    2.0213    4.5765 C.ar      1 RES1    0.0000
     13 C4         8.0617    2.7120    5.4906 C.ar      1 RES1    0.0000
     14 H1         7.7595    3.5707    5.3000 H         1 RES1    0.0000
     15 C5         7.7388    2.1064    6.6871 C.ar      1 RES1    0.0000
     16 C6         8.1701    0.8393    7.0257 C.ar      1 RES1    0.0000
     17 C7         9.4060   -1.2433    6.4243 C.2       1 RES1    0.0000
     18 H2         9.1753   -1.5920    7.2558 H         1 RES1    0.0000
     19 C8         8.8090    3.7873    2.9554 C.3       1 RES1    0.0000
     20 H3         9.1605    3.9814    2.0839 H         1 RES1    0.0000
     21 H4         9.1300    4.4399    3.5822 H         1 RES1    0.0000
     22 H5         7.8502    3.8149    2.9285 H         1 RES1    0.0000
     23 C9         8.6447    0.5234    9.3403 C.3       1 RES1    0.0000
     24 H6         8.7878    1.4807    9.4077 H         1 RES1    0.0000
     25 H7         9.5072    0.0933    9.2352 H         1 RES1    0.0000
     26 C10        7.9815    0.0269   10.5647 C.3       1 RES1    0.0000
     27 H8         7.2022    0.5809   10.7282 H         1 RES1    0.0000
     28 H9         8.5899    0.1583   11.3086 H         1 RES1    0.0000
     29 C11        7.5446   -1.3963   10.5734 C.3       1 RES1    0.0000
     30 H10        8.3238   -1.9534   10.4248 H         1 RES1    0.0000
     31 H11        6.9437   -1.5330    9.8235 H         1 RES1    0.0000
     32 C12        6.8571   -1.8727   11.8169 C.3       1 RES1    0.0000
     33 H12        6.0945   -1.2970   11.9832 H         1 RES1    0.0000
     34 H13        7.4690   -1.7682   12.5611 H         1 RES1    0.0000
     35 C13        6.3768   -3.3012   11.7952 C.3       1 RES1    0.0000
     36 H14        5.7508   -3.4012   11.0628 H         1 RES1    0.0000
     37 H15        7.1362   -3.8754   11.6093 H         1 RES1    0.0000
     38 C14        5.7243   -3.7783   13.0338 C.3       1 RES1    0.0000
     39 H16        4.9599   -3.2093   13.2147 H         1 RES1    0.0000
     40 H17        6.3484   -3.6708   13.7691 H         1 RES1    0.0000
     41 C15        5.2591   -5.2023   13.0134 C.3       1 RES1    0.0000
     42 H18        4.8517   -5.4188   13.8553 H         1 RES1    0.0000
     43 H19        6.0100   -5.7817   12.8618 H         1 RES1    0.0000
     44 H20        4.6189   -5.3195   12.3074 H         1 RES1    0.0000
@<TRIPOS>BOND
     1    1   17 2
     2    2    8 2
     3    3    8 2
     4    4   12 1
     5    5    9 2
     6    6    9 2
     7    7   16 1
     8    8   11 1
     9    9   15 1
    10   10   11 ar
    11   11   12 ar
    12   12   13 ar
    13   13   14 1
    14   15   13 ar
    15   16   10 ar
    16   17   10 1
    17   18   17 1
    18   19    4 1
    19   20   19 1
    20   21   19 1
    21   22   19 1
    22   23    7 1
    23   24   23 1
    24   25   23 1
    25   26   23 1
    26   27   26 1
    27   28   26 1
    28   29   26 1
    29   30   29 1
    30   31   29 1
    31   32   29 1
    32   33   32 1
    33   34   32 1
    34   35   32 1
    35   36   35 1
    36   37   35 1
    37   38   35 1
    38   39   38 1
    39   40   38 1
    40   41   38 1
    41   42   41 1
    42   43   41 1
    43   44   41 1
    44   15   16 ar
@<TRIPOS>SUBSTRUCTURE
     1 RES1 1

@<TRIPOS>CRYSIN
   8.8860    7.4670   26.2020  90.0000  93.7100  90.0000 231 1

