# MOL2 file generated by ConQuest
# Please check atom types

@<TRIPOS>MOLECULE
OKIPUT
    35    38     1
SMALL
NO_CHARGES
****
Generated from CSD

@<TRIPOS>ATOM
      1 O1        -3.1193   -0.4279   -7.5227 O.3       1 RES1    0.0000
      2 O2        -2.6121   -4.9573   -3.7321 O.3       1 RES1    0.0000
      3 N1        -3.3238   -1.3818   -6.4712 N.2       1 RES1    0.0000
      4 N2        -3.4821   -4.7632   -4.8383 N.2       1 RES1    0.0000
      5 C1        -4.9701   -3.0892   -5.8015 C.3       1 RES1    0.0000
      6 C2        -5.4264   -4.2414   -6.7350 C.3       1 RES1    0.0000
      7 C3        -6.3484   -3.7780   -7.8623 C.3       1 RES1    0.0000
      8 C4        -5.6402   -2.7594   -8.7488 C.3       1 RES1    0.0000
      9 C5        -5.1653   -1.5592   -7.9275 C.3       1 RES1    0.0000
     10 C6        -4.0863   -0.6972   -8.5665 C.3       1 RES1    0.0000
     11 C7        -4.4213   -1.9934   -6.6774 C.2       1 RES1    0.0000
     12 C8        -6.1635   -2.5402   -4.9611 C.3       1 RES1    0.0000
     13 C9        -5.7326   -1.6156   -3.8194 C.3       1 RES1    0.0000
     14 C10       -4.7552   -2.2981   -2.8581 C.3       1 RES1    0.0000
     15 C11       -3.5110   -2.7552   -3.6265 C.3       1 RES1    0.0000
     16 C12       -2.6017   -3.7509   -2.9233 C.3       1 RES1    0.0000
     17 C13       -3.9373   -3.5776   -4.8143 C.2       1 RES1    0.0000
     18 H1        -4.4132    0.1879   -8.9032 H         1 RES1    0.0000
     19 H2        -3.6045   -1.1271   -9.2870 H         1 RES1    0.0000
     20 H3        -5.9382   -1.0437   -7.6656 H         1 RES1    0.0000
     21 H4        -6.2733   -2.4630   -9.4789 H         1 RES1    0.0000
     22 H5        -4.8060   -3.2144   -9.1527 H         1 RES1    0.0000
     23 H6        -6.6892   -4.5921   -8.4619 H         1 RES1    0.0000
     24 H7        -7.1744   -3.4649   -7.5601 H         1 RES1    0.0000
     25 H8        -4.6212   -4.6129   -7.1092 H         1 RES1    0.0000
     26 H9        -5.8805   -4.8634   -6.1977 H         1 RES1    0.0000
     27 H10       -1.6752   -3.4858   -2.8878 H         1 RES1    0.0000
     28 H11       -2.9691   -3.9867   -2.0819 H         1 RES1    0.0000
     29 H12       -2.9922   -1.9829   -3.9431 H         1 RES1    0.0000
     30 H13       -5.1642   -3.0683   -2.4465 H         1 RES1    0.0000
     31 H14       -4.4941   -1.6490   -2.1682 H         1 RES1    0.0000
     32 H15       -6.5506   -1.2941   -3.3195 H         1 RES1    0.0000
     33 H16       -5.2797   -0.8349   -4.1542 H         1 RES1    0.0000
     34 H17       -6.6892   -3.2979   -4.6435 H         1 RES1    0.0000
     35 H18       -6.8163   -2.1082   -5.5837 H         1 RES1    0.0000
@<TRIPOS>BOND
     1    1    3 1
     2    2    4 1
     3    3   11 2
     4    4   17 2
     5    5    6 1
     6    6    7 1
     7    7    8 1
     8    8    9 1
     9    9   10 1
    10   10    1 1
    11   11    5 1
    12   12    5 1
    13   13   12 1
    14   14   13 1
    15   15   14 1
    16   16    2 1
    17   17    5 1
    18   18   10 1
    19   19   10 1
    20   20    9 1
    21   21    8 1
    22   22    8 1
    23   23    7 1
    24   24    7 1
    25   25    6 1
    26   26    6 1
    27   27   16 1
    28   28   16 1
    29   29   15 1
    30   30   14 1
    31   31   14 1
    32   32   13 1
    33   33   13 1
    34   34   12 1
    35   35   12 1
    36    9   11 1
    37   15   16 1
    38   15   17 1
@<TRIPOS>SUBSTRUCTURE
     1 RES1 1

@<TRIPOS>CRYSIN
  11.5530   20.8730    9.5940  90.0000  90.0000  90.0000  61 1

