# MOL2 file generated by ConQuest
# Please check atom types

@<TRIPOS>MOLECULE
OKUBAX
    47    48     1
SMALL
NO_CHARGES
****
Generated from CSD

@<TRIPOS>ATOM
      1 O1        -0.1051   -0.8197  -22.0965 O.2       1 RES1    0.0000
      2 O2        -1.9063   -1.8777  -21.7354 O.2       1 RES1    0.0000
      3 O3         0.6070    1.4941  -17.4169 O.3       1 RES1    0.0000
      4 O4        -1.1588    2.8339  -16.7457 O.3       1 RES1    0.0000
      5 N1        -1.2194   -0.8977  -21.6398 N.pl3     1 RES1    0.0000
      6 C1        -0.3825   -1.9332  -18.6418 C.ar      1 RES1    0.0000
      7 C2        -0.5704   -3.0916  -17.9214 C.ar      1 RES1    0.0000
      8 C3        -1.7442   -3.2744  -17.2297 C.ar      1 RES1    0.0000
      9 C4        -2.7210   -2.3063  -17.2755 C.ar      1 RES1    0.0000
     10 C5        -2.5169   -1.1509  -17.9902 C.ar      1 RES1    0.0000
     11 C6        -1.3371   -0.9381  -18.6857 C.ar      1 RES1    0.0000
     12 C7        -1.0567    0.3057  -19.4863 C.3       1 RES1    0.0000
     13 C8        -1.7430    0.2952  -20.8717 C.3       1 RES1    0.0000
     14 C9        -3.2542    0.2787  -20.8736 C.3       1 RES1    0.0000
     15 C10       -1.3593    1.6260  -18.7641 C.3       1 RES1    0.0000
     16 C11       -0.8622    2.8249  -19.5704 C.3       1 RES1    0.0000
     17 C12       -0.7937    1.6275  -17.3634 C.3       1 RES1    0.0000
     18 C13        1.2038    1.4506  -16.1061 C.3       1 RES1    0.0000
     19 C14        0.9390    0.1454  -15.3972 C.3       1 RES1    0.0000
     20 C15        0.7523    2.6675  -15.3132 C.3       1 RES1    0.0000
     21 C16       -0.7349    2.8683  -15.3628 C.3       1 RES1    0.0000
     22 C17       -1.2092    4.1721  -14.7781 C.3       1 RES1    0.0000
     23 H1         0.4365   -1.8148  -19.1156 H         1 RES1    0.0000
     24 H2         0.0883   -3.7855  -17.9080 H         1 RES1    0.0000
     25 H3        -1.8829   -4.0852  -16.7405 H         1 RES1    0.0000
     26 H4        -3.4961   -2.4547  -16.7577 H         1 RES1    0.0000
     27 H5        -3.2187   -0.4796  -18.0131 H         1 RES1    0.0000
     28 H6        -0.1099    0.3387  -19.6660 H         1 RES1    0.0000
     29 H7        -1.4512    1.0955  -21.3455 H         1 RES1    0.0000
     30 H8        -3.5664   -0.4616  -20.4035 H         1 RES1    0.0000
     31 H9        -3.5790    0.2907  -21.7602 H         1 RES1    0.0000
     32 H10       -3.5778    1.0895  -20.4303 H         1 RES1    0.0000
     33 H11       -2.3121    1.6769  -18.7106 H         1 RES1    0.0000
     34 H12        0.0865    2.7949  -19.6621 H         1 RES1    0.0000
     35 H13       -1.2458    2.8159  -20.4570 H         1 RES1    0.0000
     36 H14       -1.1113    3.6356  -19.1481 H         1 RES1    0.0000
     37 H15       -1.1840    0.8992  -16.8666 H         1 RES1    0.0000
     38 H16        2.1566    1.5046  -16.2055 H         1 RES1    0.0000
     39 H17       -0.0150    0.0644  -15.2616 H         1 RES1    0.0000
     40 H18        1.3635    0.1334  -14.5546 H         1 RES1    0.0000
     41 H19        1.2314   -0.5740  -15.9284 H         1 RES1    0.0000
     42 H20        1.0513    2.5266  -14.3979 H         1 RES1    0.0000
     43 H21        1.2044    3.4153  -15.6609 H         1 RES1    0.0000
     44 H22       -1.1690    2.1385  -14.8775 H         1 RES1    0.0000
     45 H23       -0.9600    4.1916  -13.8399 H         1 RES1    0.0000
     46 H24       -2.1362    4.2380  -14.8507 H         1 RES1    0.0000
     47 H25       -0.7697    4.8719  -15.2195 H         1 RES1    0.0000
@<TRIPOS>BOND
     1    1    5 2
     2    2    5 2
     3    3   17 1
     4    4   17 1
     5    5   13 1
     6    6    7 ar
     7    7    8 ar
     8    8    9 ar
     9    9   10 ar
    10   10   11 ar
    11   11    6 ar
    12   12   11 1
    13   13   12 1
    14   14   13 1
    15   15   12 1
    16   16   15 1
    17   17   15 1
    18   18    3 1
    19   19   18 1
    20   20   18 1
    21   21    4 1
    22   22   21 1
    23   23    6 1
    24   24    7 1
    25   25    8 1
    26   26    9 1
    27   27   10 1
    28   28   12 1
    29   29   13 1
    30   30   14 1
    31   31   14 1
    32   32   14 1
    33   33   15 1
    34   34   16 1
    35   35   16 1
    36   36   16 1
    37   37   17 1
    38   38   18 1
    39   39   19 1
    40   40   19 1
    41   41   19 1
    42   42   20 1
    43   43   20 1
    44   44   21 1
    45   45   22 1
    46   46   22 1
    47   47   22 1
    48   20   21 1
@<TRIPOS>SUBSTRUCTURE
     1 RES1 1

@<TRIPOS>CRYSIN
   6.0040   14.9860   19.1080  90.0000  90.0000  90.0000  19 1

