# MOL2 file generated by ConQuest
# Please check atom types

@<TRIPOS>MOLECULE
OKUHAD
    26    26     1
SMALL
NO_CHARGES
****
Generated from CSD

@<TRIPOS>ATOM
      1 C1         5.2956    1.3707    5.5377 C.ar      1 RES1    0.0000
      2 O1         4.8039   -0.0386    8.8352 O.3       1 RES1    0.0000
      3 O2         4.8693    2.8402    1.6651 O.3       1 RES1    0.0000
      4 C2         3.8477    2.1212    3.7453 C.ar      1 RES1    0.0000
      5 C3         6.4184    1.6643    4.7345 C.ar      1 RES1    0.0000
      6 N1         4.4222    0.5281    7.5988 N.2       1 RES1    0.0000
      7 C4         6.2548    2.1383    3.4325 C.ar      1 RES1    0.0000
      8 C5         5.4365    0.7990    6.8726 C.2       1 RES1    0.0000
      9 C6         4.0207    1.6175    5.0092 C.ar      1 RES1    0.0000
     10 C7         4.9587    2.3658    2.9506 C.ar      1 RES1    0.0000
     11 C8         7.4380    2.3825    2.5355 C.3       1 RES1    0.0000
     12 C9         7.8165    1.4732    5.2688 C.3       1 RES1    0.0000
     13 C10        3.5666    2.9875    1.0948 C.3       1 RES1    0.0000
     14 H1         3.2723    1.4212    5.5377 H         1 RES1    0.0000
     15 H2         6.3022    0.5981    7.2454 H         1 RES1    0.0000
     16 H3         2.9465    2.2842    3.4579 H         1 RES1    0.0000
     17 H4         8.0840    1.5864    2.5448 H         1 RES1    0.0000
     18 H5         3.0799    2.0828    1.0822 H         1 RES1    0.0000
     19 H6         3.0254    3.6763    1.5810 H         1 RES1    0.0000
     20 H7         7.1445    2.5063    1.6655 H         1 RES1    0.0000
     21 H8         3.7209    3.2659    0.1775 H         1 RES1    0.0000
     22 H9         7.9285    3.1261    2.8069 H         1 RES1    0.0000
     23 H10        3.9415   -0.2298    9.1815 H         1 RES1    0.0000
     24 H11        8.3897    2.1400    5.0050 H         1 RES1    0.0000
     25 H12        8.2001    0.6837    5.0135 H         1 RES1    0.0000
     26 H13        7.8982    1.6042    6.2140 H         1 RES1    0.0000
@<TRIPOS>BOND
     1    1    5 ar
     2    2    6 1
     3    3   10 1
     4    4    9 ar
     5    5    7 ar
     6    6    8 2
     7    7   10 ar
     8    8    1 1
     9    9    1 ar
    10   10    4 ar
    11   11    7 1
    12   12    5 1
    13   13    3 1
    14   14    9 1
    15   15    8 1
    16   16    4 1
    17   17   11 1
    18   18   13 1
    19   19   13 1
    20   20   11 1
    21   21   13 1
    22   22   11 1
    23   23    2 1
    24   24   12 1
    25   25   12 1
    26   26   12 1
@<TRIPOS>SUBSTRUCTURE
     1 RES1 1

@<TRIPOS>CRYSIN
   7.4494    7.7594    9.0504  82.6400  69.1000  70.5900   2 1

