# MOL2 file generated by ConQuest
# Please check atom types

@<TRIPOS>MOLECULE
OKUHIL
    26    26     1
SMALL
NO_CHARGES
****
Generated from CSD

@<TRIPOS>ATOM
      1 O1         1.6266    7.7641    4.1368 O.3       1 RES1    0.0000
      2 C1         1.0446    7.2042    3.0353 C.ar      1 RES1    0.0000
      3 C2        -0.9798    5.4011   -0.2356 C.2       1 RES1    0.0000
      4 C3        -0.1775    6.5490    3.2672 C.ar      1 RES1    0.0000
      5 C4         1.5774    7.2515    1.7616 C.ar      1 RES1    0.0000
      6 C5        -0.7893    5.9674    2.1806 C.ar      1 RES1    0.0000
      7 C6        -0.2719    6.0059    0.8834 C.ar      1 RES1    0.0000
      8 N1        -2.0979    4.8068   -0.1162 N.2       1 RES1    0.0000
      9 C7         0.9448    6.6531    0.6811 C.ar      1 RES1    0.0000
     10 O2        -2.5819    4.3262   -1.3528 O.3       1 RES1    0.0000
     11 C8         2.8469    8.4714    3.9469 C.3       1 RES1    0.0000
     12 C9         1.6065    6.7252   -0.6681 C.3       1 RES1    0.0000
     13 C10       -0.7264    6.4857    4.6554 C.3       1 RES1    0.0000
     14 H1        -1.6631    5.5029    2.3383 H         1 RES1    0.0000
     15 H2         2.4410    7.6976    1.6034 H         1 RES1    0.0000
     16 H3        -0.6535    5.4388   -1.1428 H         1 RES1    0.0000
     17 H4         1.8249    5.9034   -0.9845 H         1 RES1    0.0000
     18 H5         1.1500    7.2891   -1.3010 H         1 RES1    0.0000
     19 H6         2.7063    9.3156    3.3404 H         1 RES1    0.0000
     20 H7        -0.1471    5.9915    5.2039 H         1 RES1    0.0000
     21 H8         3.0758    8.7149    4.7644 H         1 RES1    0.0000
     22 H9        -1.4741    5.9274    4.7292 H         1 RES1    0.0000
     23 H10        2.4289    7.2491   -0.7384 H         1 RES1    0.0000
     24 H11       -1.0535    7.3772    5.0105 H         1 RES1    0.0000
     25 H12       -3.5947    3.6526   -1.1428 H         1 RES1    0.0000
     26 H13        3.5689    7.8658    3.5513 H         1 RES1    0.0000
@<TRIPOS>BOND
     1    1    2 1
     2    2    4 ar
     3    3    7 1
     4    4    6 ar
     5    5    2 ar
     6    6    7 ar
     7    7    9 ar
     8    8    3 2
     9    9    5 ar
    10   10    8 1
    11   11    1 1
    12   12    9 1
    13   13    4 1
    14   14    6 1
    15   15    5 1
    16   16    3 1
    17   17   12 1
    18   18   12 1
    19   19   11 1
    20   20   13 1
    21   21   11 1
    22   22   13 1
    23   23   12 1
    24   24   13 1
    25   25   10 1
    26   26   11 1
@<TRIPOS>SUBSTRUCTURE
     1 RES1 1

@<TRIPOS>CRYSIN
   6.8400    8.0100   17.8000  90.0000  99.0000  90.0000  14 1

