# MOL2 file generated by ConQuest
# Please check atom types

@<TRIPOS>MOLECULE
OKUPAM
    60    62     1
SMALL
NO_CHARGES
****
Generated from CSD

@<TRIPOS>ATOM
      1 O1        10.1389   -1.4530    6.8382 O.2       1 RES1    0.0000
      2 O2        10.4238   -1.7378   10.2948 O.3       1 RES1    0.0000
      3 N1         9.8141   -1.8073    9.0186 N.am      1 RES1    0.0000
      4 C1        13.7076    0.4681    9.0068 C.ar      1 RES1    0.0000
      5 C2        14.2043    0.0228   10.2223 C.ar      1 RES1    0.0000
      6 C3        15.4896    0.3316   10.6180 C.ar      1 RES1    0.0000
      7 C4        16.2907    1.1101    9.8124 C.ar      1 RES1    0.0000
      8 C5        15.7996    1.5684    8.6087 C.ar      1 RES1    0.0000
      9 C6        14.5295    1.2417    8.2095 C.ar      1 RES1    0.0000
     10 C7        12.2987    0.1316    8.5754 C.3       1 RES1    0.0000
     11 C8        12.1126   -1.3409    8.2011 C.3       1 RES1    0.0000
     12 C9        12.9381   -1.7131    6.9785 C.3       1 RES1    0.0000
     13 C10       10.6368   -1.5538    7.9492 C.2       1 RES1    0.0000
     14 C11       10.4822   -3.0393   10.9851 C.3       1 RES1    0.0000
     15 C12       11.0765   -4.1201   10.1130 C.3       1 RES1    0.0000
     16 C13        9.1255   -3.4456   11.4901 C.3       1 RES1    0.0000
     17 C14       11.4076   -2.7029   12.1413 C.3       1 RES1    0.0000
     18 C15        8.3877   -1.3864    9.0115 C.3       1 RES1    0.0000
     19 C16        7.5303   -2.3469    8.2095 C.3       1 RES1    0.0000
     20 C17        8.2398    0.0796    8.6538 C.ar      1 RES1    0.0000
     21 C18        8.7107    1.0451    9.5783 C.ar      1 RES1    0.0000
     22 C19        8.5577    2.3762    9.3692 C.ar      1 RES1    0.0000
     23 C20        7.9119    2.8524    8.2047 C.ar      1 RES1    0.0000
     24 C21        7.4622    1.9162    7.2494 C.ar      1 RES1    0.0000
     25 C22        7.6484    0.5298    7.5048 C.ar      1 RES1    0.0000
     26 C23        6.8095    2.3681    6.0849 C.ar      1 RES1    0.0000
     27 C24        6.5959    3.6943    5.8948 C.ar      1 RES1    0.0000
     28 C25        7.0388    4.6305    6.8347 C.ar      1 RES1    0.0000
     29 C26        7.6873    4.2274    7.9671 C.ar      1 RES1    0.0000
     30 H1        13.5978   -0.5396   10.8402 H         1 RES1    0.0000
     31 H2        15.8613   -0.0374   11.4973 H         1 RES1    0.0000
     32 H3        17.2443    1.3457   10.1023 H         1 RES1    0.0000
     33 H4        16.3873    2.1682    8.0158 H         1 RES1    0.0000
     34 H5        14.1895    1.5522    7.2898 H         1 RES1    0.0000
     35 H6        11.6477    0.3624    9.3311 H         1 RES1    0.0000
     36 H7        12.0338    0.7054    7.7817 H         1 RES1    0.0000
     37 H8        12.4222   -1.9585    8.9390 H         1 RES1    0.0000
     38 H9        12.8339   -2.6964    6.7574 H         1 RES1    0.0000
     39 H10       13.9232   -1.5440    7.1507 H         1 RES1    0.0000
     40 H11       12.6606   -1.1767    6.1835 H         1 RES1    0.0000
     41 H12       11.1047   -5.0027   10.5954 H         1 RES1    0.0000
     42 H13       12.0178   -3.8780    9.8421 H         1 RES1    0.0000
     43 H14       10.5303   -4.2372    9.2729 H         1 RES1    0.0000
     44 H15        9.1505   -4.3493   11.9500 H         1 RES1    0.0000
     45 H16        8.7449   -2.7760   12.1282 H         1 RES1    0.0000
     46 H17        8.4650   -3.5367   10.7095 H         1 RES1    0.0000
     47 H18       11.5820   -3.4960   12.7200 H         1 RES1    0.0000
     48 H19       12.3175   -2.3924   11.7682 H         1 RES1    0.0000
     49 H20       11.0442   -1.9552   12.6914 H         1 RES1    0.0000
     50 H21        8.0477   -1.4628    9.9609 H         1 RES1    0.0000
     51 H22        6.5617   -2.0641    8.2249 H         1 RES1    0.0000
     52 H23        7.5816   -3.2847    8.5980 H         1 RES1    0.0000
     53 H24        7.8367   -2.3876    7.2577 H         1 RES1    0.0000
     54 H25        9.1860    0.7216   10.4302 H         1 RES1    0.0000
     55 H26        8.8907    3.0361   10.0762 H         1 RES1    0.0000
     56 H27        7.3232   -0.1463    6.8145 H         1 RES1    0.0000
     57 H28        6.5007    1.6871    5.3839 H         1 RES1    0.0000
     58 H29        6.1170    4.0080    5.0535 H         1 RES1    0.0000
     59 H30        6.8667    5.6398    6.6731 H         1 RES1    0.0000
     60 H31        8.0172    4.9328    8.6467 H         1 RES1    0.0000
@<TRIPOS>BOND
     1    1   13 2
     2    2    3 1
     3    3   13 1
     4    4    5 ar
     5    5    6 ar
     6    6    7 ar
     7    7    8 ar
     8    8    9 ar
     9    9    4 ar
    10   10    4 1
    11   11   10 1
    12   12   11 1
    13   13   11 1
    14   14    2 1
    15   15   14 1
    16   16   14 1
    17   17   14 1
    18   18    3 1
    19   19   18 1
    20   20   18 1
    21   21   20 ar
    22   22   21 ar
    23   23   22 ar
    24   24   23 ar
    25   25   20 ar
    26   26   24 ar
    27   27   26 ar
    28   28   27 ar
    29   29   23 ar
    30   30    5 1
    31   31    6 1
    32   32    7 1
    33   33    8 1
    34   34    9 1
    35   35   10 1
    36   36   10 1
    37   37   11 1
    38   38   12 1
    39   39   12 1
    40   40   12 1
    41   41   15 1
    42   42   15 1
    43   43   15 1
    44   44   16 1
    45   45   16 1
    46   46   16 1
    47   47   17 1
    48   48   17 1
    49   49   17 1
    50   50   18 1
    51   51   19 1
    52   52   19 1
    53   53   19 1
    54   54   21 1
    55   55   22 1
    56   56   25 1
    57   57   26 1
    58   58   27 1
    59   59   28 1
    60   60   29 1
    61   24   25 ar
    62   28   29 ar
@<TRIPOS>SUBSTRUCTURE
     1 RES1 1

@<TRIPOS>CRYSIN
  11.5977   16.2530   11.8830  90.0000  90.6400  90.0000  14 1

