# MOL2 file generated by ConQuest
# Please check atom types

@<TRIPOS>MOLECULE
OKUYOI
    37    38     1
SMALL
NO_CHARGES
****
Generated from CSD

@<TRIPOS>ATOM
      1 O1         3.3150    9.4283    3.1193 O.2       1 RES1    0.0000
      2 N1         4.3738    8.9427    3.6240 N.pl3     1 RES1    0.0000
      3 C1         5.6001    8.6665    2.8083 C.3       1 RES1    0.0000
      4 C2         6.1982   10.0508    2.5471 C.3       1 RES1    0.0000
      5 H1         5.6046   10.6064    2.1516 H         1 RES1    0.0000
      6 H2         7.0811    9.9751    1.9934 H         1 RES1    0.0000
      7 H3         6.5236   10.4687    3.6387 H         1 RES1    0.0000
      8 C3         5.2279    7.9732    1.5172 C.3       1 RES1    0.0000
      9 H4         4.7006    8.6206    0.9492 H         1 RES1    0.0000
     10 H5         4.6404    7.0595    1.8668 H         1 RES1    0.0000
     11 H6         6.0114    7.7138    1.0441 H         1 RES1    0.0000
     12 C4         6.4225    7.8113    3.8007 C.3       1 RES1    0.0000
     13 C5         7.9133    8.0880    3.8238 C.3       1 RES1    0.0000
     14 H7         8.3768    7.5071    4.4772 H         1 RES1    0.0000
     15 H8         8.0453    9.0683    4.0026 H         1 RES1    0.0000
     16 H9         8.3165    7.8745    3.0059 H         1 RES1    0.0000
     17 C6         6.1409    6.3191    3.6877 C.3       1 RES1    0.0000
     18 H10        6.5688    5.9116    4.4139 H         1 RES1    0.0000
     19 H11        6.4935    5.9231    2.8951 H         1 RES1    0.0000
     20 H12        5.1225    6.0723    3.7020 H         1 RES1    0.0000
     21 N2         5.8158    8.2258    5.1100 N.pl3     1 RES1    0.0000
     22 O2         6.3434    7.9392    6.2355 O.2       1 RES1    0.0000
     23 C7         4.6119    8.7736    4.9331 C.2       1 RES1    0.0000
     24 C8         3.6850    9.1649    5.9991 C.ar      1 RES1    0.0000
     25 C9         3.5099   10.5075    6.3046 C.ar      1 RES1    0.0000
     26 O3         4.2741   11.3970    5.6425 O.3       1 RES1    0.0000
     27 H13        4.2366   12.1790    5.9643 H         1 RES1    0.0000
     28 C10        2.5511   10.8302    7.2548 C.ar      1 RES1    0.0000
     29 H14        2.4091   11.7084    7.4830 H         1 RES1    0.0000
     30 C11        1.8604    9.8144    7.8760 C.ar      1 RES1    0.0000
     31 H15        1.1526   10.0669    8.4797 H         1 RES1    0.0000
     32 C12        2.1196    8.4863    7.5598 C.ar      1 RES1    0.0000
     33 N3         3.0153    8.1750    6.6148 N.ar      1 RES1    0.0000
     34 C13        1.4418    7.3556    8.2551 C.3       1 RES1    0.0000
     35 H16        1.1902    6.6577    7.7045 H         1 RES1    0.0000
     36 H17        0.6328    7.5645    8.5747 H         1 RES1    0.0000
     37 H18        1.9586    6.9562    8.9543 H         1 RES1    0.0000
@<TRIPOS>BOND
     1    1    2 1
     2    2    3 1
     3    3    4 1
     4    4    5 1
     5    6    4 1
     6    7    4 1
     7    8    3 1
     8    9    8 1
     9   10    8 1
    10   11    8 1
    11   12    3 1
    12   13   12 1
    13   14   13 1
    14   15   13 1
    15   16   13 1
    16   17   12 1
    17   18   17 1
    18   19   17 1
    19   20   17 1
    20   21   12 1
    21   22   21 1
    22   23    2 2
    23   24   23 1
    24   25   24 ar
    25   26   25 1
    26   27   26 1
    27   28   25 ar
    28   29   28 1
    29   30   28 ar
    30   31   30 1
    31   32   30 ar
    32   33   24 ar
    33   34   32 1
    34   35   34 1
    35   36   34 1
    36   37   34 1
    37   21   23 1
    38   32   33 ar
@<TRIPOS>SUBSTRUCTURE
     1 RES1 1

@<TRIPOS>CRYSIN
  15.0661   11.4788   15.8204  90.0000  90.0000  90.0000  61 1

