# MOL2 file generated by ConQuest
# Please check atom types

@<TRIPOS>MOLECULE
OKUZOJ
    36    36     2
SMALL
NO_CHARGES
****
Generated from CSD

@<TRIPOS>ATOM
      1 O1        -3.0774    6.9178   15.1637 O.2       1 RES1    0.0000
      2 N1        -2.3398    7.9211   14.7543 N.pl3     1 RES1    0.0000
      3 C1        -2.2527    9.1790   15.5367 C.3       1 RES1    0.0000
      4 C2        -1.2698    8.9659   16.6555 C.3       1 RES1    0.0000
      5 H1        -1.1983    9.8900   17.3443 H         1 RES1    0.0000
      6 H2        -1.6095    8.3267   17.0751 H         1 RES1    0.0000
      7 H3        -0.2281    8.5341   16.2608 H         1 RES1    0.0000
      8 C3        -3.6114    9.5596   16.0817 C.3       1 RES1    0.0000
      9 H4        -3.6443   10.4232   16.5130 H         1 RES1    0.0000
     10 H5        -3.9511    8.7164   16.5862 H         1 RES1    0.0000
     11 H6        -4.3202    9.5937   15.4622 H         1 RES1    0.0000
     12 C4        -1.6771   10.1042   14.4440 C.3       1 RES1    0.0000
     13 C5        -2.7248   10.8653   13.6768 C.3       1 RES1    0.0000
     14 H7        -2.2647   11.4738   12.9658 H         1 RES1    0.0000
     15 H8        -3.2880   11.3142   14.2427 H         1 RES1    0.0000
     16 H9        -3.4062   10.1862   13.3043 H         1 RES1    0.0000
     17 C6        -0.5721   11.0351   14.9537 C.3       1 RES1    0.0000
     18 H10       -0.5724   11.5079   14.5433 H         1 RES1    0.0000
     19 H11        0.2922   10.7673   15.8935 H         1 RES1    0.0000
     20 H12       -1.2490   11.5535   15.5720 H         1 RES1    0.0000
     21 N2        -1.0597    9.1489   13.5025 N.2       1 RES1    0.0000
     22 H13       -0.3958    9.4616   12.3828 Du        2 SUP2    0.0000
     23 C7        -1.5550    7.9804   13.6534 C.2       1 RES1    0.0000
     24 C8        -1.3090    6.8546   12.7446 C.ar      1 RES1    0.0000
     25 C9        -0.4434    7.0609   11.6453 C.ar      1 RES1    0.0000
     26 O2         0.1160    8.2722   11.4485 O.3       1 RES1    0.0000
     27 C10       -0.1860    6.0365   10.7690 C.ar      1 RES1    0.0000
     28 H14        0.2550    6.3271   10.1060 H         1 RES1    0.0000
     29 C11       -0.7511    4.8128   10.9578 C.ar      1 RES1    0.0000
     30 H15       -0.6504    4.1577   10.3922 H         1 RES1    0.0000
     31 C12       -1.5716    4.6089   12.0447 C.ar      1 RES1    0.0000
     32 N3        -2.1455    3.2487   12.2577 N.pl3     1 RES1    0.0000
     33 O3        -3.0372    3.1296   13.0776 O.2       1 RES1    0.0000
     34 O4        -1.6815    2.3399   11.5942 O.2       1 RES1    0.0000
     35 C13       -1.8789    5.5888   12.9395 C.ar      1 RES1    0.0000
     36 H16       -2.5946    5.5067   13.8258 H         1 RES1    0.0000
@<TRIPOS>BOND
     1    1    2 1
     2    2    3 1
     3    3    4 1
     4    4    5 1
     5    6    4 1
     6    7    4 1
     7    8    3 1
     8    9    8 1
     9   10    8 1
    10   11    8 1
    11   12    3 1
    12   13   12 1
    13   14   13 1
    14   15   13 1
    15   16   13 1
    16   17   12 1
    17   18   17 1
    18   19   17 1
    19   20   17 1
    20   21   12 1
    21   23    2 1
    22   24   23 1
    23   25   24 ar
    24   26   25 1
    25   27   25 ar
    26   28   27 1
    27   29   27 ar
    28   30   29 1
    29   31   29 ar
    30   32   31 1
    31   33   32 2
    32   34   32 2
    33   35   24 ar
    34   36   35 1
    35   21   23 2
    36   31   35 ar
@<TRIPOS>SUBSTRUCTURE
     1 RES1 1
     2 SUP2 22

@<TRIPOS>CRYSIN
   9.1370   11.3940   13.7310  90.0000 107.8460  90.0000 231 1

