# MOL2 file generated by ConQuest
# Please check atom types

@<TRIPOS>MOLECULE
OLABEI
    55    57     1
SMALL
NO_CHARGES
****
Generated from CSD

@<TRIPOS>ATOM
      1 O1         9.2261   -1.0586   15.6062 O.3       1 RES1    0.0000
      2 O2         8.6903    3.3986   17.9619 O.2       1 RES1    0.0000
      3 O3         6.5912    4.8990   14.9799 O.2       1 RES1    0.0000
      4 N1         9.6072    2.5590   17.7248 N.3       1 RES1    0.0000
      5 N2        10.6021    0.7508   16.8814 N.2       1 RES1    0.0000
      6 N3         5.6717    4.2893   14.3585 N.3       1 RES1    0.0000
      7 N4         4.4973    2.6077   13.4552 N.2       1 RES1    0.0000
      8 C1         8.3313   -0.0864   15.3692 C.ar      1 RES1    0.0000
      9 C2         8.4224    1.2132   15.9281 C.ar      1 RES1    0.0000
     10 C3         7.5081    2.1903   15.5688 C.ar      1 RES1    0.0000
     11 C4         6.4741    1.9068   14.6754 C.ar      1 RES1    0.0000
     12 C5         6.3675    0.6084   14.1689 C.ar      1 RES1    0.0000
     13 C6         7.2532   -0.3784   14.5257 C.ar      1 RES1    0.0000
     14 C7         9.5525    1.4870   16.8265 C.2       1 RES1    0.0000
     15 C8        10.7868    2.3704   18.6257 C.3       1 RES1    0.0000
     16 C9        11.6191    1.4006   17.7598 C.3       1 RES1    0.0000
     17 C10       11.4071    3.7125   18.9426 C.3       1 RES1    0.0000
     18 C11       10.2353    1.7255   19.8833 C.3       1 RES1    0.0000
     19 C12       12.5841    2.1416   16.7841 C.3       1 RES1    0.0000
     20 C13       12.4033    0.3322   18.4984 C.3       1 RES1    0.0000
     21 C14        5.5260    2.9046   14.1714 C.2       1 RES1    0.0000
     22 C15        4.4011    4.9659   13.9094 C.3       1 RES1    0.0000
     23 C16        3.8860    3.8695   12.9461 C.3       1 RES1    0.0000
     24 C17        4.7119    6.3153   13.2780 C.3       1 RES1    0.0000
     25 C18        3.5700    5.1715   15.1546 C.3       1 RES1    0.0000
     26 C19        4.4180    4.0338   11.5213 C.3       1 RES1    0.0000
     27 C20        2.3748    3.7405   12.9212 C.3       1 RES1    0.0000
     28 H1        10.1157   -0.8737   16.4247 H         1 RES1    0.0000
     29 H2         7.5952    3.1029   15.9456 H         1 RES1    0.0000
     30 H3         5.6314    0.3894   13.5001 H         1 RES1    0.0000
     31 H4         7.2311   -1.3872   14.1240 H         1 RES1    0.0000
     32 H5        11.6659    4.2224   18.1166 H         1 RES1    0.0000
     33 H6        10.7165    4.2467   19.5140 H         1 RES1    0.0000
     34 H7        12.1211    3.5288   19.4392 H         1 RES1    0.0000
     35 H8         9.5070    2.4215   20.2876 H         1 RES1    0.0000
     36 H9         9.8712    0.7788   19.7386 H         1 RES1    0.0000
     37 H10       11.0677    1.4724   20.4373 H         1 RES1    0.0000
     38 H11       12.1471    3.0786   16.6693 H         1 RES1    0.0000
     39 H12       13.1095    1.3872   16.3948 H         1 RES1    0.0000
     40 H13       13.3306    2.5797   17.2931 H         1 RES1    0.0000
     41 H14       13.0185    0.7544   19.0898 H         1 RES1    0.0000
     42 H15       11.6529   -0.0608   19.1896 H         1 RES1    0.0000
     43 H16       12.9405   -0.1704   17.8172 H         1 RES1    0.0000
     44 H17        3.8236    6.7412   13.0509 H         1 RES1    0.0000
     45 H18        5.2672    6.2423   12.5020 H         1 RES1    0.0000
     46 H19        5.1112    6.8751   14.0741 H         1 RES1    0.0000
     47 H20        2.6921    5.6461   15.0223 H         1 RES1    0.0000
     48 H21        3.2254    4.2832   15.5713 H         1 RES1    0.0000
     49 H22        4.1878    5.7556   15.8957 H         1 RES1    0.0000
     50 H23        4.2138    3.2003   11.0297 H         1 RES1    0.0000
     51 H24        4.1227    4.8065   11.1045 H         1 RES1    0.0000
     52 H25        5.4883    4.0399   11.4539 H         1 RES1    0.0000
     53 H26        2.0028    4.4779   12.6267 H         1 RES1    0.0000
     54 H27        2.1589    3.0664   12.3273 H         1 RES1    0.0000
     55 H28        2.0159    3.4801   13.8994 H         1 RES1    0.0000
@<TRIPOS>BOND
     1    1    8 1
     2    2    4 1
     3    3    6 1
     4    4   14 1
     5    5   14 2
     6    6   21 1
     7    7   21 2
     8    8    9 ar
     9    9   10 ar
    10   10   11 ar
    11   11   12 ar
    12   12   13 ar
    13   13    8 ar
    14   14    9 1
    15   15    4 1
    16   16    5 1
    17   17   15 1
    18   18   15 1
    19   19   16 1
    20   20   16 1
    21   21   11 1
    22   22    6 1
    23   23    7 1
    24   24   22 1
    25   25   22 1
    26   26   23 1
    27   27   23 1
    28   28    1 1
    29   29   10 1
    30   30   12 1
    31   31   13 1
    32   32   17 1
    33   33   17 1
    34   34   17 1
    35   35   18 1
    36   36   18 1
    37   37   18 1
    38   38   19 1
    39   39   19 1
    40   40   19 1
    41   41   20 1
    42   42   20 1
    43   43   20 1
    44   44   24 1
    45   45   24 1
    46   46   24 1
    47   47   25 1
    48   48   25 1
    49   49   25 1
    50   50   26 1
    51   51   26 1
    52   52   26 1
    53   53   27 1
    54   54   27 1
    55   55   27 1
    56   15   16 1
    57   22   23 1
@<TRIPOS>SUBSTRUCTURE
     1 RES1 1

@<TRIPOS>CRYSIN
  13.0055   12.1683   24.9540  90.0000  90.0000  90.0000  61 1

