# MOL2 file generated by ConQuest
# Please check atom types

@<TRIPOS>MOLECULE
OLAJAM
    52    55     1
SMALL
NO_CHARGES
****
Generated from CSD

@<TRIPOS>ATOM
      1 O1         6.4213    1.1500    3.7928 O.2       1 RES1    0.0000
      2 O2         2.1029    4.4302    6.7114 O.3       1 RES1    0.0000
      3 O3         1.7585    5.6578    4.7024 O.3       1 RES1    0.0000
      4 O4         2.7619    5.1813    2.8542 O.2       1 RES1    0.0000
      5 O5         3.3420    2.6720    6.8101 O.2       1 RES1    0.0000
      6 O6         5.8336    9.0086    8.7708 O.2       1 RES1    0.0000
      7 O7         6.0838   10.0669    6.9217 O.2       1 RES1    0.0000
      8 N1         5.8715    9.0513    7.5517 N.pl3     1 RES1    0.0000
      9 C1         1.1695    1.2283    4.8444 C.ar      1 RES1    0.0000
     10 H1         1.7304    0.8971    5.5083 H         1 RES1    0.0000
     11 C2        -0.1708    0.8739    4.8402 C.ar      1 RES1    0.0000
     12 H2        -0.5003    0.3032    5.4968 H         1 RES1    0.0000
     13 C3        -1.0132    1.3587    3.8754 C.ar      1 RES1    0.0000
     14 H3        -1.9120    1.1192    3.8754 H         1 RES1    0.0000
     15 C4        -0.5275    2.1949    2.9140 C.ar      1 RES1    0.0000
     16 H4        -1.0980    2.5348    2.2631 H         1 RES1    0.0000
     17 C5         0.8135    2.5377    2.9055 C.ar      1 RES1    0.0000
     18 H5         1.1369    3.0958    2.2355 H         1 RES1    0.0000
     19 C6         1.6817    2.0687    3.8720 C.ar      1 RES1    0.0000
     20 C7         3.1374    2.5026    3.8600 C.3       1 RES1    0.0000
     21 H6         3.3445    2.7415    2.9324 H         1 RES1    0.0000
     22 C8         4.1057    1.3859    4.2383 C.3       1 RES1    0.0000
     23 H7         3.8562    1.0381    5.1093 H         1 RES1    0.0000
     24 H8         4.0166    0.6644    3.5971 H         1 RES1    0.0000
     25 C9         5.5450    1.8170    4.2833 C.2       1 RES1    0.0000
     26 C10        5.8196    3.0781    5.0369 C.3       1 RES1    0.0000
     27 H9         6.7335    3.3546    4.8689 H         1 RES1    0.0000
     28 H10        5.7318    2.9046    5.9867 H         1 RES1    0.0000
     29 C11        4.8772    4.2126    4.6477 C.3       1 RES1    0.0000
     30 H11        5.0696    4.4197    3.7098 H         1 RES1    0.0000
     31 C12        3.3594    3.7996    4.7040 C.3       1 RES1    0.0000
     32 C13        2.9392    3.5723    6.1405 C.2       1 RES1    0.0000
     33 C14        1.3711    5.4491    6.0595 C.3       1 RES1    0.0000
     34 C15        2.6038    4.9170    4.0073 C.2       1 RES1    0.0000
     35 C16       -0.0538    5.0358    6.0511 C.3       1 RES1    0.0000
     36 H12       -0.1473    4.2169    5.5589 H         1 RES1    0.0000
     37 H13       -0.5824    5.7205    5.6360 H         1 RES1    0.0000
     38 H14       -0.3546    4.9026    6.9538 H         1 RES1    0.0000
     39 C17        1.6440    6.7160    6.7859 C.3       1 RES1    0.0000
     40 H15        2.5894    6.8860    6.7894 H         1 RES1    0.0000
     41 H16        1.3289    6.6407    7.6898 H         1 RES1    0.0000
     42 H17        1.1897    7.4403    6.3489 H         1 RES1    0.0000
     43 C18        5.1605    5.4779    5.4263 C.ar      1 RES1    0.0000
     44 C19        5.2729    6.6882    4.7612 C.ar      1 RES1    0.0000
     45 H18        5.1711    6.7122    3.8374 H         1 RES1    0.0000
     46 C20        5.5334    7.8538    5.4413 C.ar      1 RES1    0.0000
     47 H19        5.6291    8.6599    4.9862 H         1 RES1    0.0000
     48 C21        5.6507    7.8006    6.8097 C.ar      1 RES1    0.0000
     49 C22        5.5597    6.6266    7.5114 C.ar      1 RES1    0.0000
     50 H20        5.6576    6.6146    8.4361 H         1 RES1    0.0000
     51 C23        5.3197    5.4641    6.8105 C.ar      1 RES1    0.0000
     52 H21        5.2626    4.6573    7.2689 H         1 RES1    0.0000
@<TRIPOS>BOND
     1    1   25 2
     2    2   32 1
     3    3   33 1
     4    4   34 2
     5    5   32 2
     6    6    8 2
     7    7    8 2
     8    8   48 1
     9    9   10 1
    10   11    9 ar
    11   12   11 1
    12   13   11 ar
    13   14   13 1
    14   15   13 ar
    15   16   15 1
    16   17   15 ar
    17   18   17 1
    18   19    9 ar
    19   20   19 1
    20   21   20 1
    21   22   20 1
    22   23   22 1
    23   24   22 1
    24   25   22 1
    25   26   25 1
    26   27   26 1
    27   28   26 1
    28   29   26 1
    29   30   29 1
    30   31   20 1
    31   32   31 1
    32   33    2 1
    33   34    3 1
    34   35   33 1
    35   36   35 1
    36   37   35 1
    37   38   35 1
    38   39   33 1
    39   40   39 1
    40   41   39 1
    41   42   39 1
    42   43   29 1
    43   44   43 ar
    44   45   44 1
    45   46   44 ar
    46   47   46 1
    47   48   46 ar
    48   49   48 ar
    49   50   49 1
    50   51   43 ar
    51   52   51 1
    52   17   19 ar
    53   29   31 1
    54   31   34 1
    55   49   51 ar
@<TRIPOS>SUBSTRUCTURE
     1 RES1 1

@<TRIPOS>CRYSIN
  18.5710    9.6564   11.9942  90.0000 106.5110  90.0000  14 1

