# MOL2 file generated by ConQuest
# Please check atom types

@<TRIPOS>MOLECULE
OLAWIJ
    44    46     1
SMALL
NO_CHARGES
****
Generated from CSD

@<TRIPOS>ATOM
      1 O1        -1.1221    7.6532    6.2520 O.3       1 RES1    0.0000
      2 H1        -1.8399    7.3151    6.5281 H         1 RES1    0.0000
      3 O2         2.1818    7.6691    6.5435 O.2       1 RES1    0.0000
      4 C1        -0.6027    6.3871    8.2331 C.2       1 RES1    0.0000
      5 N1         0.2455    8.6841    7.8773 N.3       1 RES1    0.0000
      6 H2         1.1000    8.8958    7.8932 H         1 RES1    0.0000
      7 C2        -2.2503   11.4312    9.7219 C.ar      1 RES1    0.0000
      8 C3        -0.6313    9.5590    8.4920 C.ar      1 RES1    0.0000
      9 C4        -1.9636    9.2556    8.7578 C.ar      1 RES1    0.0000
     10 H3        -2.3178    8.4088    8.5131 H         1 RES1    0.0000
     11 C5        -0.1257   10.7984    8.8796 C.ar      1 RES1    0.0000
     12 H4         0.7877   11.0025    8.7178 H         1 RES1    0.0000
     13 C6         0.3027    5.8749    9.2914 C.ar      1 RES1    0.0000
     14 C7         2.4093    4.2392    4.2582 C.ar      1 RES1    0.0000
     15 H5         3.2368    3.9661    3.8799 H         1 RES1    0.0000
     16 C8        -2.7741   10.1974    9.3830 C.ar      1 RES1    0.0000
     17 H6        -3.6818    9.9943    9.5764 H         1 RES1    0.0000
     18 C9         1.1454    5.7716    5.6203 C.ar      1 RES1    0.0000
     19 C10       -0.1134    7.4633    7.2160 C.3       1 RES1    0.0000
     20 C11        1.2626    3.5235    3.9871 C.ar      1 RES1    0.0000
     21 H7         1.2984    2.7594    3.4237 H         1 RES1    0.0000
     22 C12       -0.0096    5.0354    5.3432 C.ar      1 RES1    0.0000
     23 H8        -0.8441    5.3035    5.7105 H         1 RES1    0.0000
     24 C13        1.1757    6.9902    6.4555 C.2       1 RES1    0.0000
     25 C14       -0.9239   11.7253    9.4880 C.ar      1 RES1    0.0000
     26 H9        -0.5674   12.5669    9.7483 H         1 RES1    0.0000
     27 C15        0.0629    3.9218    4.5375 C.ar      1 RES1    0.0000
     28 H10       -0.7240    3.4212    4.3583 H         1 RES1    0.0000
     29 C16        1.5355    6.4279    9.5976 C.ar      1 RES1    0.0000
     30 H11        1.8353    7.1976    9.1284 H         1 RES1    0.0000
     31 C17        2.3300    5.8718   10.5757 C.ar      1 RES1    0.0000
     32 H12        3.1679    6.2667   10.7847 H         1 RES1    0.0000
     33 C18        2.3618    5.3468    5.0751 C.ar      1 RES1    0.0000
     34 H13        3.1596    5.8250    5.2695 H         1 RES1    0.0000
     35 C19        1.9172    4.7467   11.2505 C.ar      1 RES1    0.0000
     36 H14        2.4756    4.3589   11.9135 H         1 RES1    0.0000
     37 C20       -0.1227    4.7438    9.9994 C.ar      1 RES1    0.0000
     38 H15       -0.9732    4.3615    9.8162 H         1 RES1    0.0000
     39 C21        0.6913    4.1827   10.9635 C.ar      1 RES1    0.0000
     40 H16        0.4061    3.4064   11.4304 H         1 RES1    0.0000
     41 O3        -2.5972   13.5138   10.6302 O.2       1 RES1    0.0000
     42 O4        -4.2827   12.1613   10.5469 O.2       1 RES1    0.0000
     43 N2        -3.0988   12.4333   10.3400 N.pl3     1 RES1    0.0000
     44 O5        -1.7392    5.9734    8.1007 O.2       1 RES1    0.0000
@<TRIPOS>BOND
     1    1    2 1
     2    3   24 2
     3    4   13 1
     4    5    6 1
     5    7   16 ar
     6    8    5 1
     7    9    8 ar
     8   10    9 1
     9   11    8 ar
    10   12   11 1
    11   13   29 ar
    12   14   15 1
    13   16    9 ar
    14   17   16 1
    15   18   22 ar
    16   19    1 1
    17   20   14 ar
    18   21   20 1
    19   22   23 1
    20   24   18 1
    21   25    7 ar
    22   26   25 1
    23   27   20 ar
    24   28   27 1
    25   29   30 1
    26   31   29 ar
    27   32   31 1
    28   33   14 ar
    29   34   33 1
    30   35   31 ar
    31   36   35 1
    32   37   13 ar
    33   38   37 1
    34   39   35 ar
    35   40   39 1
    36   41   43 2
    37   42   43 2
    38   43    7 1
    39   44    4 2
    40    4   19 1
    41    5   19 1
    42   11   25 ar
    43   18   33 ar
    44   19   24 1
    45   22   27 ar
    46   37   39 ar
@<TRIPOS>SUBSTRUCTURE
     1 RES1 1

@<TRIPOS>CRYSIN
   6.4402   11.2390   12.7130 110.6290  99.6350  90.6230   2 1

