# MOL2 file generated by ConQuest
# Please check atom types

@<TRIPOS>MOLECULE
OLAWAZ
    43    46     1
SMALL
NO_CHARGES
****
Generated from CSD

@<TRIPOS>ATOM
      1 O1        -0.7107    6.6335    3.4057 O.2       1 RES1    0.0000
      2 O2         0.5479    7.1301    1.7089 O.2       1 RES1    0.0000
      3 O3         4.7997    9.0865    2.3635 O.2       1 RES1    0.0000
      4 O4         5.5509    9.6188    4.3190 O.2       1 RES1    0.0000
      5 N1         3.7782    9.4048    7.7925 N.2       1 RES1    0.0000
      6 N2         4.0785    9.3208    6.4414 N.pl3     1 RES1    0.0000
      7 H1         4.8024    9.5646    6.1564 H         1 RES1    0.0000
      8 N3         0.3137    7.1251    2.9117 N.pl3     1 RES1    0.0000
      9 N4         4.6590    9.1667    3.5779 N.pl3     1 RES1    0.0000
     10 C1         8.0735   11.6168    8.7008 C.3       1 RES1    0.0000
     11 H2         7.9161   12.3980    9.2877 H         1 RES1    0.0000
     12 H3         9.0358   11.3874    8.7273 H         1 RES1    0.0000
     13 C2         7.6371   11.9218    7.2772 C.3       1 RES1    0.0000
     14 H4         8.1230   11.3548    6.6273 H         1 RES1    0.0000
     15 H5         7.7918   12.8737    7.0539 H         1 RES1    0.0000
     16 C3         6.1378   11.5938    7.2799 C.3       1 RES1    0.0000
     17 H6         5.7902   11.4849    6.3587 H         1 RES1    0.0000
     18 H7         5.6157   12.2958    7.7436 H         1 RES1    0.0000
     19 C4         6.0987   10.2553    8.0584 C.3       1 RES1    0.0000
     20 H8         6.4003    9.5384    7.4297 H         1 RES1    0.0000
     21 C5         7.2109   10.4070    9.1598 C.3       1 RES1    0.0000
     22 H9         7.7832    9.5871    9.1440 H         1 RES1    0.0000
     23 C6         6.6287   10.5724   10.5983 C.3       1 RES1    0.0000
     24 H10        7.3382   10.5724   11.3027 H         1 RES1    0.0000
     25 C7         5.7655   11.8139   10.6418 C.2       1 RES1    0.0000
     26 H11        6.0818   12.6866   10.8440 H         1 RES1    0.0000
     27 C8         4.4856   11.5066   10.3538 C.2       1 RES1    0.0000
     28 H12        3.7575   12.1168   10.3610 H         1 RES1    0.0000
     29 C9         4.3948   10.0211   10.0130 C.3       1 RES1    0.0000
     30 H13        3.5228    9.6077   10.2747 H         1 RES1    0.0000
     31 C10        4.7096    9.8744    8.5429 C.2       1 RES1    0.0000
     32 C11        5.5929    9.4727   10.8098 C.3       1 RES1    0.0000
     33 H14        5.3709    9.3635   11.7680 H         1 RES1    0.0000
     34 H15        5.9045    8.6071   10.4450 H         1 RES1    0.0000
     35 C12        3.1762    8.8144    5.5783 C.ar      1 RES1    0.0000
     36 C13        1.9211    8.3406    6.0439 C.ar      1 RES1    0.0000
     37 H16        1.7165    8.4002    6.9699 H         1 RES1    0.0000
     38 C14        1.0005    7.7996    5.1888 C.ar      1 RES1    0.0000
     39 H17        0.1692    7.4818    5.5220 H         1 RES1    0.0000
     40 C15        1.2868    7.7148    3.8170 C.ar      1 RES1    0.0000
     41 C16        2.4792    8.1688    3.3014 C.ar      1 RES1    0.0000
     42 H18        2.6573    8.1134    2.3697 H         1 RES1    0.0000
     43 C17        3.4218    8.7117    4.1752 C.ar      1 RES1    0.0000
@<TRIPOS>BOND
     1    1    8 2
     2    2    8 2
     3    3    9 2
     4    4    9 2
     5    5    6 1
     6    6    7 1
     7    8   40 1
     8    9   43 1
     9   10   11 1
    10   12   10 1
    11   13   10 1
    12   14   13 1
    13   15   13 1
    14   16   13 1
    15   17   16 1
    16   18   16 1
    17   19   16 1
    18   20   19 1
    19   21   10 1
    20   22   21 1
    21   23   21 1
    22   24   23 1
    23   25   23 1
    24   26   25 1
    25   27   25 2
    26   28   27 1
    27   29   27 1
    28   30   29 1
    29   31    5 2
    30   32   23 1
    31   33   32 1
    32   34   32 1
    33   35    6 1
    34   36   35 ar
    35   37   36 1
    36   38   36 ar
    37   39   38 1
    38   40   38 ar
    39   41   40 ar
    40   42   41 1
    41   43   35 ar
    42   19   31 1
    43   19   21 1
    44   29   32 1
    45   29   31 1
    46   41   43 ar
@<TRIPOS>SUBSTRUCTURE
     1 RES1 1

@<TRIPOS>CRYSIN
   7.0318   10.6790   11.7339  70.8980  80.0420  71.8970   2 1

