# MOL2 file generated by ConQuest
# Please check atom types

@<TRIPOS>MOLECULE
OLETEF
    87    93     1
SMALL
NO_CHARGES
****
Generated from CSD

@<TRIPOS>ATOM
      1 O1         6.0315    4.3754    0.1113 O.3       1 RES1    0.0000
      2 O2         7.2721    4.6899    2.5826 O.3       1 RES1    0.0000
      3 O3         8.1078    5.3689    1.5539 O.3       1 RES1    0.0000
      4 O4         3.0187    5.5201   10.0017 O.3       1 RES1    0.0000
      5 N1         5.8879    5.5669    0.9345 N.3       1 RES1    0.0000
      6 C1         6.7117    7.3295    3.1186 C.3       1 RES1    0.0000
      7 H1         6.4536    8.1878    3.5390 H         1 RES1    0.0000
      8 H2         7.5125    6.9875    3.5896 H         1 RES1    0.0000
      9 C2         7.0542    7.5694    1.6518 C.3       1 RES1    0.0000
     10 H3         7.9037    8.0745    1.5958 H         1 RES1    0.0000
     11 H4         6.3443    8.1232    1.2381 H         1 RES1    0.0000
     12 C3         7.1925    6.2607    0.8613 C.3       1 RES1    0.0000
     13 C4         7.7173    6.4543   -0.5590 C.3       1 RES1    0.0000
     14 H5         7.7272    5.5571   -1.0020 H         1 RES1    0.0000
     15 C5         5.8846    5.1250    2.3343 C.3       1 RES1    0.0000
     16 C6         5.0108    3.9015    2.6069 C.3       1 RES1    0.0000
     17 H6         5.2748    3.1651    2.0006 H         1 RES1    0.0000
     18 H7         4.0631    4.1243    2.4257 H         1 RES1    0.0000
     19 C7         5.1589    3.4450    4.0599 C.3       1 RES1    0.0000
     20 H8         6.1026    3.1955    4.2239 H         1 RES1    0.0000
     21 H9         4.6038    2.6380    4.2003 H         1 RES1    0.0000
     22 C8         4.7414    4.5260    5.0811 C.3       1 RES1    0.0000
     23 C9         5.5613    5.8128    4.7525 C.3       1 RES1    0.0000
     24 H10        6.5122    5.5669    4.9391 H         1 RES1    0.0000
     25 C10        5.5613    6.3216    3.2711 C.3       1 RES1    0.0000
     26 C11        5.2353    6.9254    5.7572 C.3       1 RES1    0.0000
     27 H11        5.7509    7.7386    5.5261 H         1 RES1    0.0000
     28 H12        4.2725    7.1482    5.7016 H         1 RES1    0.0000
     29 C12        5.5777    6.4957    7.1843 C.3       1 RES1    0.0000
     30 H13        5.3578    7.2273    7.8135 H         1 RES1    0.0000
     31 H14        6.5484    6.3143    7.2501 H         1 RES1    0.0000
     32 C13        4.7948    5.2370    7.5709 C.3       1 RES1    0.0000
     33 H15        3.8247    5.4670    7.4930 H         1 RES1    0.0000
     34 C14        5.0621    4.0647    6.5743 C.3       1 RES1    0.0000
     35 C15        4.1507    2.8839    6.9920 C.3       1 RES1    0.0000
     36 H16        3.2051    3.1553    6.8857 H         1 RES1    0.0000
     37 H17        4.3160    2.1206    6.3830 H         1 RES1    0.0000
     38 C16        4.3720    2.4213    8.4322 C.3       1 RES1    0.0000
     39 H18        5.2682    2.0062    8.5017 H         1 RES1    0.0000
     40 H19        3.7003    1.7286    8.6535 H         1 RES1    0.0000
     41 C17        4.2673    3.5668    9.4551 C.3       1 RES1    0.0000
     42 C18        5.0371    4.8352    9.0321 C.3       1 RES1    0.0000
     43 H20        6.0157    4.7147    9.1967 H         1 RES1    0.0000
     44 C19        4.4503    5.8091   10.0509 C.3       1 RES1    0.0000
     45 H21        4.6216    6.7525    9.7635 H         1 RES1    0.0000
     46 C20        4.9699    5.5875   11.4918 C.3       1 RES1    0.0000
     47 C21        4.5610    4.1657   11.9230 C.3       1 RES1    0.0000
     48 H22        5.0713    3.9162   12.7323 H         1 RES1    0.0000
     49 H23        3.5995    4.1645   12.1588 H         1 RES1    0.0000
     50 C22        4.8099    3.1139   10.8296 C.3       1 RES1    0.0000
     51 H24        4.3713    2.2655   11.0894 H         1 RES1    0.0000
     52 H25        5.7826    2.9447   10.7554 H         1 RES1    0.0000
     53 C23        6.7960    7.3612   -1.3765 C.3       1 RES1    0.0000
     54 H26        5.8741    7.0362   -1.3090 H         1 RES1    0.0000
     55 H27        7.0772    7.3515   -2.3144 H         1 RES1    0.0000
     56 H28        6.8467    8.2766   -1.0290 H         1 RES1    0.0000
     57 C24        9.1490    6.9948   -0.5803 C.3       1 RES1    0.0000
     58 H29        9.7206    6.4287   -0.0202 H         1 RES1    0.0000
     59 H30        9.1575    7.9114   -0.2328 H         1 RES1    0.0000
     60 H31        9.4868    6.9899   -1.5013 H         1 RES1    0.0000
     61 C25        4.2594    7.0118    2.8288 C.3       1 RES1    0.0000
     62 H32        4.4312    7.5523    2.0310 H         1 RES1    0.0000
     63 H33        3.9347    7.5901    3.5491 H         1 RES1    0.0000
     64 H34        3.5824    6.3338    2.6247 H         1 RES1    0.0000
     65 C26        3.2136    4.7537    4.9293 C.3       1 RES1    0.0000
     66 H35        3.0312    5.1785    4.0653 H         1 RES1    0.0000
     67 H36        2.8962    5.3331    5.6543 H         1 RES1    0.0000
     68 H37        2.7500    3.8906    4.9728 H         1 RES1    0.0000
     69 C27        6.5273    3.5899    6.7012 C.3       1 RES1    0.0000
     70 H38        6.7466    3.4548    7.6482 H         1 RES1    0.0000
     71 H39        7.1246    4.2692    6.3223 H         1 RES1    0.0000
     72 H40        6.6413    2.7463    6.2144 H         1 RES1    0.0000
     73 C28        2.8580    4.1365    9.5995 C.3       1 RES1    0.0000
     74 H41        2.3720    4.0793    8.7379 H         1 RES1    0.0000
     75 H42        2.3496    3.6325   10.2830 H         1 RES1    0.0000
     76 C29        6.4865    5.7543   11.5522 C.3       1 RES1    0.0000
     77 H43        6.7631    5.8980   12.4827 H         1 RES1    0.0000
     78 H44        6.7519    6.5273   11.0118 H         1 RES1    0.0000
     79 H45        6.9185    4.9472   11.2041 H         1 RES1    0.0000
     80 C30        4.3114    6.6174   12.4010 C.3       1 RES1    0.0000
     81 H46        4.5676    6.4433   13.3295 H         1 RES1    0.0000
     82 H47        3.3374    6.5541   12.3140 H         1 RES1    0.0000
     83 H48        4.6058    7.5158   12.1419 H         1 RES1    0.0000
     84 C31        4.8494    4.1925   -0.6690 C.3       1 RES1    0.0000
     85 H49        4.9238    3.3623   -1.1842 H         1 RES1    0.0000
     86 H50        4.7414    4.9497   -1.2820 H         1 RES1    0.0000
     87 H51        4.0710    4.1389   -0.0742 H         1 RES1    0.0000
@<TRIPOS>BOND
     1    1    5 1
     2    2    3 1
     3    3   12 1
     4    4   44 1
     5    5   12 1
     6    6    7 1
     7    8    6 1
     8    9    6 1
     9   10    9 1
    10   11    9 1
    11   12    9 1
    12   13   12 1
    13   14   13 1
    14   15    2 1
    15   16   15 1
    16   17   16 1
    17   18   16 1
    18   19   16 1
    19   20   19 1
    20   21   19 1
    21   22   19 1
    22   23   22 1
    23   24   23 1
    24   25    6 1
    25   26   23 1
    26   27   26 1
    27   28   26 1
    28   29   26 1
    29   30   29 1
    30   31   29 1
    31   32   29 1
    32   33   32 1
    33   34   22 1
    34   35   34 1
    35   36   35 1
    36   37   35 1
    37   38   35 1
    38   39   38 1
    39   40   38 1
    40   41   38 1
    41   42   32 1
    42   43   42 1
    43   44   42 1
    44   45   44 1
    45   46   44 1
    46   47   46 1
    47   48   47 1
    48   49   47 1
    49   50   41 1
    50   51   50 1
    51   52   50 1
    52   53   13 1
    53   54   53 1
    54   55   53 1
    55   56   53 1
    56   57   13 1
    57   58   57 1
    58   59   57 1
    59   60   57 1
    60   61   25 1
    61   62   61 1
    62   63   61 1
    63   64   61 1
    64   65   22 1
    65   66   65 1
    66   67   65 1
    67   68   65 1
    68   69   34 1
    69   70   69 1
    70   71   69 1
    71   72   69 1
    72   73    4 1
    73   74   73 1
    74   75   73 1
    75   76   46 1
    76   77   76 1
    77   78   76 1
    78   79   76 1
    79   80   46 1
    80   81   80 1
    81   82   80 1
    82   83   80 1
    83   84    1 1
    84   85   84 1
    85   86   84 1
    86   87   84 1
    87    5   15 1
    88   15   25 1
    89   23   25 1
    90   32   34 1
    91   41   42 1
    92   41   73 1
    93   47   50 1
@<TRIPOS>SUBSTRUCTURE
     1 RES1 1

@<TRIPOS>CRYSIN
   6.5853   12.1733   33.7370  90.0000  90.0000  90.0000  19 1

