# MOL2 file generated by ConQuest
# Please check atom types

@<TRIPOS>MOLECULE
OLIBUH
   107   106     2
SMALL
NO_CHARGES
****
Generated from CSD

@<TRIPOS>ATOM
      1 O1        -1.0382   -0.1506    3.1075 O.3       1 RES1    0.0000
      2 O2         1.5538    0.3430    4.3431 O.3       1 RES1    0.0000
      3 O3         2.3764    3.4517    3.4136 O.3       1 RES1    0.0000
      4 O4        -0.2564    3.4263    4.8921 O.3       1 RES1    0.0000
      5 O5        -4.1166    1.4780    3.8169 O.2       1 RES1    0.0000
      6 O6        -3.2520    0.5100    5.5362 O.2       1 RES1    0.0000
      7 O7        -3.7467    5.7369    4.9172 O.2       1 RES1    0.0000
      8 O8        -2.8082    4.4014    3.4196 O.3       1 RES1    0.0000
      9 N1        -3.5696    5.0579    7.4363 N.3       1 RES1    0.0000
     10 H1        -3.8557    5.6239    6.8555 H         1 RES1    0.0000
     11 N2        -3.1711    1.1930    4.5388 N.pl3     1 RES1    0.0000
     12 C1        -0.9840   -1.5238    3.5033 C.3       1 RES1    0.0000
     13 H2        -1.7935   -1.7701    3.9762 H         1 RES1    0.0000
     14 H3        -0.2269   -1.6734    4.0907 H         1 RES1    0.0000
     15 C2        -0.8407   -2.3422    2.2570 C.ar      1 RES1    0.0000
     16 C3        -0.0882   -3.4710    2.4329 C.ar      1 RES1    0.0000
     17 H4         0.1938   -3.7092    3.2875 H         1 RES1    0.0000
     18 C4         0.2563   -4.2589    1.3542 C.ar      1 RES1    0.0000
     19 H5         0.7747   -5.0203    1.4853 H         1 RES1    0.0000
     20 C5        -0.1561   -3.9301    0.1112 C.ar      1 RES1    0.0000
     21 H6         0.0544   -4.4737   -0.6140 H         1 RES1    0.0000
     22 C6        -0.8801   -2.7982   -0.0664 C.ar      1 RES1    0.0000
     23 H7        -1.1407   -2.5458   -0.9227 H         1 RES1    0.0000
     24 C7        -1.2256   -2.0327    0.9941 C.ar      1 RES1    0.0000
     25 H8        -1.7422   -1.2724    0.8547 H         1 RES1    0.0000
     26 C8         2.3180   -0.1476    3.2626 C.3       1 RES1    0.0000
     27 H9         2.7165    0.5873    2.7714 H         1 RES1    0.0000
     28 H10        1.7549   -0.6545    2.6569 H         1 RES1    0.0000
     29 C9         3.3790   -1.0220    3.8318 C.ar      1 RES1    0.0000
     30 C10        3.0497   -2.0327    4.7064 C.ar      1 RES1    0.0000
     31 H11        2.1588   -2.1600    4.9421 H         1 RES1    0.0000
     32 C11        4.0018   -2.8491    5.2308 C.ar      1 RES1    0.0000
     33 H12        3.7503   -3.5433    5.7951 H         1 RES1    0.0000
     34 C12        5.2949   -2.6659    4.9437 C.ar      1 RES1    0.0000
     35 H13        5.9425   -3.2186    5.3204 H         1 RES1    0.0000
     36 C13        5.6533   -1.6744    4.1057 C.ar      1 RES1    0.0000
     37 H14        6.5498   -1.5543    3.8899 H         1 RES1    0.0000
     38 C14        4.6993   -0.8326    3.5597 C.ar      1 RES1    0.0000
     39 H15        4.9619   -0.1344    3.0054 H         1 RES1    0.0000
     40 C15        2.1204    3.1881    4.7612 C.3       1 RES1    0.0000
     41 H16        2.1130    4.0248    5.2524 H         1 RES1    0.0000
     42 H17        2.8369    2.6404    5.1180 H         1 RES1    0.0000
     43 C16        3.7878    3.7255    3.2659 C.3       1 RES1    0.0000
     44 H18        4.3048    2.9285    3.4468 H         1 RES1    0.0000
     45 H19        4.0596    4.4167    3.8949 H         1 RES1    0.0000
     46 C17        4.0295    4.1887    1.8736 C.ar      1 RES1    0.0000
     47 C18        4.5295    3.1840    1.0538 C.ar      1 RES1    0.0000
     48 H20        4.6565    2.3269    1.3923 H         1 RES1    0.0000
     49 C19        4.8395    3.4588   -0.2738 C.ar      1 RES1    0.0000
     50 H21        5.1739    2.7860   -0.8231 H         1 RES1    0.0000
     51 C20        4.6484    4.7383   -0.7816 C.ar      1 RES1    0.0000
     52 H22        4.8558    4.9226   -1.6695 H         1 RES1    0.0000
     53 C21        4.1496    5.7440    0.0382 C.ar      1 RES1    0.0000
     54 H23        4.0214    6.6001   -0.3004 H         1 RES1    0.0000
     55 C22        3.8396    5.4692    1.3658 C.ar      1 RES1    0.0000
     56 H24        3.5052    6.1410    1.9151 H         1 RES1    0.0000
     57 C23        0.8114    2.4837    4.9769 C.3       1 RES1    0.0000
     58 H25        0.8151    2.1172    5.8863 H         1 RES1    0.0000
     59 C24        0.5853    1.3416    4.0227 C.3       1 RES1    0.0000
     60 H26        0.7125    1.6470    3.1000 H         1 RES1    0.0000
     61 C25       -0.7842    0.7349    4.1787 C.3       1 RES1    0.0000
     62 H27       -0.8130    0.2311    5.0184 H         1 RES1    0.0000
     63 C26       -1.8496    1.8180    4.2185 C.3       1 RES1    0.0000
     64 H28       -1.8977    2.2669    3.3489 H         1 RES1    0.0000
     65 C27       -1.4858    2.8338    5.3072 C.3       1 RES1    0.0000
     66 H29       -1.2990    2.3259    6.1236 H         1 RES1    0.0000
     67 C28       -2.4831    3.8924    5.6673 C.2       1 RES1    0.0000
     68 C29       -3.0785    4.7475    4.6749 C.2       1 RES1    0.0000
     69 C30       -3.4691    5.1323    2.3698 C.3       1 RES1    0.0000
     70 H30       -3.0801    6.0168    2.2885 H         1 RES1    0.0000
     71 H31       -4.4102    5.2330    2.5806 H         1 RES1    0.0000
     72 C31       -3.3189    4.4055    1.1102 C.3       1 RES1    0.0000
     73 H32       -2.3862    4.3159    0.9011 H         1 RES1    0.0000
     74 H33       -3.7588    4.8900    0.4066 H         1 RES1    0.0000
     75 H34       -3.7127    3.5341    1.1932 H         1 RES1    0.0000
     76 C32       -2.7629    4.0848    7.0015 C.2       1 RES1    0.0000
     77 C33       -2.1899    3.2054    8.0570 C.ar      1 RES1    0.0000
     78 C34       -2.8340    2.0674    8.4354 C.ar      1 RES1    0.0000
     79 H35       -3.6509    1.8485    8.0470 H         1 RES1    0.0000
     80 C35       -2.2932    1.2408    9.3846 C.ar      1 RES1    0.0000
     81 H36       -2.7299    0.4519    9.6136 H         1 RES1    0.0000
     82 C36       -1.1252    1.5625    9.9920 C.ar      1 RES1    0.0000
     83 H37       -0.7668    1.0077   10.6475 H         1 RES1    0.0000
     84 C37       -0.4801    2.7158    9.6319 C.ar      1 RES1    0.0000
     85 H38        0.3218    2.9417   10.0468 H         1 RES1    0.0000
     86 C38       -0.9987    3.5403    8.6694 C.ar      1 RES1    0.0000
     87 H39       -0.5529    4.3200    8.4304 H         1 RES1    0.0000
     88 C39       -4.0057    5.2361    8.8220 C.3       1 RES1    0.0000
     89 H40       -3.2291    5.2819    9.4012 H         1 RES1    0.0000
     90 H41       -4.5390    4.4727    9.0942 H         1 RES1    0.0000
     91 C40       -4.8096    6.4820    8.9681 C.ar      1 RES1    0.0000
     92 C41       -4.4774    7.6801    8.3673 C.ar      1 RES1    0.0000
     93 H42       -3.7368    7.7096    7.8064 H         1 RES1    0.0000
     94 C42       -5.1957    8.8160    8.5698 C.ar      1 RES1    0.0000
     95 H43       -4.9540    9.6029    8.1366 H         1 RES1    0.0000
     96 C43       -6.2476    8.8018    9.3912 C.ar      1 RES1    0.0000
     97 H44       -6.7184    9.5876    9.5539 H         1 RES1    0.0000
     98 C44       -6.6353    7.6454    9.9903 C.ar      1 RES1    0.0000
     99 H45       -7.3866    7.6404   10.5363 H         1 RES1    0.0000
    100 C45       -5.9174    6.4718    9.7929 C.ar      1 RES1    0.0000
    101 H46       -6.1817    5.6850   10.2127 H         1 RES1    0.0000
    102 C46       -1.5341   -1.4627    3.2759 Du        2 SUP2    0.0000
    103 C47        3.4565    4.4177    3.2245 Du        2 SUP2    0.0000
    104 H47       -2.4970   -1.4780    3.1315 Du        2 SUP2    0.0000
    105 H48       -1.3558   -1.7793    4.1737 Du        2 SUP2    0.0000
    106 H49        4.1430    4.2915    3.9015 Du        2 SUP2    0.0000
    107 H50        3.1192    5.3226    3.2942 Du        2 SUP2    0.0000
@<TRIPOS>BOND
     1    1   12 1
     2    2   26 1
     3    3   40 1
     4    4   57 1
     5    5   11 2
     6    6   11 2
     7    7   68 2
     8    8   68 1
     9    9   10 1
    10   11   63 1
    11   12   13 1
    12   14   12 1
    13   15   12 1
    14   16   15 ar
    15   17   16 1
    16   18   16 ar
    17   19   18 1
    18   20   18 ar
    19   21   20 1
    20   22   20 ar
    21   23   22 1
    22   24   15 ar
    23   25   24 1
    24   26   27 1
    25   28   26 1
    26   29   26 1
    27   30   29 ar
    28   31   30 1
    29   32   30 ar
    30   33   32 1
    31   34   32 ar
    32   35   34 1
    33   36   34 ar
    34   37   36 1
    35   38   29 ar
    36   39   38 1
    37   40   41 1
    38   42   40 1
    39   43    3 1
    40   44   43 1
    41   45   43 1
    42   46   43 1
    43   47   46 ar
    44   48   47 1
    45   49   47 ar
    46   50   49 1
    47   51   49 ar
    48   52   51 1
    49   53   51 ar
    50   54   53 1
    51   55   46 ar
    52   56   55 1
    53   57   40 1
    54   58   57 1
    55   59    2 1
    56   60   59 1
    57   61    1 1
    58   62   61 1
    59   63   61 1
    60   64   63 1
    61   65    4 1
    62   66   65 1
    63   67   65 1
    64   68   67 1
    65   69    8 1
    66   70   69 1
    67   71   69 1
    68   72   69 1
    69   73   72 1
    70   74   72 1
    71   75   72 1
    72   76    9 1
    73   77   76 1
    74   78   77 ar
    75   79   78 1
    76   80   78 ar
    77   81   80 1
    78   82   80 ar
    79   83   82 1
    80   84   82 ar
    81   85   84 1
    82   86   77 ar
    83   87   86 1
    84   88    9 1
    85   89   88 1
    86   90   88 1
    87   91   88 1
    88   92   91 ar
    89   93   92 1
    90   94   92 ar
    91   95   94 1
    92   96   94 ar
    93   97   96 1
    94   98   96 ar
    95   99   98 1
    96  100   91 ar
    97  101  100 1
    98   22   24 ar
    99   36   38 ar
   100   53   55 ar
   101   57   59 1
   102   59   61 1
   103   63   65 1
   104   67   76 2
   105   84   86 ar
   106   98  100 ar
@<TRIPOS>SUBSTRUCTURE
     1 RES1 1
     2 SUP2 102

@<TRIPOS>CRYSIN
  11.8170   10.1790   16.6420  90.0000  94.2960  90.0000   4 1

