# MOL2 file generated by ConQuest
# Please check atom types

@<TRIPOS>MOLECULE
OLIGAR
    34    36     1
SMALL
NO_CHARGES
****
Generated from CSD

@<TRIPOS>ATOM
      1 O1        -1.1248    4.8018    8.4980 O.3       1 RES1    0.0000
      2 O2        -0.0649    3.2987    5.8869 O.2       1 RES1    0.0000
      3 O3         2.1980    3.7303    9.6059 O.3       1 RES1    0.0000
      4 O4        -0.1763    6.1948    7.0088 O.2       1 RES1    0.0000
      5 O5        -1.6112   -0.6948   12.5236 O.2       1 RES1    0.0000
      6 O6        -1.9873   -1.7507   10.6799 O.2       1 RES1    0.0000
      7 N1        -1.6439   -0.7596   11.3046 N.pl3     1 RES1    0.0000
      8 C1        -0.4079    2.6496    9.1146 C.ar      1 RES1    0.0000
      9 C2        -0.6612    1.4403    8.4618 C.ar      1 RES1    0.0000
     10 C3         0.5077    3.6471    6.8953 C.2       1 RES1    0.0000
     11 C4        -0.0117    3.8874    8.3530 C.3       1 RES1    0.0000
     12 C5        -0.5841    2.7376   10.5067 C.ar      1 RES1    0.0000
     13 C6        -1.2274    0.4454   10.5442 C.ar      1 RES1    0.0000
     14 C7        -1.0658    0.3247    9.1754 C.ar      1 RES1    0.0000
     15 C8        -1.0988    5.9378    7.7540 C.2       1 RES1    0.0000
     16 C9         1.4449    4.4510    8.6595 C.3       1 RES1    0.0000
     17 C10        1.9319    4.0341    7.2392 C.3       1 RES1    0.0000
     18 C11       -0.9844    1.6271   11.2344 C.ar      1 RES1    0.0000
     19 C12        2.9507    2.9180    7.4884 C.3       1 RES1    0.0000
     20 C13        2.7603    2.5667    8.9601 C.3       1 RES1    0.0000
     21 C14       -2.3035    6.7731    7.9763 C.3       1 RES1    0.0000
     22 H1        -0.5620    1.3851    7.5200 H         1 RES1    0.0000
     23 H2        -0.4354    3.5731   10.9513 H         1 RES1    0.0000
     24 H3        -1.2310   -0.5041    8.7332 H         1 RES1    0.0000
     25 H4        -1.0961    1.6754   12.1867 H         1 RES1    0.0000
     26 H5         2.7697    2.1538    6.9281 H         1 RES1    0.0000
     27 H6         3.8411    3.2063    7.3176 H         1 RES1    0.0000
     28 H7         3.5886    2.3338    9.3778 H         1 RES1    0.0000
     29 H8         2.1586    1.8191    9.0666 H         1 RES1    0.0000
     30 H9         2.2699    4.7555    6.7116 H         1 RES1    0.0000
     31 H10        1.4564    5.3969    8.8104 H         1 RES1    0.0000
     32 H11       -2.2557    7.5687    7.4545 H         1 RES1    0.0000
     33 H12       -3.0860    6.2898    7.7388 H         1 RES1    0.0000
     34 H13       -2.3625    7.0191    8.9017 H         1 RES1    0.0000
@<TRIPOS>BOND
     1    1   11 1
     2    2   10 2
     3    3   16 1
     4    4   15 2
     5    5    7 2
     6    6    7 2
     7    7   13 1
     8    8    9 ar
     9    9   14 ar
    10   10   11 1
    11   11    8 1
    12   12    8 ar
    13   13   14 ar
    14   14   24 1
    15   15    1 1
    16   16   11 1
    17   17   10 1
    18   18   12 ar
    19   19   17 1
    20   20    3 1
    21   21   15 1
    22   22    9 1
    23   23   12 1
    24   25   18 1
    25   26   19 1
    26   27   19 1
    27   28   20 1
    28   29   20 1
    29   30   17 1
    30   31   16 1
    31   32   21 1
    32   33   21 1
    33   34   21 1
    34   13   18 ar
    35   16   17 1
    36   19   20 1
@<TRIPOS>SUBSTRUCTURE
     1 RES1 1

@<TRIPOS>CRYSIN
   6.9565    8.7384   12.3020  72.0310  84.7870  76.9800   2 1

