# MOL2 file generated by ConQuest
# Please check atom types

@<TRIPOS>MOLECULE
OLIHIA
    32    32     1
SMALL
NO_CHARGES
****
Generated from CSD

@<TRIPOS>ATOM
      1 C1        -5.2704    7.2237    3.5140 C.ar      1 RES1    0.0000
      2 C2        -4.5246    8.3950    3.3868 C.ar      1 RES1    0.0000
      3 C3        -4.8747    9.4549    4.2301 C.ar      1 RES1    0.0000
      4 H1        -4.3770   10.2400    4.2057 H         1 RES1    0.0000
      5 C4        -5.9339    9.3626    5.0924 C.ar      1 RES1    0.0000
      6 H2        -6.1638   10.0930    5.6189 H         1 RES1    0.0000
      7 C5        -6.6596    8.2060    5.1858 C.ar      1 RES1    0.0000
      8 H3        -7.3706    8.1504    5.7827 H         1 RES1    0.0000
      9 C6        -6.3409    7.1272    4.4006 C.ar      1 RES1    0.0000
     10 H4        -6.8326    6.3400    4.4589 H         1 RES1    0.0000
     11 N1        -5.0013    6.0661    2.6639 N.pl3     1 RES1    0.0000
     12 O1        -5.9082    5.2769    2.4934 O.2       1 RES1    0.0000
     13 O2        -3.8763    5.9129    2.1929 O.2       1 RES1    0.0000
     14 N2        -3.4760    8.5030    2.4744 N.pl3     1 RES1    0.0000
     15 H5        -3.0834    7.7715    2.2484 H         1 RES1    0.0000
     16 C7        -3.0028    9.6575    1.8978 C.2       1 RES1    0.0000
     17 C8        -1.7619    9.7583    1.3997 C.2       1 RES1    0.0000
     18 H6        -1.5260   10.5443    0.9597 H         1 RES1    0.0000
     19 C9        -0.7682    8.7109    1.5079 C.2       1 RES1    0.0000
     20 O3        -0.9746    7.5732    1.9051 O.2       1 RES1    0.0000
     21 O4         0.4373    9.1244    1.1073 O.3       1 RES1    0.0000
     22 C10        1.5091    8.1767    1.2156 C.3       1 RES1    0.0000
     23 H7         2.3234    8.5786    0.9029 H         1 RES1    0.0000
     24 H8         1.3084    7.4042    0.6822 H         1 RES1    0.0000
     25 H9         1.6138    7.9143    2.1333 H         1 RES1    0.0000
     26 C11       -4.0008   10.7595    1.6528 C.2       1 RES1    0.0000
     27 O5        -5.1683   10.5758    1.4612 O.2       1 RES1    0.0000
     28 O6        -3.4055   11.9507    1.6589 O.3       1 RES1    0.0000
     29 C12       -4.2676   13.0789    1.3523 C.3       1 RES1    0.0000
     30 H10       -3.7568   13.8901    1.3875 H         1 RES1    0.0000
     31 H11       -4.9797   13.1208    1.9952 H         1 RES1    0.0000
     32 H12       -4.6365   12.9697    0.4724 H         1 RES1    0.0000
@<TRIPOS>BOND
     1    1    2 ar
     2    2    3 ar
     3    3    4 1
     4    5    3 ar
     5    6    5 1
     6    7    5 ar
     7    8    7 1
     8    9    1 ar
     9   10    9 1
    10   11    1 1
    11   12   11 2
    12   13   11 2
    13   14    2 1
    14   15   14 1
    15   16   14 1
    16   17   16 2
    17   18   17 1
    18   19   17 1
    19   20   19 2
    20   21   19 1
    21   22   21 1
    22   23   22 1
    23   24   22 1
    24   25   22 1
    25   26   16 1
    26   27   26 2
    27   28   26 1
    28   29   28 1
    29   30   29 1
    30   31   29 1
    31   32   29 1
    32    7    9 ar
@<TRIPOS>SUBSTRUCTURE
     1 RES1 1

@<TRIPOS>CRYSIN
   9.2990   10.4950   13.6400  90.0000  97.0700  90.0000 231 1

