# MOL2 file generated by ConQuest
# Please check atom types

@<TRIPOS>MOLECULE
OLIVOV
    32    34     1
SMALL
NO_CHARGES
****
Generated from CSD

@<TRIPOS>ATOM
      1 O1         0.0470    2.8122    1.9695 O.3       1 RES1    0.0000
      2 C1         1.6641   -0.0064    4.5880 C.ar      1 RES1    0.0000
      3 C2        -1.8288    2.2240    5.5886 C.ar      1 RES1    0.0000
      4 H1        -2.5867    2.7196    5.8001 H         1 RES1    0.0000
      5 O2        -1.8942    1.0239    7.7134 O.3       1 RES1    0.0000
      6 C3         3.3432   -0.5504    2.9096 C.ar      1 RES1    0.0000
      7 H2         3.6759   -0.4533    2.0473 H         1 RES1    0.0000
      8 C4         2.1955    0.1565    3.3010 C.ar      1 RES1    0.0000
      9 O3         2.0431    1.2678    1.1874 O.2       1 RES1    0.0000
     10 C5        -1.1924    2.4084    4.3727 C.ar      1 RES1    0.0000
     11 H3        -1.5226    3.0317    3.7667 H         1 RES1    0.0000
     12 C6         3.4671   -1.5352    5.0775 C.ar      1 RES1    0.0000
     13 H4         3.9017   -2.0953    5.6785 H         1 RES1    0.0000
     14 C7         1.6163    1.0954    2.3313 C.2       1 RES1    0.0000
     15 C8        -0.0648    1.6667    4.0561 C.ar      1 RES1    0.0000
     16 C9         0.4685    0.7421    4.9616 C.ar      1 RES1    0.0000
     17 C10        2.3307   -0.8688    5.4721 C.ar      1 RES1    0.0000
     18 H5         2.0005   -0.9914    6.3327 H         1 RES1    0.0000
     19 C11        3.9734   -1.3838    3.7976 C.ar      1 RES1    0.0000
     20 H6         4.7388   -1.8455    3.5404 H         1 RES1    0.0000
     21 C12       -0.1887    0.5799    6.1926 C.ar      1 RES1    0.0000
     22 H7         0.1490   -0.0187    6.8191 H         1 RES1    0.0000
     23 C13       -0.9075    2.2681    1.0270 C.3       1 RES1    0.0000
     24 H8        -0.5113    1.5271    0.5618 H         1 RES1    0.0000
     25 H9        -1.1559    2.9468    0.3956 H         1 RES1    0.0000
     26 H10       -1.6886    1.9691    1.4993 H         1 RES1    0.0000
     27 C14       -1.3301    1.2977    6.4840 C.ar      1 RES1    0.0000
     28 C15       -3.0307    1.7733    8.1112 C.3       1 RES1    0.0000
     29 H11       -2.8049    2.7058    8.1383 H         1 RES1    0.0000
     30 H12       -3.3137    1.4872    8.9834 H         1 RES1    0.0000
     31 H13       -3.7420    1.6345    7.4825 H         1 RES1    0.0000
     32 N1         0.5421    1.8071    2.7971 N.am      1 RES1    0.0000
@<TRIPOS>BOND
     1    1   23 1
     2    2    8 ar
     3    3    4 1
     4    5   27 1
     5    6    7 1
     6    8    6 ar
     7    9   14 2
     8   10    3 ar
     9   11   10 1
    10   12   13 1
    11   14    8 1
    12   15   10 ar
    13   16    2 1
    14   17    2 ar
    15   18   17 1
    16   19    6 ar
    17   20   19 1
    18   21   16 ar
    19   22   21 1
    20   23   24 1
    21   25   23 1
    22   26   23 1
    23   27    3 ar
    24   28    5 1
    25   29   28 1
    26   30   28 1
    27   31   28 1
    28   32    1 1
    29   12   17 ar
    30   12   19 ar
    31   14   32 1
    32   15   16 ar
    33   15   32 1
    34   21   27 ar
@<TRIPOS>SUBSTRUCTURE
     1 RES1 1

@<TRIPOS>CRYSIN
   6.2890   12.4866   15.3930  90.0000  90.0000  90.0000  19 1

