# MOL2 file generated by ConQuest
# Please check atom types

@<TRIPOS>MOLECULE
OLIVIP
    31    33     1
SMALL
NO_CHARGES
****
Generated from CSD

@<TRIPOS>ATOM
      1 O1         1.4432    6.0697    1.3213 O.2       1 RES1    0.0000
      2 O2         3.5405    7.4375    2.1057 O.3       1 RES1    0.0000
      3 N1         3.2261    6.2231    2.7111 N.am      1 RES1    0.0000
      4 C1         2.1073    5.5841    2.2389 C.2       1 RES1    0.0000
      5 C2         4.0376    5.8198    3.7800 C.ar      1 RES1    0.0000
      6 C3         2.6314    3.8042    3.9147 C.ar      1 RES1    0.0000
      7 C4         5.0927    6.6235    4.2048 C.ar      1 RES1    0.0000
      8 H1         5.2623    7.4286    3.7699 H         1 RES1    0.0000
      9 C5         1.8239    4.2956    2.8803 C.ar      1 RES1    0.0000
     10 C6         5.8879    6.2395    5.2623 C.ar      1 RES1    0.0000
     11 C7         0.7283    3.5643    2.4217 C.ar      1 RES1    0.0000
     12 H2         0.1882    3.9109    1.7476 H         1 RES1    0.0000
     13 C8         3.7465    4.6058    4.3944 C.ar      1 RES1    0.0000
     14 C9         2.3091    2.5409    4.4331 C.ar      1 RES1    0.0000
     15 H3         2.8333    2.1822    5.1120 H         1 RES1    0.0000
     16 C10        0.4453    2.3374    2.9618 C.ar      1 RES1    0.0000
     17 H4        -0.2839    1.8496    2.6532 H         1 RES1    0.0000
     18 C11        4.5679    4.2354    5.4669 C.ar      1 RES1    0.0000
     19 H5         4.4065    3.4333    5.9087 H         1 RES1    0.0000
     20 C12        4.3071    7.1933    0.9103 C.3       1 RES1    0.0000
     21 H6         5.1374    6.7712    1.1439 H         1 RES1    0.0000
     22 H7         4.4851    8.0270    0.4690 H         1 RES1    0.0000
     23 H8         3.8099    6.6200    0.3226 H         1 RES1    0.0000
     24 C13        1.2453    1.8251    3.9659 C.ar      1 RES1    0.0000
     25 H9         1.0576    0.9885    4.3244 H         1 RES1    0.0000
     26 C14        5.6022    5.0298    5.8774 C.ar      1 RES1    0.0000
     27 H10        6.1292    4.7513    6.5902 H         1 RES1    0.0000
     28 C15        7.0274    7.1045    5.7302 C.3       1 RES1    0.0000
     29 H11        6.8657    7.3856    6.6342 H         1 RES1    0.0000
     30 H12        7.0968    7.8758    5.1638 H         1 RES1    0.0000
     31 H13        7.8461    6.6040    5.6911 H         1 RES1    0.0000
@<TRIPOS>BOND
     1    1    4 2
     2    2    3 1
     3    3    4 1
     4    4    9 1
     5    5    3 1
     6    6    9 ar
     7    7    5 ar
     8    8    7 1
     9    9   11 ar
    10   10    7 ar
    11   11   12 1
    12   13    5 ar
    13   14    6 ar
    14   15   14 1
    15   16   11 ar
    16   17   16 1
    17   18   13 ar
    18   19   18 1
    19   20    2 1
    20   21   20 1
    21   22   20 1
    22   23   20 1
    23   24   14 ar
    24   25   24 1
    25   26   10 ar
    26   27   26 1
    27   28   10 1
    28   29   28 1
    29   30   28 1
    30   31   28 1
    31    6   13 1
    32   16   24 ar
    33   18   26 ar
@<TRIPOS>SUBSTRUCTURE
     1 RES1 1

@<TRIPOS>CRYSIN
   5.9671   15.9172   13.0085  90.0000  95.2010  90.0000 231 1

