# MOL2 file generated by ConQuest
# Please check atom types

@<TRIPOS>MOLECULE
OLIVEL
    42    44     1
SMALL
NO_CHARGES
****
Generated from CSD

@<TRIPOS>ATOM
      1 C1         0.1360    7.5554   10.9696 C.3       1 RES1    0.0000
      2 C2        -1.0347    7.9412   10.0491 C.3       1 RES1    0.0000
      3 H1        -1.0972    7.2930    9.3308 H         1 RES1    0.0000
      4 H2        -1.8600    7.9014   10.5566 H         1 RES1    0.0000
      5 C3        -0.8905    9.3264    9.4504 C.3       1 RES1    0.0000
      6 H3        -1.6982    9.5501    8.9607 H         1 RES1    0.0000
      7 H4        -0.1507    9.3306    8.8219 H         1 RES1    0.0000
      8 C4        -0.6460   10.3729   10.5212 C.3       1 RES1    0.0000
      9 H5        -0.4668   11.2322   10.1105 H         1 RES1    0.0000
     10 H6        -1.4317   10.4607   11.0853 H         1 RES1    0.0000
     11 C5         0.5302    9.9442   11.3479 C.3       1 RES1    0.0000
     12 H7         1.3251    9.8794   10.7780 H         1 RES1    0.0000
     13 C6         0.8767   10.7064   12.6200 C.3       1 RES1    0.0000
     14 H8         1.4575   11.4601   12.4300 H         1 RES1    0.0000
     15 H9         0.0763   11.0263   13.0677 H         1 RES1    0.0000
     16 C7         1.5889    9.6599   13.4533 C.3       1 RES1    0.0000
     17 H10        2.5437    9.8815   13.4807 H         1 RES1    0.0000
     18 C8         1.3830    7.4226   10.1826 C.1       1 RES1    0.0000
     19 C9        -0.1636    6.2287   11.6651 C.ar      1 RES1    0.0000
     20 C10       -0.7747    6.2016   12.9018 C.ar      1 RES1    0.0000
     21 H11       -0.9612    6.9982   13.3420 H         1 RES1    0.0000
     22 C11       -1.1101    4.9920   13.4890 C.ar      1 RES1    0.0000
     23 H12       -1.5273    4.9847   14.3200 H         1 RES1    0.0000
     24 C12       -0.8344    3.8106   12.8592 C.ar      1 RES1    0.0000
     25 H13       -1.0623    3.0015   13.2594 H         1 RES1    0.0000
     26 C13       -0.2178    3.8294   11.6327 C.ar      1 RES1    0.0000
     27 H14       -0.0239    3.0297   11.2009 H         1 RES1    0.0000
     28 C14        0.1139    5.0212   11.0410 C.ar      1 RES1    0.0000
     29 H15        0.5312    5.0192   10.2097 H         1 RES1    0.0000
     30 C15        1.0963    9.5104   14.8618 C.3       1 RES1    0.0000
     31 H16        0.1728    9.2135   14.8519 H         1 RES1    0.0000
     32 H17        1.1294   10.3718   15.3079 H         1 RES1    0.0000
     33 C16        1.9307    8.5193   15.6264 C.3       1 RES1    0.0000
     34 H18        1.9022    7.6819   15.1394 H         1 RES1    0.0000
     35 H19        2.8487    8.8319   15.5954 H         1 RES1    0.0000
     36 C17        1.6174    8.2098   17.0558 C.3       1 RES1    0.0000
     37 H20        1.3141    9.0075   17.4952 H         1 RES1    0.0000
     38 H21        2.4067    7.8826   17.4919 H         1 RES1    0.0000
     39 H22        0.9291    7.5418   17.0954 H         1 RES1    0.0000
     40 N1         2.3406    7.3212    9.5733 N.1       1 RES1    0.0000
     41 N2         0.2371    8.6348   11.9344 N.3       1 RES1    0.0000
     42 O1         1.4308    8.4038   12.7515 O.3       1 RES1    0.0000
@<TRIPOS>BOND
     1    1    2 1
     2    2    3 1
     3    4    2 1
     4    5    2 1
     5    6    5 1
     6    7    5 1
     7    8    5 1
     8    9    8 1
     9   10    8 1
    10   11    8 1
    11   12   11 1
    12   13   11 1
    13   14   13 1
    14   15   13 1
    15   16   13 1
    16   17   16 1
    17   18    1 1
    18   19    1 1
    19   20   19 ar
    20   21   20 1
    21   22   20 ar
    22   23   22 1
    23   24   22 ar
    24   25   24 1
    25   26   24 ar
    26   27   26 1
    27   28   19 ar
    28   29   28 1
    29   30   16 1
    30   31   30 1
    31   32   30 1
    32   33   30 1
    33   34   33 1
    34   35   33 1
    35   36   33 1
    36   37   36 1
    37   38   36 1
    38   39   36 1
    39   40   18 3
    40   41    1 1
    41   42   16 1
    42   11   41 1
    43   26   28 ar
    44   41   42 1
@<TRIPOS>SUBSTRUCTURE
     1 RES1 1

@<TRIPOS>CRYSIN
   9.1895   10.4544   33.0410  90.0000  90.0000  90.0000  61 1

