# MOL2 file generated by ConQuest
# Please check atom types

@<TRIPOS>MOLECULE
OLOBIA
    13    12     1
SMALL
NO_CHARGES
****
Generated from CSD

@<TRIPOS>ATOM
      1 N1         4.7930    4.8868    4.2282 N.pl3     1 RES1    0.0000
      2 O1         6.0173    4.9908    4.1503 O.2       1 RES1    0.0000
      3 O2         4.2543    4.1898    5.0998 O.2       1 RES1    0.0000
      4 N2         3.9248    5.5265    3.4149 N.2       1 RES1    0.0000
      5 C1         4.4252    6.3004    2.4401 C.2       1 RES1    0.0000
      6 N3         5.6552    6.4850    2.0522 N.3       1 RES1    0.0000
      7 H1         6.2606    6.0524    2.5190 H         1 RES1    0.0000
      8 H2         5.8361    7.0647    1.3253 H         1 RES1    0.0000
      9 N4         3.3673    6.9618    1.8503 N.pl3     1 RES1    0.0000
     10 H3         2.5390    6.7600    2.1144 H         1 RES1    0.0000
     11 N5         3.4161    7.7346    0.7178 N.pl3     1 RES1    0.0000
     12 O3         4.4771    7.9023    0.1512 O.2       1 RES1    0.0000
     13 O4         2.3486    8.2001    0.3900 O.2       1 RES1    0.0000
@<TRIPOS>BOND
     1    1    2 2
     2    3    1 2
     3    4    1 1
     4    5    4 2
     5    6    5 1
     6    7    6 1
     7    8    6 1
     8    9    5 1
     9   10    9 1
    10   11    9 1
    11   12   11 2
    12   13   11 2
@<TRIPOS>SUBSTRUCTURE
     1 RES1 1

@<TRIPOS>CRYSIN
   9.6465   10.7694    5.0583  90.0000  90.0000  90.0000  19 1

