# MOL2 file generated by ConQuest
# Please check atom types

@<TRIPOS>MOLECULE
OLUTUM
    29    30     1
SMALL
NO_CHARGES
****
Generated from CSD

@<TRIPOS>ATOM
      1 O1         0.5304    1.0805   10.9926 O.3       1 RES1    0.0000
      2 H1         1.0119    1.7013   11.2901 H         1 RES1    0.0000
      3 N1         1.7499    3.3569   10.9869 N.2       1 RES1    0.0000
      4 C1         0.3035    2.6909    9.2304 C.ar      1 RES1    0.0000
      5 N2         2.6177    4.2321   11.5307 N.pl3     1 RES1    0.0000
      6 H2         2.9121    4.9279   11.0397 H         1 RES1    0.0000
      7 C2        -1.1276    2.1021    7.4091 C.ar      1 RES1    0.0000
      8 C3         1.2299    3.6193    9.8466 C.2       1 RES1    0.0000
      9 H3         1.4526    4.4288    9.4016 H         1 RES1    0.0000
     10 O2        -2.3645    1.6104    5.5272 O.2       1 RES1    0.0000
     11 N3         3.9267    4.9542   13.2474 N.ar      1 RES1    0.0000
     12 C4        -0.2739    2.9922    8.0106 C.ar      1 RES1    0.0000
     13 H4        -0.0784    3.8200    7.5865 H         1 RES1    0.0000
     14 N4        -1.7181    2.4588    6.1338 N.pl3     1 RES1    0.0000
     15 C5         4.4338    4.7747   14.4780 C.ar      1 RES1    0.0000
     16 H5         4.9886    5.4607   14.8307 H         1 RES1    0.0000
     17 C6         2.8656    2.8161   13.4880 C.ar      1 RES1    0.0000
     18 H6         2.3141    2.1387   13.1144 H         1 RES1    0.0000
     19 C7        -0.8928    0.5734    9.1985 C.ar      1 RES1    0.0000
     20 H7        -1.1102   -0.2527    9.6152 H         1 RES1    0.0000
     21 C8         3.1377    3.9812   12.7806 C.ar      1 RES1    0.0000
     22 O3        -1.5533    3.5987    5.7103 O.2       1 RES1    0.0000
     23 C9         4.2100    3.6793   15.2580 C.ar      1 RES1    0.0000
     24 H8         4.5870    3.6113   16.1265 H         1 RES1    0.0000
     25 C10       -1.4422    0.8884    7.9824 C.ar      1 RES1    0.0000
     26 H9        -2.0269    0.2830    7.5428 H         1 RES1    0.0000
     27 C11       -0.0165    1.4595    9.8305 C.ar      1 RES1    0.0000
     28 C12        3.4135    2.6657   14.7417 C.ar      1 RES1    0.0000
     29 H10        3.2489    1.8785   15.2465 H         1 RES1    0.0000
@<TRIPOS>BOND
     1    1    2 1
     2    3    5 1
     3    4    8 1
     4    5    6 1
     5    7   12 ar
     6    8    3 2
     7    9    8 1
     8   10   14 2
     9   11   15 ar
    10   12    4 ar
    11   13   12 1
    12   14    7 1
    13   15   16 1
    14   17   18 1
    15   19   20 1
    16   21    5 1
    17   22   14 2
    18   23   15 ar
    19   24   23 1
    20   25    7 ar
    21   26   25 1
    22   27    1 1
    23   28   17 ar
    24   29   28 1
    25    4   27 ar
    26   11   21 ar
    27   17   21 ar
    28   19   25 ar
    29   19   27 ar
    30   23   28 ar
@<TRIPOS>SUBSTRUCTURE
     1 RES1 1

@<TRIPOS>CRYSIN
   8.5236    5.7168   22.9928  90.0000  92.2260  90.0000  14 1

