# MOL2 file generated by ConQuest
# Please check atom types

@<TRIPOS>MOLECULE
OMEJUM
    31    33     1
SMALL
NO_CHARGES
****
Generated from CSD

@<TRIPOS>ATOM
      1 O1         2.3270    0.6239    6.6479 O.3       1 RES1    0.0000
      2 O2         1.7729    2.5733    5.4096 O.3       1 RES1    0.0000
      3 N1         2.1419   -0.4217    5.6737 N.2       1 RES1    0.0000
      4 C1         1.0321   -0.2354    5.0720 C.2       1 RES1    0.0000
      5 C2         0.3059    1.0234    5.4729 C.3       1 RES1    0.0000
      6 C3         1.3436    1.6251    6.4217 C.3       1 RES1    0.0000
      7 C4         0.6972    2.1777    4.5004 C.3       1 RES1    0.0000
      8 H1         1.0649    1.8172    3.6431 H         1 RES1    0.0000
      9 C5        -0.3168    3.2615    4.2405 C.ar      1 RES1    0.0000
     10 C6        -0.2945    4.4699    4.9308 C.ar      1 RES1    0.0000
     11 H2         0.3691    4.6254    5.5925 H         1 RES1    0.0000
     12 C7        -1.2388    5.4478    4.6550 C.ar      1 RES1    0.0000
     13 H3        -1.2094    6.2750    5.1210 H         1 RES1    0.0000
     14 C8        -2.2234    5.2290    3.7076 C.ar      1 RES1    0.0000
     15 H4        -2.8758    5.8967    3.5327 H         1 RES1    0.0000
     16 C9        -2.2515    4.0239    3.0133 C.ar      1 RES1    0.0000
     17 H5        -2.9251    3.8674    2.3617 H         1 RES1    0.0000
     18 C10       -1.2984    3.0523    3.2704 C.ar      1 RES1    0.0000
     19 H6        -1.3129    2.2370    2.7829 H         1 RES1    0.0000
     20 C11        1.0239    2.2875    7.7302 C.3       1 RES1    0.0000
     21 H7         0.6542    1.6244    8.3502 H         1 RES1    0.0000
     22 H8         0.3670    2.9995    7.5841 H         1 RES1    0.0000
     23 H9         1.8418    2.6702    8.1108 H         1 RES1    0.0000
     24 C12       -1.1435    0.8370    5.9061 C.3       1 RES1    0.0000
     25 H10       -1.6638    0.4747    5.1591 H         1 RES1    0.0000
     26 H11       -1.5179    1.7015    6.1752 H         1 RES1    0.0000
     27 H12       -1.1811    0.2151    6.6630 H         1 RES1    0.0000
     28 C13        0.5748   -1.1761    4.0121 C.3       1 RES1    0.0000
     29 H13        1.2693   -1.8484    3.8509 H         1 RES1    0.0000
     30 H14        0.4035   -0.6779    3.1854 H         1 RES1    0.0000
     31 H15       -0.2492   -1.6199    4.3029 H         1 RES1    0.0000
@<TRIPOS>BOND
     1    1    3 1
     2    2    6 1
     3    3    4 2
     4    4    5 1
     5    5    6 1
     6    6    1 1
     7    7    2 1
     8    8    7 1
     9    9    7 1
    10   10    9 ar
    11   11   10 1
    12   12   10 ar
    13   13   12 1
    14   14   12 ar
    15   15   14 1
    16   16   14 ar
    17   17   16 1
    18   18    9 ar
    19   19   18 1
    20   20    6 1
    21   21   20 1
    22   22   20 1
    23   23   20 1
    24   24    5 1
    25   25   24 1
    26   26   24 1
    27   27   24 1
    28   28    4 1
    29   29   28 1
    30   30   28 1
    31   31   28 1
    32    5    7 1
    33   16   18 ar
@<TRIPOS>SUBSTRUCTURE
     1 RES1 1

@<TRIPOS>CRYSIN
   9.3804   14.8345    9.0800  90.0000 116.6460  90.0000  14 1

