# MOL2 file generated by ConQuest
# Please check atom types

@<TRIPOS>MOLECULE
OMEKAT
    34    36     1
SMALL
NO_CHARGES
****
Generated from CSD

@<TRIPOS>ATOM
      1 O1         5.8554    1.1976    0.9544 O.3       1 RES1    0.0000
      2 O2         3.5163    0.8729    1.2746 O.3       1 RES1    0.0000
      3 N1         6.3561    1.9009    2.1098 N.2       1 RES1    0.0000
      4 C1         5.8138    1.4160    3.1579 C.2       1 RES1    0.0000
      5 C2         4.8001    0.3363    2.8917 C.3       1 RES1    0.0000
      6 C3         4.8383    0.2759    1.3780 C.3       1 RES1    0.0000
      7 C4         3.3640    0.9365    2.7203 C.3       1 RES1    0.0000
      8 H1         3.3383    1.8867    3.0314 H         1 RES1    0.0000
      9 C5         2.1775    0.1752    3.2377 C.ar      1 RES1    0.0000
     10 C6         1.7688   -1.0372    2.6844 C.ar      1 RES1    0.0000
     11 H2         2.2350   -1.3965    1.9395 H         1 RES1    0.0000
     12 C7         0.6849   -1.7221    3.2139 C.ar      1 RES1    0.0000
     13 H3         0.4235   -2.5497    2.8279 H         1 RES1    0.0000
     14 C8        -0.0248   -1.2236    4.2958 C.ar      1 RES1    0.0000
     15 C9         0.3749   -0.0112    4.8342 C.ar      1 RES1    0.0000
     16 H4        -0.0997    0.3522    5.5728 H         1 RES1    0.0000
     17 C10        1.4596    0.6808    4.3105 C.ar      1 RES1    0.0000
     18 H5         1.7140    1.5131    4.6928 H         1 RES1    0.0000
     19 C11       -1.1868   -1.9926    4.8898 C.3       1 RES1    0.0000
     20 H6        -1.7548   -2.3348    4.1679 H         1 RES1    0.0000
     21 H7        -1.7116   -1.3983    5.4657 H         1 RES1    0.0000
     22 H8        -0.8455   -2.7427    5.4199 H         1 RES1    0.0000
     23 C12        4.9732   -0.9821    0.5727 C.3       1 RES1    0.0000
     24 H9         4.9018   -0.7684   -0.3816 H         1 RES1    0.0000
     25 H10        4.2607   -1.6073    0.8211 H         1 RES1    0.0000
     26 H11        5.8457   -1.3924    0.7512 H         1 RES1    0.0000
     27 C13        4.9886   -0.9016    3.7452 C.3       1 RES1    0.0000
     28 H12        5.9200   -1.2017    3.6839 H         1 RES1    0.0000
     29 H13        4.3940   -1.6126    3.4251 H         1 RES1    0.0000
     30 H14        4.7733   -0.6914    4.6783 H         1 RES1    0.0000
     31 C14        6.2118    1.8612    4.5193 C.3       1 RES1    0.0000
     32 H15        6.6437    1.1195    4.9925 H         1 RES1    0.0000
     33 H16        5.4162    2.1454    5.0154 H         1 RES1    0.0000
     34 H17        6.8381    2.6113    4.4472 H         1 RES1    0.0000
@<TRIPOS>BOND
     1    1    3 1
     2    2    6 1
     3    3    4 2
     4    4    5 1
     5    5    6 1
     6    6    1 1
     7    7    2 1
     8    8    7 1
     9    9    7 1
    10   10    9 ar
    11   11   10 1
    12   12   10 ar
    13   13   12 1
    14   14   12 ar
    15   15   14 ar
    16   16   15 1
    17   17    9 ar
    18   18   17 1
    19   19   14 1
    20   20   19 1
    21   21   19 1
    22   22   19 1
    23   23    6 1
    24   24   23 1
    25   25   23 1
    26   26   23 1
    27   27    5 1
    28   28   27 1
    29   29   27 1
    30   30   27 1
    31   31    4 1
    32   32   31 1
    33   33   31 1
    34   34   31 1
    35    5    7 1
    36   15   17 ar
@<TRIPOS>SUBSTRUCTURE
     1 RES1 1

@<TRIPOS>CRYSIN
  17.1960    5.9199   12.8070  90.0000 109.9440  90.0000  14 1

