# MOL2 file generated by ConQuest
# Please check atom types

@<TRIPOS>MOLECULE
OMEVEH
    19    20     1
SMALL
USER_CHARGES
****
Generated from CSD

@<TRIPOS>ATOM
      1 C1         0.4579    0.7419    1.3433 C.2       1 RES1    0.0000
      2 H1         0.1305    0.7596    0.4524 H         1 RES1    0.0000
      3 O1         0.3571    2.7523    4.2958 O.2       1 RES1    0.0000
      4 C2         1.7354   -0.4226    3.1579 C.2       1 RES1    0.0000
      5 O2         2.7846   -0.3527    5.6116 O.2       1 RES1   -1.0000
      6 C3         0.2245    1.7495    2.1751 C.2       1 RES1    0.0000
      7 H2        -0.2667    2.4914    1.8417 H         1 RES1    0.0000
      8 N1         2.0323    0.6230    5.2877 N.pl3     1 RES1    1.0000
      9 C4         1.4984    0.6712    4.0635 C.2       1 RES1    0.0000
     10 C5         1.2260   -0.3852    1.8325 C.2       1 RES1    0.0000
     11 C6         0.6735    1.8031    3.5879 C.2       1 RES1    0.0000
     12 N2         1.5173   -1.4498    1.1431 N.2       1 RES1    0.0000
     13 O3         2.2675   -2.2537    2.0275 O.3       1 RES1    0.0000
     14 C7         1.8375    1.6496    6.3278 C.3       1 RES1    0.0000
     15 H3         2.2748    1.3622    7.1562 H         1 RES1    0.0000
     16 H4         0.8791    1.7732    6.4903 H         1 RES1    0.0000
     17 H5         2.2301    2.4961    6.0281 H         1 RES1    0.0000
     18 C8         2.3840   -1.6183    3.2169 C.2       1 RES1    0.0000
     19 H6         2.8465   -1.9540    3.9757 H         1 RES1    0.0000
@<TRIPOS>BOND
     1    1    2 1
     2    3   11 2
     3    4    9 1
     4    5    8 1
     5    6    1 2
     6    7    6 1
     7    8    9 2
     8    9   11 1
     9   10    1 1
    10   11    6 1
    11   12   10 2
    12   13   12 1
    13   14    8 1
    14   15   14 1
    15   16   14 1
    16   17   14 1
    17   18    4 2
    18   19   18 1
    19    4   10 1
    20   13   18 1
@<TRIPOS>SUBSTRUCTURE
     1 RES1 1

@<TRIPOS>CRYSIN
   4.0090    6.7940   14.1230  90.0000  95.8940  90.0000   4 1

