# MOL2 file generated by ConQuest
# Please check atom types

@<TRIPOS>MOLECULE
OMEVIL
    22    20     2
SMALL
NO_CHARGES
****
Generated from CSD

@<TRIPOS>ATOM
      1 N1         3.2465   -2.9127    1.3255 N.2       1 RES1    0.0000
      2 O1         3.8845   -1.8225    1.9386 O.3       1 RES1    0.0000
      3 C1         3.4605   -0.6902    1.3810 C.2       1 RES1    0.0000
      4 H1         3.7486    0.1813    1.6271 H         1 RES1    0.0000
      5 C2         2.5675   -0.9631    0.4201 C.2       1 RES1    0.0000
      6 C3         1.7786   -0.2001   -0.5060 C.2       1 RES1    0.0000
      7 N2         1.7103    1.0753   -0.6373 N.2       1 RES1    0.0000
      8 O2         2.5255    1.7028    0.2587 O.3       1 RES1    0.0000
      9 C4         2.3961    3.1155    0.0729 C.3       1 RES1    0.0000
     10 H2         3.0800    3.5782    0.6008 Du        2 SUP2    0.0000
     11 H3         1.5062    3.4028    0.3664 Du        2 SUP2    0.0000
     12 H4         2.5128    3.3323   -0.8752 Du        2 SUP2    0.0000
     13 H5         1.6529    3.2980   -0.5392 H         1 RES1    0.0000
     14 H6         3.2268    3.4724   -0.3048 H         1 RES1    0.0000
     15 H7         2.2193    3.5439    0.9368 H         1 RES1    0.0000
     16 C5         0.9121   -0.9660   -1.4450 C.2       1 RES1    0.0000
     17 O3         0.2726   -0.4078   -2.3029 O.2       1 RES1    0.0000
     18 C6         0.8601   -2.4137   -1.3074 C.2       1 RES1    0.0000
     19 H8         0.2704   -2.8992   -1.8728 H         1 RES1    0.0000
     20 C7         1.5928   -3.0910   -0.4334 C.2       1 RES1    0.0000
     21 H9         1.5328   -4.0378   -0.3855 H         1 RES1    0.0000
     22 C8         2.4752   -2.3743    0.4360 C.2       1 RES1    0.0000
@<TRIPOS>BOND
     1    1    2 1
     2    2    3 1
     3    3    4 1
     4    5    3 2
     5    6    5 1
     6    7    6 2
     7    8    7 1
     8    9    8 1
     9   13    9 1
    10   14    9 1
    11   15    9 1
    12   16    6 1
    13   17   16 2
    14   18   16 1
    15   19   18 1
    16   20   18 2
    17   21   20 1
    18   22    1 2
    19    5   22 1
    20   20   22 1
@<TRIPOS>SUBSTRUCTURE
     1 RES1 1
     2 SUP2 10

@<TRIPOS>CRYSIN
   8.7870    9.7980    8.7020  90.0000  93.8300  90.0000  14 1

