# MOL2 file generated by ConQuest
# Please check atom types

@<TRIPOS>MOLECULE
OMINEF
    39    41     1
SMALL
NO_CHARGES
****
Generated from CSD

@<TRIPOS>ATOM
      1 O1         2.6194    3.1833    1.7448 O.3       1 RES1    0.0000
      2 O2         6.2484    7.5617    2.2743 O.3       1 RES1    0.0000
      3 N1         5.4974    6.4615    2.6538 N.pl3     1 RES1    0.0000
      4 N2         6.5748    1.8099    7.2947 N.1       1 RES1    0.0000
      5 N3         9.4352    4.4652    6.6678 N.1       1 RES1    0.0000
      6 C1         3.8424    4.9818    2.8857 C.2       1 RES1    0.0000
      7 C2         4.8697    4.6804    3.8294 C.ar      1 RES1    0.0000
      8 C3         5.0212    3.7017    4.8133 C.ar      1 RES1    0.0000
      9 H1         4.3325    3.0682    4.9763 H         1 RES1    0.0000
     10 C4         6.1948    3.6726    5.5460 C.ar      1 RES1    0.0000
     11 C5         7.2254    4.6331    5.3334 C.ar      1 RES1    0.0000
     12 C6         7.0803    5.6385    4.3908 C.ar      1 RES1    0.0000
     13 H2         7.7512    6.2977    4.2554 H         1 RES1    0.0000
     14 C7         5.9050    5.6326    3.6558 C.ar      1 RES1    0.0000
     15 C8         4.2609    6.0819    2.1573 C.2       1 RES1    0.0000
     16 C9         3.6092    6.7630    1.0274 C.ar      1 RES1    0.0000
     17 C10        2.8729    6.0077    0.1119 C.ar      1 RES1    0.0000
     18 H3         2.8146    5.0655    0.2186 H         1 RES1    0.0000
     19 C11        2.2275    6.6180   -0.9499 C.ar      1 RES1    0.0000
     20 H4         1.7200    6.0873   -1.5528 H         1 RES1    0.0000
     21 C12        2.3086    7.9944   -1.1527 C.ar      1 RES1    0.0000
     22 C13        3.0591    8.7384   -0.2449 C.ar      1 RES1    0.0000
     23 H5         3.1365    9.6773   -0.3679 H         1 RES1    0.0000
     24 C14        3.6950    8.1451    0.8327 C.ar      1 RES1    0.0000
     25 H6         4.1917    8.6791    1.4419 H         1 RES1    0.0000
     26 C15        2.5489    4.2070    2.7312 C.3       1 RES1    0.0000
     27 H7         2.3139    3.7983    3.6016 H         1 RES1    0.0000
     28 H8         1.8245    4.8368    2.4882 H         1 RES1    0.0000
     29 C16        6.3985    2.6403    6.5306 C.1       1 RES1    0.0000
     30 C17        8.4490    4.5457    6.0893 C.1       1 RES1    0.0000
     31 C18        7.2253    7.1902    1.2637 C.3       1 RES1    0.0000
     32 H9         7.8746    7.9157    1.1540 H         1 RES1    0.0000
     33 H10        6.7683    7.0291    0.4117 H         1 RES1    0.0000
     34 H11        7.6910    6.3750    1.5443 H         1 RES1    0.0000
     35 C19        1.5926    8.6450   -2.3108 C.3       1 RES1    0.0000
     36 H12        2.0431    9.4840   -2.5436 H         1 RES1    0.0000
     37 H13        0.6645    8.8321   -2.0573 H         1 RES1    0.0000
     38 H14        1.6048    8.0422   -3.0833 H         1 RES1    0.0000
     39 H15        3.0320    2.4239    2.1544 H         1 RES1    0.0000
@<TRIPOS>BOND
     1    1   26 1
     2    2    3 1
     3    3   14 1
     4    4   29 3
     5    5   30 3
     6    6    7 1
     7    7    8 ar
     8    8    9 1
     9   10    8 ar
    10   11   10 ar
    11   12   11 ar
    12   13   12 1
    13   14    7 ar
    14   15    3 1
    15   16   15 1
    16   17   16 ar
    17   18   17 1
    18   19   17 ar
    19   20   19 1
    20   21   19 ar
    21   22   21 ar
    22   23   22 1
    23   24   16 ar
    24   25   24 1
    25   26    6 1
    26   27   26 1
    27   28   26 1
    28   29   10 1
    29   30   11 1
    30   31    2 1
    31   32   31 1
    32   33   31 1
    33   34   31 1
    34   35   21 1
    35   36   35 1
    36   37   35 1
    37   38   35 1
    38   39    1 1
    39    6   15 2
    40   12   14 ar
    41   22   24 ar
@<TRIPOS>SUBSTRUCTURE
     1 RES1 1

@<TRIPOS>CRYSIN
   7.4667    9.8949   11.3418  74.4170  76.2130  83.3990   2 1

