# MOL2 file generated by ConQuest
# Please check atom types

@<TRIPOS>MOLECULE
OMINIJ
    33    35     1
SMALL
NO_CHARGES
****
Generated from CSD

@<TRIPOS>ATOM
      1 O1         2.6344    6.7612    2.5891 O.2       1 RES1    0.0000
      2 O2         3.2124    5.7938    4.4165 O.2       1 RES1    0.0000
      3 O3         0.4811    0.9831    4.1945 O.2       1 RES1    0.0000
      4 O4        -3.4505    3.1383    3.6427 O.2       1 RES1    0.0000
      5 O5         1.0988    7.9775    4.9627 O.2       1 RES1    0.0000
      6 N1        -1.6610    1.7795    4.0034 N.am      1 RES1    0.0000
      7 H1        -2.0256    0.9571    4.0351 H         1 RES1    0.0000
      8 N2         2.4226    6.0176    3.5444 N.pl3     1 RES1    0.0000
      9 C1         1.1328    5.3328    3.5849 C.ar      1 RES1    0.0000
     10 C2         1.1795    3.9937    3.8568 C.ar      1 RES1    0.0000
     11 H2         2.0032    3.5516    4.0312 H         1 RES1    0.0000
     12 C3         0.0063    3.3199    3.8679 C.ar      1 RES1    0.0000
     13 C4        -0.2785    1.8906    4.0312 C.2       1 RES1    0.0000
     14 C5        -2.2792    2.9786    3.7704 C.2       1 RES1    0.0000
     15 C6        -1.1901    3.9851    3.6816 C.ar      1 RES1    0.0000
     16 C7        -1.2251    5.3264    3.4334 C.ar      1 RES1    0.0000
     17 H3        -2.0570    5.7684    3.3161 H         1 RES1    0.0000
     18 C8        -0.0372    6.0367    3.3518 C.ar      1 RES1    0.0000
     19 C9        -0.0648    7.4831    2.9800 C.3       1 RES1    0.0000
     20 H4        -1.0092    7.7599    2.8761 H         1 RES1    0.0000
     21 H5         0.3743    7.5861    2.0984 H         1 RES1    0.0000
     22 C10        0.6035    8.4230    3.9590 C.2       1 RES1    0.0000
     23 C11        0.6611    9.8523    3.6364 C.ar      1 RES1    0.0000
     24 C12        0.1653   10.3673    2.4425 C.ar      1 RES1    0.0000
     25 H6        -0.2420    9.7836    1.8122 H         1 RES1    0.0000
     26 C13        0.2587   11.6957    2.1698 C.ar      1 RES1    0.0000
     27 H7        -0.0803   12.0391    1.3509 H         1 RES1    0.0000
     28 C14        0.8413   12.5434    3.0775 C.ar      1 RES1    0.0000
     29 H8         0.8901   13.4747    2.8959 H         1 RES1    0.0000
     30 C15        1.3533   12.0434    4.2492 C.ar      1 RES1    0.0000
     31 H9         1.7781   12.6249    4.8683 H         1 RES1    0.0000
     32 C16        1.2540   10.7279    4.5211 C.ar      1 RES1    0.0000
     33 H10        1.5995   10.3952    5.3416 H         1 RES1    0.0000
@<TRIPOS>BOND
     1    1    8 2
     2    2    8 2
     3    3   13 2
     4    4   14 2
     5    5   22 2
     6    6    7 1
     7    8    9 1
     8    9   10 ar
     9   10   11 1
    10   12   10 ar
    11   13    6 1
    12   14    6 1
    13   15   12 ar
    14   16   15 ar
    15   17   16 1
    16   18    9 ar
    17   19   18 1
    18   20   19 1
    19   21   19 1
    20   22   19 1
    21   23   22 1
    22   24   23 ar
    23   25   24 1
    24   26   24 ar
    25   27   26 1
    26   28   26 ar
    27   29   28 1
    28   30   28 ar
    29   31   30 1
    30   32   23 ar
    31   33   32 1
    32   12   13 1
    33   14   15 1
    34   16   18 ar
    35   30   32 ar
@<TRIPOS>SUBSTRUCTURE
     1 RES1 1

@<TRIPOS>CRYSIN
   7.6850   21.4600    8.1760  90.0000 104.1600  90.0000 231 1

