# MOL2 file generated by ConQuest
# Please check atom types

@<TRIPOS>MOLECULE
OMIWIQ02
    20    21     1
SMALL
NO_CHARGES
****
Generated from CSD

@<TRIPOS>ATOM
      1 O1        -0.8244    0.4158    1.1503 O.2       1 RES1    0.0000
      2 O2         0.0444   -1.5776    1.3381 O.2       1 RES1    0.0000
      3 O3         4.8264   -0.5689    3.9639 O.2       1 RES1    0.0000
      4 O4         4.8415    1.6091    3.8968 O.2       1 RES1    0.0000
      5 O5         3.4288    2.3711    5.8807 O.2       1 RES1    0.0000
      6 O6         2.7175    4.4201    5.6681 O.2       1 RES1    0.0000
      7 N1         0.0207   -0.3737    1.5759 N.pl3     1 RES1    0.0000
      8 N2         4.2700    0.5217    3.8357 N.pl3     1 RES1    0.0000
      9 N3         2.7832    3.2449    5.3085 N.pl3     1 RES1    0.0000
     10 N4         0.9767    1.4269    2.9008 N.pl3     1 RES1    0.0000
     11 N5         2.0985    1.6282    3.6457 N.pl3     1 RES1    0.0000
     12 C1         1.0361    0.1386    2.4012 C.2       1 RES1    0.0000
     13 C2         2.2241   -0.4500    2.7920 C.2       1 RES1    0.0000
     14 C3         2.8920    0.5010    3.5490 C.2       1 RES1    0.0000
     15 C4         2.0044    2.8727    4.1945 C.2       1 RES1    0.0000
     16 C5         0.8202    3.4655    3.7437 C.2       1 RES1    0.0000
     17 C6         0.1852    2.5434    2.9387 C.2       1 RES1    0.0000
     18 H1         2.6366   -1.3931    2.4863 H         1 RES1    0.0000
     19 H2         0.4623    4.4173    4.0379 H         1 RES1    0.0000
     20 H3        -0.7834    2.5202    2.4396 H         1 RES1    0.0000
@<TRIPOS>BOND
     1    1    7 2
     2    2    7 2
     3    3    8 2
     4    4    8 2
     5    5    9 2
     6    6    9 2
     7    7   12 1
     8    8   14 1
     9    9   15 1
    10   10   11 1
    11   11   14 2
    12   12   10 1
    13   13   12 2
    14   14   13 1
    15   15   11 1
    16   16   15 2
    17   17   10 2
    18   18   13 1
    19   19   16 1
    20   20   17 1
    21   16   17 1
@<TRIPOS>SUBSTRUCTURE
     1 RES1 1

@<TRIPOS>CRYSIN
  13.3229    7.0005    9.3471  90.0000  90.0000  90.0000  29 1

