# MOL2 file generated by ConQuest
# Please check atom types

@<TRIPOS>MOLECULE
OMIWIQ01
    20    21     1
SMALL
NO_CHARGES
****
Generated from CSD

@<TRIPOS>ATOM
      1 O1        -0.8250    0.4155    1.1480 O.2       1 RES1    0.0000
      2 O2         0.0441   -1.5802    1.3376 O.2       1 RES1    0.0000
      3 O3         4.8280   -0.5694    3.9641 O.2       1 RES1    0.0000
      4 O4         4.8430    1.6107    3.8955 O.2       1 RES1    0.0000
      5 O5         3.4305    2.3685    5.8800 O.2       1 RES1    0.0000
      6 O6         2.7128    4.4200    5.6743 O.2       1 RES1    0.0000
      7 N1         0.0212   -0.3735    1.5755 N.pl3     1 RES1    0.0000
      8 N2         4.2693    0.5215    3.8352 N.pl3     1 RES1    0.0000
      9 N3         2.7825    3.2448    5.3081 N.pl3     1 RES1    0.0000
     10 N4         0.9763    1.4266    2.9004 N.pl3     1 RES1    0.0000
     11 N5         2.0982    1.6284    3.6453 N.pl3     1 RES1    0.0000
     12 C1         1.0353    0.1382    2.4007 C.2       1 RES1    0.0000
     13 C2         2.2235   -0.4504    2.7927 C.2       1 RES1    0.0000
     14 C3         2.8925    0.5017    3.5491 C.2       1 RES1    0.0000
     15 C4         2.0046    2.8733    4.1948 C.2       1 RES1    0.0000
     16 C5         0.8196    3.4664    3.7441 C.2       1 RES1    0.0000
     17 C6         0.1843    2.5433    2.9381 C.2       1 RES1    0.0000
     18 H1         2.6327   -1.3963    2.4700 H         1 RES1    0.0000
     19 H2         0.4309    4.4241    4.0572 H         1 RES1    0.0000
     20 H3        -0.7687    2.5780    2.4310 H         1 RES1    0.0000
@<TRIPOS>BOND
     1    1    7 2
     2    2    7 2
     3    3    8 2
     4    4    8 2
     5    5    9 2
     6    6    9 2
     7    7   12 1
     8    8   14 1
     9    9   15 1
    10   10   11 1
    11   11   14 2
    12   12   10 1
    13   13   12 2
    14   14   13 1
    15   15   11 1
    16   16   15 2
    17   17   10 2
    18   18   13 1
    19   19   16 1
    20   20   17 1
    21   16   17 1
@<TRIPOS>SUBSTRUCTURE
     1 RES1 1

@<TRIPOS>CRYSIN
  13.3229    7.0005    9.3471  90.0000  90.0000  90.0000  29 1

