# MOL2 file generated by ConQuest
# Please check atom types

@<TRIPOS>MOLECULE
OMOLUX
    30    32     1
SMALL
NO_CHARGES
****
Generated from CSD

@<TRIPOS>ATOM
      1 N1        -0.2546    4.7524    7.6229 N.am      1 RES1    0.0000
      2 C1        -1.1890    3.9710    6.9226 C.2       1 RES1    0.0000
      3 O1        -2.1007    4.4145    6.2641 O.2       1 RES1    0.0000
      4 C2        -0.7965    2.5616    7.1929 C.ar      1 RES1    0.0000
      5 C3        -1.3642    1.3884    6.7396 C.ar      1 RES1    0.0000
      6 C4        -0.7909    0.1975    7.1878 C.ar      1 RES1    0.0000
      7 C5        -0.2546    6.1797    7.6229 C.ar      1 RES1    0.0000
      8 C6        -1.2031    6.8598    8.3778 C.ar      1 RES1    0.0000
      9 C7        -1.1684    8.2405    8.3624 C.ar      1 RES1    0.0000
     10 N2        -2.1617    8.9840    9.1600 N.pl3     1 RES1    0.0000
     11 O2        -3.0300    8.3359    9.7361 O.2       1 RES1    0.0000
     12 O3        -2.0860   10.2120    9.1841 O.2       1 RES1    0.0000
     13 C8        -0.2546    8.9646    7.6229 C.ar      1 RES1    0.0000
     14 H1        -2.1094    1.3918    6.1501 H         1 RES1    0.0000
     15 H2        -1.1471   -0.6315    6.8890 H         1 RES1    0.0000
     16 H3        -1.8533    6.3906    8.8872 H         1 RES1    0.0000
     17 H4        -0.2546    9.9143    7.6229 H         1 RES1    0.0000
     18 C2C        0.2872    2.5616    8.0528 C.ar      1 RES1    0.0000
     19 C1C        0.6797    3.9710    8.3231 C.2       1 RES1    0.0000
     20 C7C        0.6592    8.2405    6.8833 C.ar      1 RES1    0.0000
     21 C6C        0.6938    6.8598    6.8679 C.ar      1 RES1    0.0000
     22 H3C        1.3440    6.3906    6.3585 H         1 RES1    0.0000
     23 N2C        1.6524    8.9840    6.0857 N.pl3     1 RES1    0.0000
     24 O2C        2.5207    8.3359    5.5096 O.2       1 RES1    0.0000
     25 O3C        1.5767   10.2120    6.0616 O.2       1 RES1    0.0000
     26 O1C        1.5914    4.4145    8.9817 O.2       1 RES1    0.0000
     27 C3C        0.8550    1.3884    8.5061 C.ar      1 RES1    0.0000
     28 C4C        0.2816    0.1975    8.0579 C.ar      1 RES1    0.0000
     29 H2C        0.6379   -0.6315    8.3567 H         1 RES1    0.0000
     30 H1C        1.6002    1.3918    9.0956 H         1 RES1    0.0000
@<TRIPOS>BOND
     1    1    2 1
     2    2    3 2
     3    4    2 1
     4    5    4 ar
     5    6    5 ar
     6    7    1 1
     7    8    7 ar
     8    9    8 ar
     9   10    9 1
    10   11   10 2
    11   12   10 2
    12   13    9 ar
    13   14    5 1
    14   15    6 1
    15   16    8 1
    16   17   13 1
    17   18    4 ar
    18   19    1 1
    19   20   13 ar
    20   21    7 ar
    21   22   21 1
    22   23   20 1
    23   24   23 2
    24   25   23 2
    25   26   19 2
    26   27   18 ar
    27   28    6 ar
    28   29   28 1
    29   30   27 1
    30   18   19 1
    31   20   21 ar
    32   27   28 ar
@<TRIPOS>SUBSTRUCTURE
     1 RES1 1

