# MOL2 file generated by ConQuest
# Please check atom types

@<TRIPOS>MOLECULE
OMOLOR
    28    30     1
SMALL
NO_CHARGES
****
Generated from CSD

@<TRIPOS>ATOM
      1 N1         4.5141    3.1732    4.9147 N.am      1 RES1    0.0000
      2 C1         3.2559    3.7383    5.2201 C.2       1 RES1    0.0000
      3 O1         2.5138    4.2281    4.3978 O.2       1 RES1    0.0000
      4 C2         5.1773    2.7304    6.0850 C.2       1 RES1    0.0000
      5 O2         6.2507    2.1726    6.1029 O.2       1 RES1    0.0000
      6 C3         3.1236    3.6400    6.6940 C.ar      1 RES1    0.0000
      7 C4         2.0686    4.0300    7.5050 C.ar      1 RES1    0.0000
      8 C5         2.2201    3.8160    8.8704 C.ar      1 RES1    0.0000
      9 C6         3.3932    3.2734    9.3954 C.ar      1 RES1    0.0000
     10 C7         4.4470    2.8867    8.5618 C.ar      1 RES1    0.0000
     11 C8         4.2785    3.0738    7.2070 C.ar      1 RES1    0.0000
     12 C9         5.0471    3.0520    3.5934 C.ar      1 RES1    0.0000
     13 C10        4.2607    2.5408    2.5839 C.ar      1 RES1    0.0000
     14 C11        4.8172    2.4221    1.3263 C.ar      1 RES1    0.0000
     15 C12        6.1283    2.7781    1.0547 C.ar      1 RES1    0.0000
     16 C13        6.8976    3.2933    2.0844 C.ar      1 RES1    0.0000
     17 C14        6.3646    3.4412    3.3466 C.ar      1 RES1    0.0000
     18 N2         3.9938    1.8555    0.2477 N.pl3     1 RES1    0.0000
     19 O3         2.8149    1.6141    0.4795 O.2       1 RES1    0.0000
     20 O4         4.5239    1.6448   -0.8378 O.2       1 RES1    0.0000
     21 H1         1.2823    4.4240    7.1448 H         1 RES1    0.0000
     22 H2         1.5099    4.0440    9.4589 H         1 RES1    0.0000
     23 H3         3.4776    3.1647   10.3347 H         1 RES1    0.0000
     24 H4         5.2446    2.5112    8.9151 H         1 RES1    0.0000
     25 H5         3.3625    2.2780    2.7496 H         1 RES1    0.0000
     26 H6         6.4910    2.6709    0.1836 H         1 RES1    0.0000
     27 H7         7.7985    3.5465    1.9186 H         1 RES1    0.0000
     28 H8         6.8920    3.8071    4.0468 H         1 RES1    0.0000
@<TRIPOS>BOND
     1    1    2 1
     2    2    3 2
     3    4    1 1
     4    5    4 2
     5    6    2 1
     6    7    6 ar
     7    8    7 ar
     8    9    8 ar
     9   10    9 ar
    10   11    4 1
    11   12    1 1
    12   13   12 ar
    13   14   13 ar
    14   15   14 ar
    15   16   15 ar
    16   17   12 ar
    17   18   14 1
    18   19   18 2
    19   20   18 2
    20   21    7 1
    21   22    8 1
    22   23    9 1
    23   24   10 1
    24   25   13 1
    25   26   15 1
    26   27   16 1
    27   28   17 1
    28    6   11 ar
    29   10   11 ar
    30   16   17 ar
@<TRIPOS>SUBSTRUCTURE
     1 RES1 1

