# MOL2 file generated by ConQuest
# Please check atom types

@<TRIPOS>MOLECULE
OMOMAE
    30    31     1
SMALL
NO_CHARGES
****
Generated from CSD

@<TRIPOS>ATOM
      1 O1         2.1901    4.4643    7.9159 O.3       1 RES1    0.0000
      2 O2         2.1287    2.5335    6.7203 O.2       1 RES1    0.0000
      3 N1         2.3087    5.1428    6.6372 N.2       1 RES1    0.0000
      4 N2         3.1827    6.8276    8.0547 N.3       1 RES1    0.0000
      5 C1         2.8391    6.3056    6.8560 C.2       1 RES1    0.0000
      6 C2         2.0651    3.1220    7.7707 C.2       1 RES1    0.0000
      7 C3         3.0382    7.1385    5.6364 C.ar      1 RES1    0.0000
      8 C4         3.3401    6.5274    4.4214 C.ar      1 RES1    0.0000
      9 C5         3.5171    7.2888    3.2851 C.ar      1 RES1    0.0000
     10 C6         3.4131    8.6697    3.3455 C.ar      1 RES1    0.0000
     11 C7         3.1260    9.2834    4.5521 C.ar      1 RES1    0.0000
     12 C8         2.9299    8.5229    5.6929 C.ar      1 RES1    0.0000
     13 C9         1.8236    2.4753    9.0980 C.ar      1 RES1    0.0000
     14 C10        1.7535    3.2057   10.2832 C.ar      1 RES1    0.0000
     15 C11        1.5027    2.5485   11.4844 C.ar      1 RES1    0.0000
     16 C12        1.3059    1.1792   11.4959 C.ar      1 RES1    0.0000
     17 C13        1.3886    0.4504   10.3153 C.ar      1 RES1    0.0000
     18 C14        1.6537    1.0999    9.1217 C.ar      1 RES1    0.0000
     19 H1         3.4240    5.5823    4.3748 H         1 RES1    0.0000
     20 H2         3.7113    6.8662    2.4575 H         1 RES1    0.0000
     21 H3         3.5376    9.1915    2.5622 H         1 RES1    0.0000
     22 H4         3.0642   10.2306    4.5979 H         1 RES1    0.0000
     23 H5         2.7211    8.9489    6.5159 H         1 RES1    0.0000
     24 H6         1.8766    4.1481   10.2710 H         1 RES1    0.0000
     25 H7         1.4664    3.0402   12.2967 H         1 RES1    0.0000
     26 H8         1.1136    0.7343   12.3135 H         1 RES1    0.0000
     27 H9         1.2634   -0.4917   10.3275 H         1 RES1    0.0000
     28 H10        1.7187    0.6012    8.3163 H         1 RES1    0.0000
     29 H11        3.3748    6.2414    8.7778 H         1 RES1    0.0000
     30 H12        3.8015    7.5490    8.0572 H         1 RES1    0.0000
@<TRIPOS>BOND
     1    1    3 1
     2    2    6 2
     3    3    5 2
     4    4    5 1
     5    5    7 1
     6    6    1 1
     7    7    8 ar
     8    8    9 ar
     9    9   10 ar
    10   10   11 ar
    11   11   12 ar
    12   12    7 ar
    13   13    6 1
    14   14   13 ar
    15   15   14 ar
    16   16   15 ar
    17   17   16 ar
    18   18   13 ar
    19   19    8 1
    20   20    9 1
    21   21   10 1
    22   22   11 1
    23   23   12 1
    24   24   14 1
    25   25   15 1
    26   26   16 1
    27   27   17 1
    28   28   18 1
    29   29    4 1
    30   30    4 1
    31   17   18 ar
@<TRIPOS>SUBSTRUCTURE
     1 RES1 1

@<TRIPOS>CRYSIN
   7.0415   21.4704    8.0570  90.0000 108.4804  90.0000 231 1

