# MOL2 file generated by ConQuest
# Please check atom types

@<TRIPOS>MOLECULE
OMUXEB
    40    40     1
SMALL
USER_CHARGES
****
Generated from CSD

@<TRIPOS>ATOM
      1 O1        -0.6649    1.1784    4.4138 O.2       1 RES1   -1.0000
      2 O2         1.0982   -2.6320   -0.1042 O.2       1 RES1    0.0000
      3 O3         2.4992   -1.0355   -0.4446 O.2       1 RES1    0.0000
      4 O4         2.4241    2.9396    2.4994 O.2       1 RES1    0.0000
      5 N1        -3.1006   -1.3648    3.4054 N.4       1 RES1    1.0000
      6 N2         1.5577   -1.5266    0.1726 N.pl3     1 RES1    0.0000
      7 C1         0.9193    1.1216    2.6585 C.ar      1 RES1    0.0000
      8 C2        -0.1696    0.5652    3.4378 C.ar      1 RES1    0.0000
      9 C3        -0.6240   -0.7593    3.0450 C.ar      1 RES1    0.0000
     10 C4        -0.0376   -1.4034    2.0003 C.ar      1 RES1    0.0000
     11 H1        -0.3193   -2.2616    1.7792 H         1 RES1    0.0000
     12 C5         0.9798   -0.8045    1.2504 C.ar      1 RES1    0.0000
     13 C6         1.4529    0.4454    1.5840 C.ar      1 RES1    0.0000
     14 H2         2.1332    0.8340    1.0827 H         1 RES1    0.0000
     15 C7         1.4895    2.4001    3.0373 C.2       1 RES1    0.0000
     16 H3         1.1007    2.8416    3.7568 H         1 RES1    0.0000
     17 C8        -1.6494   -1.4602    3.8882 C.3       1 RES1    0.0000
     18 H4        -1.6031   -1.0970    4.7870 H         1 RES1    0.0000
     19 H5        -1.4082   -2.3983    3.9423 H         1 RES1    0.0000
     20 C9        -3.2404   -1.8647    1.9820 C.3       1 RES1    0.0000
     21 H6        -4.1382   -1.6635    1.6754 H         1 RES1    0.0000
     22 H7        -2.6251   -1.3660    1.4222 H         1 RES1    0.0000
     23 C10       -2.9863   -3.3385    1.7687 C.3       1 RES1    0.0000
     24 H8        -2.1446   -3.5779    2.1642 H         1 RES1    0.0000
     25 H9        -2.9632   -3.5268    0.8272 H         1 RES1    0.0000
     26 H10       -3.6885   -3.8469    2.1794 H         1 RES1    0.0000
     27 C11       -3.9129   -2.2079    4.3609 C.3       1 RES1    0.0000
     28 H11       -3.7738   -1.8769    5.2619 H         1 RES1    0.0000
     29 H12       -3.5805   -3.1181    4.3297 H         1 RES1    0.0000
     30 C12       -5.3984   -2.2269    4.0788 C.3       1 RES1    0.0000
     31 H13       -5.8403   -2.7815    4.7263 H         1 RES1    0.0000
     32 H14       -5.5529   -2.5786    3.1991 H         1 RES1    0.0000
     33 H15       -5.7457   -1.3329    4.1325 H         1 RES1    0.0000
     34 C13       -3.5579    0.0801    3.4022 C.3       1 RES1    0.0000
     35 H16       -2.8933    0.6101    2.9354 H         1 RES1    0.0000
     36 H17       -4.3835    0.1382    2.8958 H         1 RES1    0.0000
     37 C14       -3.7887    0.6953    4.7546 C.3       1 RES1    0.0000
     38 H18       -4.0449    1.6139    4.6482 H         1 RES1    0.0000
     39 H19       -2.9802    0.6462    5.2700 H         1 RES1    0.0000
     40 H20       -4.4875    0.2179    5.2082 H         1 RES1    0.0000
@<TRIPOS>BOND
     1    1    8 1
     2    2    6 2
     3    3    6 2
     4    4   15 2
     5    5   17 1
     6    6   12 1
     7    7    8 ar
     8    8    9 ar
     9    9   10 ar
    10   10   11 1
    11   12   10 ar
    12   13    7 ar
    13   14   13 1
    14   15    7 1
    15   16   15 1
    16   17    9 1
    17   18   17 1
    18   19   17 1
    19   20    5 1
    20   21   20 1
    21   22   20 1
    22   23   20 1
    23   24   23 1
    24   25   23 1
    25   26   23 1
    26   27    5 1
    27   28   27 1
    28   29   27 1
    29   30   27 1
    30   31   30 1
    31   32   30 1
    32   33   30 1
    33   34    5 1
    34   35   34 1
    35   36   34 1
    36   37   34 1
    37   38   37 1
    38   39   37 1
    39   40   37 1
    40   12   13 ar
@<TRIPOS>SUBSTRUCTURE
     1 RES1 1

@<TRIPOS>CRYSIN
   8.1870   15.0270   12.0630  90.0000 104.7200  90.0000 231 1

