# MOL2 file generated by ConQuest
# Please check atom types

@<TRIPOS>MOLECULE
ONABEL
    38    39     1
SMALL
NO_CHARGES
****
Generated from CSD

@<TRIPOS>ATOM
      1 O1        12.2760    2.3042   10.3105 O.3       1 RES1    0.0000
      2 O2         9.4776    7.4288    8.5505 O.2       1 RES1    0.0000
      3 O3         8.5309    8.8422    9.8283 O.2       1 RES1    0.0000
      4 N1        16.3706    4.3911    6.3121 N.1       1 RES1    0.0000
      5 N2        15.8595    8.4859    4.9658 N.1       1 RES1    0.0000
      6 N3         9.2943    8.5695    8.9227 N.pl3     1 RES1    0.0000
      7 C1        14.9412    6.5327    6.3627 C.2       1 RES1    0.0000
      8 C2        13.7831    6.6476    7.0720 C.2       1 RES1    0.0000
      9 C3        12.9864    7.8527    6.9439 C.2       1 RES1    0.0000
     10 H1        13.1746    8.4224    6.2333 H         1 RES1    0.0000
     11 C4        12.0066    8.1990    7.7699 C.2       1 RES1    0.0000
     12 H2        11.7773    7.6046    8.4469 H         1 RES1    0.0000
     13 C5        15.7295    5.3390    6.3515 C.1       1 RES1    0.0000
     14 C6        15.4594    7.6164    5.5772 C.1       1 RES1    0.0000
     15 C7        13.3383    5.5470    7.9596 C.ar      1 RES1    0.0000
     16 C8        12.0755    5.0056    7.8366 C.ar      1 RES1    0.0000
     17 H3        11.4799    5.3771    7.2262 H         1 RES1    0.0000
     18 C9        11.6737    3.9224    8.5996 C.ar      1 RES1    0.0000
     19 H4        10.8249    3.5587    8.4905 H         1 RES1    0.0000
     20 C10       12.5506    3.3897    9.5240 C.ar      1 RES1    0.0000
     21 C11       13.8057    3.9498    9.6970 C.ar      1 RES1    0.0000
     22 H5        14.3805    3.6072   10.3434 H         1 RES1    0.0000
     23 C12       14.2036    5.0064    8.9196 C.ar      1 RES1    0.0000
     24 H6        15.0537    5.3670    9.0301 H         1 RES1    0.0000
     25 C13       11.0272    1.6604   10.1380 C.3       1 RES1    0.0000
     26 H7        10.3189    2.2858   10.3051 H         1 RES1    0.0000
     27 H8        10.9582    0.9258   10.7542 H         1 RES1    0.0000
     28 H9        10.9587    1.3308    9.2398 H         1 RES1    0.0000
     29 C14       11.2652    9.4562    7.6828 C.ar      1 RES1    0.0000
     30 C15       10.0076    9.6688    8.2577 C.ar      1 RES1    0.0000
     31 C16        9.3637   10.8823    8.2085 C.ar      1 RES1    0.0000
     32 H10        8.5317   10.9884    8.6097 H         1 RES1    0.0000
     33 C17        9.9645   11.9417    7.5583 C.ar      1 RES1    0.0000
     34 H11        9.5358   12.7662    7.5168 H         1 RES1    0.0000
     35 C18       11.1873   11.7808    6.9795 C.ar      1 RES1    0.0000
     36 H12       11.5899   12.4925    6.5366 H         1 RES1    0.0000
     37 C19       11.8244   10.5659    7.0509 C.ar      1 RES1    0.0000
     38 H13       12.6639   10.4799    6.6611 H         1 RES1    0.0000
@<TRIPOS>BOND
     1    1   20 1
     2    2    6 2
     3    3    6 2
     4    4   13 3
     5    5   14 3
     6    6   30 1
     7    7    8 2
     8    8    9 1
     9    9   10 1
    10   11    9 2
    11   12   11 1
    12   13    7 1
    13   14    7 1
    14   15    8 1
    15   16   15 ar
    16   17   16 1
    17   18   16 ar
    18   19   18 1
    19   20   18 ar
    20   21   20 ar
    21   22   21 1
    22   23   15 ar
    23   24   23 1
    24   25    1 1
    25   26   25 1
    26   27   25 1
    27   28   25 1
    28   29   11 1
    29   30   29 ar
    30   31   30 ar
    31   32   31 1
    32   33   31 ar
    33   34   33 1
    34   35   33 ar
    35   36   35 1
    36   37   29 ar
    37   38   37 1
    38   21   23 ar
    39   35   37 ar
@<TRIPOS>SUBSTRUCTURE
     1 RES1 1

@<TRIPOS>CRYSIN
   7.3834   10.9010   11.2270  88.6400  71.5960  78.1860   2 1

