# MOL2 file generated by ConQuest
# Please check atom types

@<TRIPOS>MOLECULE
ONABAH
    31    33     1
SMALL
NO_CHARGES
****
Generated from CSD

@<TRIPOS>ATOM
      1 C1        19.2172   -0.7335    0.6971 C.ar      1 RES1    0.0000
      2 C2        20.5428   -1.1033    0.5189 C.ar      1 RES1    0.0000
      3 H1        20.7486   -1.9043    0.0926 H         1 RES1    0.0000
      4 C3        21.5430   -0.2950    0.9671 C.ar      1 RES1    0.0000
      5 H2        22.4336   -0.5425    0.8533 H         1 RES1    0.0000
      6 C4        21.2254    0.8965    1.5920 C.ar      1 RES1    0.0000
      7 H3        21.9069    1.4585    1.8801 H         1 RES1    0.0000
      8 C5        19.9180    1.2627    1.7930 C.ar      1 RES1    0.0000
      9 H4        19.7275    2.0576    2.2365 H         1 RES1    0.0000
     10 C6        18.8734    0.4653    1.3440 C.ar      1 RES1    0.0000
     11 C7        17.0783    1.9718    2.1039 C.2       1 RES1    0.0000
     12 C8        15.5689    3.3817    2.5623 C.2       1 RES1    0.0000
     13 C9        14.2381    3.9838    2.5505 C.ar      1 RES1    0.0000
     14 C10       13.1640    3.3330    1.9837 C.ar      1 RES1    0.0000
     15 H5        13.2833    2.4992    1.5897 H         1 RES1    0.0000
     16 C11       11.9158    3.9127    1.9987 C.ar      1 RES1    0.0000
     17 H6        11.1899    3.4620    1.6305 H         1 RES1    0.0000
     18 C12       11.7392    5.1559    2.5560 C.ar      1 RES1    0.0000
     19 H7        10.8997    5.5537    2.5482 H         1 RES1    0.0000
     20 C13       12.8050    5.8109    3.1252 C.ar      1 RES1    0.0000
     21 H8        12.6787    6.6478    3.5122 H         1 RES1    0.0000
     22 C14       14.0543    5.2392    3.1275 C.ar      1 RES1    0.0000
     23 H9        14.7721    5.6875    3.5114 H         1 RES1    0.0000
     24 H10       16.9461    0.2433    1.2325 H         1 RES1    0.0000
     25 N1        18.2183   -1.6227    0.1217 N.pl3     1 RES1    0.0000
     26 N2        17.5430    0.8393    1.5198 N.pl3     1 RES1    0.0000
     27 N3        17.6539    2.8854    2.7994 N.2       1 RES1    0.0000
     28 N4        16.6411    3.8135    3.0969 N.2       1 RES1    0.0000
     29 O1        18.5827   -2.6731   -0.3776 O.2       1 RES1    0.0000
     30 O2        17.0224   -1.3016    0.1429 O.2       1 RES1    0.0000
     31 O3        15.7551    2.1914    1.9139 O.3       1 RES1    0.0000
@<TRIPOS>BOND
     1    1    2 ar
     2    2    3 1
     3    4    2 ar
     4    5    4 1
     5    6    4 ar
     6    7    6 1
     7    8    6 ar
     8    9    8 1
     9   10    1 ar
    10   11   26 1
    11   12   13 1
    12   13   14 ar
    13   14   15 1
    14   16   14 ar
    15   17   16 1
    16   18   16 ar
    17   19   18 1
    18   20   18 ar
    19   21   20 1
    20   22   13 ar
    21   23   22 1
    22   24   26 1
    23   25    1 1
    24   26   10 1
    25   27   11 2
    26   28   12 2
    27   29   25 2
    28   30   25 2
    29   31   11 1
    30    8   10 ar
    31   12   31 1
    32   20   22 ar
    33   27   28 1
@<TRIPOS>SUBSTRUCTURE
     1 RES1 1

@<TRIPOS>CRYSIN
  26.8730    6.0822    7.8502  90.0000  90.0000  90.0000  29 1

