# MOL2 file generated by ConQuest
# Please check atom types

@<TRIPOS>MOLECULE
ONBZAM
    18    18     1
SMALL
NO_CHARGES
****
Generated from CSD

@<TRIPOS>ATOM
      1 C1         1.2974    4.3806   -2.8396 C.ar      1 RES1    0.0000
      2 C2         1.9150    5.6199   -2.7319 C.ar      1 RES1    0.0000
      3 C3         2.8963    5.7836   -1.7659 C.ar      1 RES1    0.0000
      4 C4         3.2575    4.7438   -0.9425 C.ar      1 RES1    0.0000
      5 C5         2.6547    3.4763   -1.0892 C.ar      1 RES1    0.0000
      6 C6         1.6666    3.2985   -2.0407 C.ar      1 RES1    0.0000
      7 C7         1.1088    1.9262   -2.2920 C.2       1 RES1    0.0000
      8 H1         1.7473    6.2032   -3.5108 H         1 RES1    0.0000
      9 H2         3.2935    6.8682   -1.8452 H         1 RES1    0.0000
     10 H3         3.9511    4.8602   -0.0898 H         1 RES1    0.0000
     11 H4         2.7216    2.9289   -0.3291 H         1 RES1    0.0000
     12 H5         0.1819    0.2430   -1.3814 H         1 RES1    0.0000
     13 H6         1.0170    1.4453   -0.2444 H         1 RES1    0.0000
     14 N1         0.1632    4.2667   -3.7577 N.pl3     1 RES1    0.0000
     15 N2         0.8153    1.2023   -1.2029 N.am      1 RES1    0.0000
     16 O1         0.2787    4.7438   -4.8812 O.2       1 RES1    0.0000
     17 O2        -0.8573    3.7308   -3.3403 O.2       1 RES1    0.0000
     18 O3         0.9822    1.4849   -3.4285 O.2       1 RES1    0.0000
@<TRIPOS>BOND
     1    1    2 ar
     2    2    3 ar
     3    3    4 ar
     4    4    5 ar
     5    5    6 ar
     6    6    1 ar
     7    7    6 1
     8    8    2 1
     9    9    3 1
    10   10    4 1
    11   11    5 1
    12   12   15 1
    13   13   15 1
    14   14    1 1
    15   15    7 1
    16   16   14 2
    17   17   14 2
    18   18    7 2
@<TRIPOS>SUBSTRUCTURE
     1 RES1 1

@<TRIPOS>CRYSIN
  12.0100   12.7900    5.0300  90.0000  97.5000  90.0000  14 2

