# MOL2 file generated by ConQuest
# Please check atom types

@<TRIPOS>MOLECULE
ONITPH
    15    15     1
SMALL
NO_CHARGES
****
Generated from CSD

@<TRIPOS>ATOM
      1 C1         2.7500    3.8390   -0.3177 C.ar      1 RES1    0.0000
      2 C2         2.6567    4.2721   -1.6409 C.ar      1 RES1    0.0000
      3 C3         2.5781    3.3541   -2.6852 C.ar      1 RES1    0.0000
      4 C4         2.5804    2.0159   -2.4169 C.ar      1 RES1    0.0000
      5 C5         2.6681    1.5972   -1.1131 C.ar      1 RES1    0.0000
      6 C6         2.7513    2.4735   -0.0850 C.ar      1 RES1    0.0000
      7 N1         2.6265    5.6880   -1.9830 N.pl3     1 RES1    0.0000
      8 O1         2.8323    4.6491    0.7448 O.3       1 RES1    0.0000
      9 O2         2.7003    6.5024   -1.0593 O.2       1 RES1    0.0000
     10 O3         2.5060    6.0017   -3.1392 O.2       1 RES1    0.0000
     11 H1         2.8423    5.4103    0.4940 H         1 RES1    0.0000
     12 H2         2.5832    3.6548   -3.5769 H         1 RES1    0.0000
     13 H3         2.5078    1.5252   -3.1017 H         1 RES1    0.0000
     14 H4         2.6353    0.6763   -0.9318 H         1 RES1    0.0000
     15 H5         2.8076    2.2303    0.7754 H         1 RES1    0.0000
@<TRIPOS>BOND
     1    1    2 ar
     2    2    3 ar
     3    3    4 ar
     4    4    5 ar
     5    5    6 ar
     6    6    1 ar
     7    7    2 1
     8    8    1 1
     9    9    7 2
    10   10    7 2
    11   11    8 1
    12   12    3 1
    13   13    4 1
    14   14    5 1
    15   15    6 1
@<TRIPOS>SUBSTRUCTURE
     1 RES1 1

@<TRIPOS>CRYSIN
   6.8760   14.3890    6.4390  90.0000 103.7900  90.0000  14 2

