# MOL2 file generated by ConQuest
# Please check atom types

@<TRIPOS>MOLECULE
ONITPH01
    15    15     1
SMALL
NO_CHARGES
****
Generated from CSD

@<TRIPOS>ATOM
      1 O1         1.6143    9.6709    3.5160 O.3       1 RES1    0.0000
      2 H1         1.9566    8.8276    3.6114 H         1 RES1    0.0000
      3 N1         4.2354    8.6533    4.3484 N.pl3     1 RES1    0.0000
      4 C1         2.6389   10.4872    3.8369 C.ar      1 RES1    0.0000
      5 O2         3.3490    7.8144    4.0719 O.2       1 RES1    0.0000
      6 C2         3.9187   10.0622    4.2319 C.ar      1 RES1    0.0000
      7 O3         5.3520    8.3232    4.7247 O.2       1 RES1    0.0000
      8 C3         4.9299   10.9734    4.5418 C.ar      1 RES1    0.0000
      9 H2         5.7909   10.6619    4.7942 H         1 RES1    0.0000
     10 C4         4.6741   12.3294    4.4804 C.ar      1 RES1    0.0000
     11 H3         5.3548   12.9576    4.6916 H         1 RES1    0.0000
     12 C5         3.3971   12.7672    4.1025 C.ar      1 RES1    0.0000
     13 H4         3.2136   13.6985    4.0687 H         1 RES1    0.0000
     14 C6         2.4007   11.8667    3.7791 C.ar      1 RES1    0.0000
     15 H5         1.5458   12.1852    3.5146 H         1 RES1    0.0000
@<TRIPOS>BOND
     1    1    2 1
     2    3    5 2
     3    4    1 1
     4    6    3 1
     5    7    3 2
     6    8    6 ar
     7    9    8 1
     8   10    8 ar
     9   11   10 1
    10   12   10 ar
    11   13   12 1
    12   14    4 ar
    13   15   14 1
    14    4    6 ar
    15   12   14 ar
@<TRIPOS>SUBSTRUCTURE
     1 RES1 1

@<TRIPOS>CRYSIN
   6.3511   14.3305    6.6757  90.0000 103.3480  90.0000  14 1

