# MOL2 file generated by ConQuest
# Please check atom types

@<TRIPOS>MOLECULE
ONONIP
    47    48     1
SMALL
NO_CHARGES
****
Generated from CSD

@<TRIPOS>ATOM
      1 C1         1.1801    7.5073    1.6521 C.2       1 RES1    0.0000
      2 C2         0.3779    5.2929    2.2681 C.2       1 RES1    0.0000
      3 C3         1.0771    5.3095    3.4091 C.2       1 RES1    0.0000
      4 C4         2.1571    6.3482    3.6153 C.3       1 RES1    0.0000
      5 H1         2.1470    6.6003    4.5621 H         1 RES1    0.0000
      6 C5         3.5467    5.8108    3.2981 C.ar      1 RES1    0.0000
      7 C6         4.5182    5.7408    4.2840 C.ar      1 RES1    0.0000
      8 H2         4.3065    5.9989    5.1510 H         1 RES1    0.0000
      9 C7         5.7929    5.2944    4.0026 C.ar      1 RES1    0.0000
     10 H3         6.4379    5.2447    4.6715 H         1 RES1    0.0000
     11 C8         6.0846    4.9279    2.7213 C.ar      1 RES1    0.0000
     12 C9         5.1437    4.9625    1.7168 C.ar      1 RES1    0.0000
     13 H4         5.3610    4.6975    0.8515 H         1 RES1    0.0000
     14 C10        3.8778    5.3968    2.0226 C.ar      1 RES1    0.0000
     15 H5         3.2291    5.4133    1.3569 H         1 RES1    0.0000
     16 C11       -0.6575    4.2941    1.8435 C.3       1 RES1    0.0000
     17 H6        -0.2524    3.4270    1.7667 H         1 RES1    0.0000
     18 H7        -1.0240    4.5538    0.9948 H         1 RES1    0.0000
     19 H8        -1.3585    4.2625    2.4989 H         1 RES1    0.0000
     20 C12        0.8096    4.3746    4.5040 C.2       1 RES1    0.0000
     21 C13        1.4434    3.7973    6.7069 C.3       1 RES1    0.0000
     22 H9         0.5076    3.8515    6.9556 H         1 RES1    0.0000
     23 H10        1.6577    2.8662    6.5397 H         1 RES1    0.0000
     24 C14        2.2425    4.2836    7.7653 C.3       1 RES1    0.0000
     25 H11        3.1601    4.0517    7.6061 H         1 RES1    0.0000
     26 H12        1.9510    3.8907    8.5910 H         1 RES1    0.0000
     27 H13        2.1579    5.2380    7.8170 H         1 RES1    0.0000
     28 C15        2.3995    8.8132    3.2900 C.3       1 RES1    0.0000
     29 H14        2.0120    9.5366    2.7735 H         1 RES1    0.0000
     30 H15        2.1528    8.9465    4.2179 H         1 RES1    0.0000
     31 C16        4.2559    8.9570    1.8260 C.3       1 RES1    0.0000
     32 H16        4.0287    9.8226    1.4524 H         1 RES1    0.0000
     33 H17        3.8407    8.2691    1.2833 H         1 RES1    0.0000
     34 C17        5.7377    8.7771    1.8419 C.3       1 RES1    0.0000
     35 H18        6.1396    9.4756    2.3636 H         1 RES1    0.0000
     36 H19        6.0735    8.8140    0.9431 H         1 RES1    0.0000
     37 H20        5.9518    7.9251    2.2283 H         1 RES1    0.0000
     38 N1         0.6016    6.3023    1.3414 N.am      1 RES1    0.0000
     39 N2         1.8432    7.5547    2.8308 N.am      1 RES1    0.0000
     40 N3         7.4522    4.4890    2.3891 N.pl3     1 RES1    0.0000
     41 O1         1.0658    8.4821    0.9068 O.2       1 RES1    0.0000
     42 O2         7.7264    4.2708    1.2315 O.2       1 RES1    0.0000
     43 O3         8.2473    4.3513    3.2977 O.2       1 RES1    0.0000
     44 O4        -0.0471    3.5361    4.5456 O.2       1 RES1    0.0000
     45 O5         1.6714    4.5673    5.5117 O.3       1 RES1    0.0000
     46 O6         3.7951    8.8667    3.1748 O.3       1 RES1    0.0000
     47 H21        0.1028    6.3075    0.6327 H         1 RES1    0.0000
@<TRIPOS>BOND
     1    1   38 1
     2    2    3 2
     3    3    4 1
     4    4    5 1
     5    6    4 1
     6    7    6 ar
     7    8    7 1
     8    9    7 ar
     9   10    9 1
    10   11    9 ar
    11   12   11 ar
    12   13   12 1
    13   14    6 ar
    14   15   14 1
    15   16    2 1
    16   17   16 1
    17   18   16 1
    18   19   16 1
    19   20    3 1
    20   21   22 1
    21   23   21 1
    22   24   21 1
    23   25   24 1
    24   26   24 1
    25   27   24 1
    26   28   29 1
    27   30   28 1
    28   31   32 1
    29   33   31 1
    30   34   31 1
    31   35   34 1
    32   36   34 1
    33   37   34 1
    34   38    2 1
    35   39    1 1
    36   40   11 1
    37   41    1 2
    38   42   40 2
    39   43   40 2
    40   44   20 2
    41   45   20 1
    42   46   28 1
    43   47   38 1
    44    4   39 1
    45   12   14 ar
    46   21   45 1
    47   28   39 1
    48   31   46 1
@<TRIPOS>SUBSTRUCTURE
     1 RES1 1

@<TRIPOS>CRYSIN
  12.3053    7.5269   19.9403  90.0000  93.8310  90.0000  14 1

