# MOL2 file generated by ConQuest
# Please check atom types

@<TRIPOS>MOLECULE
OPILOP
    28    29     1
SMALL
NO_CHARGES
****
Generated from CSD

@<TRIPOS>ATOM
      1 O1         2.6840    1.7991    8.1530 O.3       1 RES1    0.0000
      2 N1         2.7923    0.6613    8.9185 N.pl3     1 RES1    0.0000
      3 O2         1.6933    0.1584    6.4915 O.2       1 RES1    0.0000
      4 C1         2.4116   -0.6061    8.5484 C.2       1 RES1    0.0000
      5 N2         2.6807   -1.4426    9.5581 N.2       1 RES1    0.0000
      6 C2         3.2212   -0.6837   10.5396 C.2       1 RES1    0.0000
      7 C3         3.3136    0.6454   10.1568 C.2       1 RES1    0.0000
      8 C4         1.8668   -0.8313    7.2331 C.2       1 RES1    0.0000
      9 C5         1.5614   -2.1871    6.7130 C.ar      1 RES1    0.0000
     10 C6         1.4652   -3.3275    7.5018 C.ar      1 RES1    0.0000
     11 H1         1.5833   -3.2434    8.4501 H         1 RES1    0.0000
     12 C7         1.1826   -4.5488    6.9304 C.ar      1 RES1    0.0000
     13 H2         1.1438   -5.3129    7.4840 H         1 RES1    0.0000
     14 C8         1.0075   -4.6493    5.5712 C.ar      1 RES1    0.0000
     15 H3         0.8579   -5.4769    5.1445 H         1 RES1    0.0000
     16 C9         1.0981   -3.5267    4.7824 C.ar      1 RES1    0.0000
     17 H4         0.9756   -3.5427    3.8237 H         1 RES1    0.0000
     18 C10        1.3647   -2.3021    5.3420 C.ar      1 RES1    0.0000
     19 H5         1.4158   -1.5376    4.7935 H         1 RES1    0.0000
     20 C11        3.6254   -1.2566   11.8549 C.3       1 RES1    0.0000
     21 H6         2.8931   -1.3275   12.4687 H         1 RES1    0.0000
     22 H7         4.2734   -0.7236   12.2932 H         1 RES1    0.0000
     23 H8         3.9227   -2.1790   11.7483 H         1 RES1    0.0000
     24 C12        3.8488    1.8571   10.8311 C.3       1 RES1    0.0000
     25 H9         4.5727    2.2792   10.2890 H         1 RES1    0.0000
     26 H10        3.2501    2.5672   10.9263 H         1 RES1    0.0000
     27 H11        4.4129    1.5958   11.5913 H         1 RES1    0.0000
     28 H12        2.2456    1.4110    7.3057 H         1 RES1    0.0000
@<TRIPOS>BOND
     1    1    2 1
     2    2    4 1
     3    3    8 2
     4    4    5 2
     5    5    6 1
     6    6    7 2
     7    7    2 1
     8    8    4 1
     9    9    8 1
    10   10    9 ar
    11   11   10 1
    12   12   10 ar
    13   13   12 1
    14   14   12 ar
    15   15   14 1
    16   16   14 ar
    17   17   16 1
    18   18    9 ar
    19   19   18 1
    20   20    6 1
    21   21   20 1
    22   22   20 1
    23   23   20 1
    24   24    7 1
    25   25   24 1
    26   26   24 1
    27   27   24 1
    28   28    1 1
    29   16   18 ar
@<TRIPOS>SUBSTRUCTURE
     1 RES1 1

@<TRIPOS>CRYSIN
   7.4321    8.0943    9.6860  90.9990 107.1640  98.2640   2 1

