# MOL2 file generated by ConQuest
# Please check atom types

@<TRIPOS>MOLECULE
OPMHOC
    35    39     1
SMALL
NO_CHARGES
****
Generated from CSD

@<TRIPOS>ATOM
      1 C1        -1.7317   -5.4682   -7.6654 C.3       1 RES1    0.0000
      2 C2        -1.4300   -5.2716   -9.1433 C.2       1 RES1    0.0000
      3 O1        -2.4414   -5.8924   -9.8227 O.3       1 RES1    0.0000
      4 N1        -3.2935   -6.5504   -8.8209 N.3       1 RES1    0.0000
      5 C3        -4.0655   -5.4373   -8.1680 C.3       1 RES1    0.0000
      6 C4        -5.0210   -6.1510   -7.2340 C.3       1 RES1    0.0000
      7 C5        -4.2680   -7.1449   -6.3810 C.ar      1 RES1    0.0000
      8 C6        -4.8564   -7.7813   -5.2949 C.ar      1 RES1    0.0000
      9 C7        -4.1404   -8.6529   -4.5097 C.ar      1 RES1    0.0000
     10 C8        -2.8042   -8.9114   -4.7890 C.ar      1 RES1    0.0000
     11 C9        -2.2041   -8.3107   -5.8801 C.ar      1 RES1    0.0000
     12 C10       -2.9307   -7.4298   -6.6670 C.ar      1 RES1    0.0000
     13 N2        -2.2737   -6.8632   -7.8225 N.3       1 RES1    0.0000
     14 C11       -2.9993   -4.6152   -7.4208 C.3       1 RES1    0.0000
     15 O2        -0.5442   -4.7065   -9.7136 O.2       1 RES1    0.0000
     16 C12       -0.5473   -5.3459   -6.7562 C.ar      1 RES1    0.0000
     17 C13       -0.5368   -4.4758   -5.6734 C.ar      1 RES1    0.0000
     18 C14        0.5853   -4.3891   -4.8601 C.ar      1 RES1    0.0000
     19 C15        1.6969   -5.1571   -5.1163 C.ar      1 RES1    0.0000
     20 C16        1.6979   -6.0209   -6.1909 C.ar      1 RES1    0.0000
     21 C17        0.5895   -6.1138   -7.0075 C.ar      1 RES1    0.0000
     22 H1        -4.5285   -4.9542   -8.8937 H         1 RES1    0.0000
     23 H2        -5.4322   -5.4946   -6.6868 H         1 RES1    0.0000
     24 H3        -5.7075   -6.5860   -7.7547 H         1 RES1    0.0000
     25 H4        -5.8182   -7.6079   -5.0882 H         1 RES1    0.0000
     26 H5        -4.5654   -9.0601   -3.7162 H         1 RES1    0.0000
     27 H6        -2.2748   -9.5152   -4.2055 H         1 RES1    0.0000
     28 H7        -1.2339   -8.4888   -6.1066 H         1 RES1    0.0000
     29 H8        -3.1997   -4.5610   -6.4355 H         1 RES1    0.0000
     30 H9        -2.8928   -3.6677   -7.7745 H         1 RES1    0.0000
     31 H10       -1.3552   -3.9448   -5.4685 H         1 RES1    0.0000
     32 H11        0.5442   -3.8426   -4.1361 H         1 RES1    0.0000
     33 H12        2.5068   -5.1122   -4.5295 H         1 RES1    0.0000
     34 H13        2.5015   -6.5551   -6.4008 H         1 RES1    0.0000
     35 H14        0.5726   -6.7858   -7.7679 H         1 RES1    0.0000
@<TRIPOS>BOND
     1    1    2 1
     2    2    3 1
     3    3    4 1
     4    4    5 1
     5    5    6 1
     6    6    7 1
     7    7    8 ar
     8    8    9 ar
     9    9   10 ar
    10   10   11 ar
    11   11   12 ar
    12   12    7 ar
    13   13    1 1
    14   14    1 1
    15   15    2 2
    16   16    1 1
    17   17   16 ar
    18   18   17 ar
    19   19   18 ar
    20   20   19 ar
    21   21   16 ar
    22   22    5 1
    23   23    6 1
    24   24    6 1
    25   25    8 1
    26   26    9 1
    27   27   10 1
    28   28   11 1
    29   29   14 1
    30   30   14 1
    31   31   17 1
    32   32   18 1
    33   33   19 1
    34   34   20 1
    35   35   21 1
    36    4   13 1
    37    5   14 1
    38   12   13 1
    39   20   21 ar
@<TRIPOS>SUBSTRUCTURE
     1 RES1 1

@<TRIPOS>CRYSIN
  10.5460   15.4820   16.5310  90.0000  90.0000  90.0000  61 1

