# MOL2 file generated by ConQuest
# Please check atom types

@<TRIPOS>MOLECULE
OPOHEI
    59    62     1
SMALL
NO_CHARGES
****
Generated from CSD

@<TRIPOS>ATOM
      1 O1        10.0300   10.7133   11.8494 O.3       1 RES1    0.0000
      2 O2        10.7000   12.4624   10.6007 O.2       1 RES1    0.0000
      3 O3         9.9332    7.7405   11.9851 O.3       1 RES1    0.0000
      4 O4         7.4926   14.8945   16.6241 O.2       1 RES1    0.0000
      5 O5         7.8033   16.5815   15.3050 O.2       1 RES1    0.0000
      6 N1         7.9091   15.3919   15.5839 N.pl3     1 RES1    0.0000
      7 C1        10.4172    9.8125   10.7764 C.3       1 RES1    0.0000
      8 C2        10.9369    8.5084   11.3307 C.3       1 RES1    0.0000
      9 C3        11.4586    7.7169   10.1383 C.3       1 RES1    0.0000
     10 C4        12.0197    6.3299   10.4687 C.3       1 RES1    0.0000
     11 C5        13.0218    6.4265   11.6134 C.ar      1 RES1    0.0000
     12 C6        12.7345    5.8949   12.8324 C.ar      1 RES1    0.0000
     13 C7        13.5956    6.0827   13.9648 C.ar      1 RES1    0.0000
     14 C8        13.2900    5.5458   15.2222 C.ar      1 RES1    0.0000
     15 C9        14.1354    5.7633   16.2807 C.ar      1 RES1    0.0000
     16 C10       15.3188    6.5256   16.1199 C.ar      1 RES1    0.0000
     17 C11       15.6375    7.0453   14.9068 C.ar      1 RES1    0.0000
     18 C12       14.7740    6.8361   13.7802 C.ar      1 RES1    0.0000
     19 C13       15.0811    7.3577   12.5031 C.ar      1 RES1    0.0000
     20 C14       14.2328    7.1568   11.4530 C.ar      1 RES1    0.0000
     21 C15       12.5879    5.6646    9.2198 C.ar      1 RES1    0.0000
     22 C16       12.3966    4.2964    9.0242 C.ar      1 RES1    0.0000
     23 C17       12.8569    3.6711    7.8701 C.ar      1 RES1    0.0000
     24 C18       13.5133    4.3870    6.9014 C.ar      1 RES1    0.0000
     25 C19       13.7381    5.7416    7.0816 C.ar      1 RES1    0.0000
     26 C20       13.2735    6.3716    8.2315 C.ar      1 RES1    0.0000
     27 C21        9.7946    8.0360   13.3690 C.3       1 RES1    0.0000
     28 C22       10.1951   12.0187   11.6008 C.2       1 RES1    0.0000
     29 C23        9.6495   12.8691   12.7010 C.ar      1 RES1    0.0000
     30 C24        9.1780   12.3296   13.8955 C.ar      1 RES1    0.0000
     31 C25        8.6414   13.1623   14.8647 C.ar      1 RES1    0.0000
     32 C26        8.5697   14.5149   14.6004 C.ar      1 RES1    0.0000
     33 C27        9.0493   15.0808   13.4327 C.ar      1 RES1    0.0000
     34 C28        9.5947   14.2407   12.4796 C.ar      1 RES1    0.0000
     35 H1        11.1076   10.2260   10.2653 H         1 RES1    0.0000
     36 H2         9.6266    9.6947   10.2445 H         1 RES1    0.0000
     37 H3        11.6760    8.7019   11.9604 H         1 RES1    0.0000
     38 H4        12.1750    8.2824    9.7142 H         1 RES1    0.0000
     39 H5        10.6951    7.6150    9.5110 H         1 RES1    0.0000
     40 H6        11.2460    5.7865   10.7774 H         1 RES1    0.0000
     41 H7        11.8932    5.4611   12.9466 H         1 RES1    0.0000
     42 H8        12.4191    5.0427   15.2788 H         1 RES1    0.0000
     43 H9        13.8701    5.3692   17.2500 H         1 RES1    0.0000
     44 H10       15.9247    6.6487   16.8683 H         1 RES1    0.0000
     45 H11       16.4406    7.5397   14.7641 H         1 RES1    0.0000
     46 H12       15.9737    7.8762   12.4099 H         1 RES1    0.0000
     47 H13       14.4696    7.5309   10.4959 H         1 RES1    0.0000
     48 H14       11.9498    3.8252    9.7142 H         1 RES1    0.0000
     49 H15       12.6829    2.7128    7.7273 H         1 RES1    0.0000
     50 H16       13.8396    3.9558    6.0584 H         1 RES1    0.0000
     51 H17       14.2169    6.2458    6.3971 H         1 RES1    0.0000
     52 H18       13.4353    7.3051    8.3345 H         1 RES1    0.0000
     53 H19        9.1873    7.3981   13.7271 H         1 RES1    0.0000
     54 H20       10.6795    7.9548   13.8482 H         1 RES1    0.0000
     55 H21        9.4315    8.8546   13.5108 H         1 RES1    0.0000
     56 H22        9.2143   11.3749   14.0528 H         1 RES1    0.0000
     57 H23        8.3325   12.8160   15.6866 H         1 RES1    0.0000
     58 H24        8.9828   16.0358   13.2893 H         1 RES1    0.0000
     59 H25        9.9261   14.5980   11.6789 H         1 RES1    0.0000
@<TRIPOS>BOND
     1    1    7 1
     2    2   28 2
     3    3    8 1
     4    4    6 2
     5    5    6 2
     6    6   32 1
     7    7    8 1
     8    8    9 1
     9    9   10 1
    10   10   11 1
    11   11   12 ar
    12   12   13 ar
    13   13   14 ar
    14   14   15 ar
    15   15   16 ar
    16   16   17 ar
    17   17   18 ar
    18   18   13 ar
    19   19   18 ar
    20   20   11 ar
    21   21   10 1
    22   22   21 ar
    23   23   22 ar
    24   24   23 ar
    25   25   24 ar
    26   26   21 ar
    27   27    3 1
    28   28    1 1
    29   29   28 1
    30   30   29 ar
    31   31   30 ar
    32   32   31 ar
    33   33   32 ar
    34   34   29 ar
    35   35    7 1
    36   36    7 1
    37   37    8 1
    38   38    9 1
    39   39    9 1
    40   40   10 1
    41   41   12 1
    42   42   14 1
    43   43   15 1
    44   44   16 1
    45   45   17 1
    46   46   19 1
    47   47   20 1
    48   48   22 1
    49   49   23 1
    50   50   24 1
    51   51   25 1
    52   52   26 1
    53   53   27 1
    54   54   27 1
    55   55   27 1
    56   56   30 1
    57   57   31 1
    58   58   33 1
    59   59   34 1
    60   19   20 ar
    61   25   26 ar
    62   33   34 ar
@<TRIPOS>SUBSTRUCTURE
     1 RES1 1

@<TRIPOS>CRYSIN
  15.8595   11.0683   13.0301  90.0000  90.8344  90.0000  14 1

