# MOL2 file generated by ConQuest
# Please check atom types

@<TRIPOS>MOLECULE
OPOXAZ
    19    20     1
SMALL
NO_CHARGES
****
Generated from CSD

@<TRIPOS>ATOM
      1 C1         4.3244    6.1155  -11.6779 C.ar      1 RES1    0.0000
      2 C2         3.3135    5.2858  -12.1664 C.ar      1 RES1    0.0000
      3 C3         2.8162    4.2559  -11.3929 C.ar      1 RES1    0.0000
      4 C4         2.2130    1.4202   -7.7912 C.2       1 RES1    0.0000
      5 C5         3.0989    2.4968   -7.9977 C.2       1 RES1    0.0000
      6 C6         2.8226    2.9548   -9.2613 C.2       1 RES1    0.0000
      7 C7         3.3352    4.0021  -10.1069 C.ar      1 RES1    0.0000
      8 C8         4.3615    4.8594   -9.6409 C.ar      1 RES1    0.0000
      9 C9         4.8502    5.8831  -10.4240 C.ar      1 RES1    0.0000
     10 H1         4.7239    6.7454  -12.2673 H         1 RES1    0.0000
     11 H2         3.0037    5.4144  -13.1481 H         1 RES1    0.0000
     12 H3         2.0039    3.4968  -11.7708 H         1 RES1    0.0000
     13 H4         3.7784    3.0794   -7.3508 H         1 RES1    0.0000
     14 H5         1.3525   -0.1015   -6.8223 H         1 RES1    0.0000
     15 H6         4.6470    4.5910   -8.7280 H         1 RES1    0.0000
     16 H7         5.7102    6.4860  -10.0412 H         1 RES1    0.0000
     17 N1         1.4623    1.1821   -8.8417 N.2       1 RES1    0.0000
     18 O1         1.8383    2.1612   -9.7962 O.3       1 RES1    0.0000
     19 O2         2.1520    0.6525   -6.6925 O.3       1 RES1    0.0000
@<TRIPOS>BOND
     1    1    2 ar
     2    2    3 ar
     3    3    7 ar
     4    4    5 1
     5    5    6 2
     6    6    7 1
     7    7    8 ar
     8    8    9 ar
     9    9    1 ar
    10   10    1 1
    11   11    2 1
    12   12    3 1
    13   13    5 1
    14   14   19 1
    15   15    8 1
    16   16    9 1
    17   17    4 2
    18   18    6 1
    19   19    4 1
    20   17   18 1
@<TRIPOS>SUBSTRUCTURE
     1 RES1 1

@<TRIPOS>CRYSIN
   8.7500    5.6400   16.1000  90.0000  95.9000  90.0000  14 1

