# MOL2 file generated by ConQuest
# Please check atom types

@<TRIPOS>MOLECULE
OPUQIB
    47    48     1
SMALL
NO_CHARGES
****
Generated from CSD

@<TRIPOS>ATOM
      1 O1         4.6577    5.7787   -3.3187 O.3       1 RES1    0.0000
      2 O2         6.4328    6.5551   -2.1715 O.2       1 RES1    0.0000
      3 O3         1.1625    3.3551   -1.1039 O.2       1 RES1    0.0000
      4 O4         1.1086    3.1942    1.0558 O.2       1 RES1    0.0000
      5 O5         4.6647    5.1747    3.6916 O.2       1 RES1    0.0000
      6 O6         6.3830    6.0118    2.6696 O.2       1 RES1    0.0000
      7 N1         1.6286    3.5766    0.0121 N.pl3     1 RES1    0.0000
      8 N2         5.2662    5.5128    2.6820 N.pl3     1 RES1    0.0000
      9 C1         5.2252    6.3113   -4.5495 C.3       1 RES1    0.0000
     10 H1         6.1520    5.9838   -4.6655 H         1 RES1    0.0000
     11 H2         5.2439    7.3006   -4.5157 H         1 RES1    0.0000
     12 C2         4.3634    5.8470   -5.6983 C.3       1 RES1    0.0000
     13 H3         4.3710    4.8472   -5.7171 H         1 RES1    0.0000
     14 C3         4.9936    6.3595   -6.9909 C.3       1 RES1    0.0000
     15 H4         5.0557    7.3459   -6.9345 H         1 RES1    0.0000
     16 H5         5.9169    6.0079   -7.0460 H         1 RES1    0.0000
     17 C4         4.2719    6.0021   -8.2806 C.3       1 RES1    0.0000
     18 H6         3.4084    6.5069   -8.2825 H         1 RES1    0.0000
     19 C5         5.0686    6.4722   -9.5018 C.ar      1 RES1    0.0000
     20 C6         6.3033    5.9222   -9.7991 C.ar      1 RES1    0.0000
     21 H7         6.6843    5.2797   -9.2130 H         1 RES1    0.0000
     22 C7         6.9944    6.2998  -10.9514 C.ar      1 RES1    0.0000
     23 H8         7.8345    5.9068  -11.1570 H         1 RES1    0.0000
     24 C8         6.4469    7.2505  -11.7934 C.ar      1 RES1    0.0000
     25 H9         6.9159    7.5231  -12.5719 H         1 RES1    0.0000
     26 C9         5.2152    7.8035  -11.4967 C.ar      1 RES1    0.0000
     27 H10        4.8318    8.4488  -12.0780 H         1 RES1    0.0000
     28 C10        4.5398    7.4172  -10.3520 C.ar      1 RES1    0.0000
     29 H11        3.6986    7.8102  -10.1500 H         1 RES1    0.0000
     30 C11        3.9266    4.5351   -8.3975 C.3       1 RES1    0.0000
     31 H12        3.5602    4.3559   -9.2895 H         1 RES1    0.0000
     32 H13        3.2607    4.3010   -7.7184 H         1 RES1    0.0000
     33 H14        4.7351    3.9976   -8.2634 H         1 RES1    0.0000
     34 C12        2.9324    6.3133   -5.5100 C.3       1 RES1    0.0000
     35 H15        2.5894    5.9781   -4.6559 H         1 RES1    0.0000
     36 H16        2.3778    5.9703   -6.2429 H         1 RES1    0.0000
     37 H17        2.9048    7.2929   -5.5100 H         1 RES1    0.0000
     38 C13        5.3500    6.0185   -2.2113 C.2       1 RES1    0.0000
     39 C14        4.6336    5.5292   -0.9971 C.ar      1 RES1    0.0000
     40 C15        3.4401    4.8241   -1.0749 C.ar      1 RES1    0.0000
     41 H18        3.0268    4.6584   -1.9153 H         1 RES1    0.0000
     42 C16        2.8655    4.3675    0.1001 C.ar      1 RES1    0.0000
     43 C17        3.4260    4.5852    1.3518 C.ar      1 RES1    0.0000
     44 H19        3.0162    4.2644    2.1479 H         1 RES1    0.0000
     45 C18        4.6078    5.2922    1.3786 C.ar      1 RES1    0.0000
     46 C19        5.2257    5.7690    0.2412 C.ar      1 RES1    0.0000
     47 H20        6.0418    6.2516    0.3027 H         1 RES1    0.0000
@<TRIPOS>BOND
     1    1    9 1
     2    2   38 2
     3    3    7 2
     4    4    7 2
     5    5    8 2
     6    6    8 2
     7    7   42 1
     8    8   45 1
     9    9   10 1
    10   11    9 1
    11   12    9 1
    12   13   12 1
    13   14   12 1
    14   15   14 1
    15   16   14 1
    16   17   14 1
    17   18   17 1
    18   19   17 1
    19   20   19 ar
    20   21   20 1
    21   22   20 ar
    22   23   22 1
    23   24   22 ar
    24   25   24 1
    25   26   24 ar
    26   27   26 1
    27   28   19 ar
    28   29   28 1
    29   30   17 1
    30   31   30 1
    31   32   30 1
    32   33   30 1
    33   34   12 1
    34   35   34 1
    35   36   34 1
    36   37   34 1
    37   38    1 1
    38   39   38 1
    39   40   39 ar
    40   41   40 1
    41   42   40 ar
    42   43   42 ar
    43   44   43 1
    44   45   43 ar
    45   46   39 ar
    46   47   46 1
    47   26   28 ar
    48   45   46 ar
@<TRIPOS>SUBSTRUCTURE
     1 RES1 1

@<TRIPOS>CRYSIN
   5.8624    9.6327   31.8680  90.0000  90.0000  90.0000  19 1

