# MOL2 file generated by ConQuest
# Please check atom types

@<TRIPOS>MOLECULE
OQIVUG
    32    34     1
SMALL
NO_CHARGES
****
Generated from CSD

@<TRIPOS>ATOM
      1 C1        15.9306   17.5903    1.4330 C.2       1 RES1    0.0000
      2 C2        15.1691   18.1044    2.6199 C.ar      1 RES1    0.0000
      3 C3        13.8052   18.2781    2.5563 C.ar      1 RES1    0.0000
      4 H1        13.3300   17.9940    1.7839 H         1 RES1    0.0000
      5 C4        13.1187   18.8616    3.6036 C.ar      1 RES1    0.0000
      6 H2        12.1812   19.0034    3.5338 H         1 RES1    0.0000
      7 C5        13.7808   19.2353    4.7394 C.ar      1 RES1    0.0000
      8 H3        13.3040   19.6133    5.4689 H         1 RES1    0.0000
      9 C6        15.1351   19.0594    4.8164 C.ar      1 RES1    0.0000
     10 H4        15.5994   19.3107    5.6077 H         1 RES1    0.0000
     11 C7        15.8336   18.5204    3.7567 C.ar      1 RES1    0.0000
     12 H5        16.7790   18.4361    3.8086 H         1 RES1    0.0000
     13 C8        15.8138   16.2348    0.9917 C.2       1 RES1    0.0000
     14 C9        16.2487   15.7407   -0.2990 C.ar      1 RES1    0.0000
     15 C10       16.7842   16.3189   -1.4500 C.ar      1 RES1    0.0000
     16 H6        16.9539   17.2517   -1.4867 H         1 RES1    0.0000
     17 C11       17.0624   15.5121   -2.5367 C.ar      1 RES1    0.0000
     18 H7        17.4243   15.8996   -3.3243 H         1 RES1    0.0000
     19 C12       16.8206   14.1352   -2.5000 C.ar      1 RES1    0.0000
     20 H8        17.0390   13.6042   -3.2554 H         1 RES1    0.0000
     21 C13       16.2743   13.5395   -1.3945 C.ar      1 RES1    0.0000
     22 H9        16.0958   12.6067   -1.3659 H         1 RES1    0.0000
     23 C14       15.9944   14.3657   -0.3249 C.ar      1 RES1    0.0000
     24 C15       15.3214   15.1353    1.7051 C.2       1 RES1    0.0000
     25 C16       14.8027   14.9701    3.0925 C.3       1 RES1    0.0000
     26 H10       14.5451   14.0345    3.2366 H         1 RES1    0.0000
     27 H11       14.0203   15.5474    3.2205 H         1 RES1    0.0000
     28 H12       15.5001   15.2188    3.7343 H         1 RES1    0.0000
     29 N1        15.4325   14.0581    0.9067 N.pl3     1 RES1    0.0000
     30 O1        16.6338   18.4020    0.7966 O.2       1 RES1    0.0000
     31 O2        15.0916   12.7691    1.2610 O.3       1 RES1    0.0000
     32 H13       14.3063   12.6067    1.0070 H         1 RES1    0.0000
@<TRIPOS>BOND
     1    1    2 1
     2    2    3 ar
     3    3    4 1
     4    5    3 ar
     5    6    5 1
     6    7    5 ar
     7    8    7 1
     8    9    7 ar
     9   10    9 1
    10   11    2 ar
    11   12   11 1
    12   13    1 1
    13   14   13 1
    14   15   14 ar
    15   16   15 1
    16   17   15 ar
    17   18   17 1
    18   19   17 ar
    19   20   19 1
    20   21   19 ar
    21   22   21 1
    22   23   14 ar
    23   24   13 2
    24   25   24 1
    25   26   25 1
    26   27   25 1
    27   28   25 1
    28   29   23 1
    29   30    1 2
    30   31   29 1
    31   32   31 1
    32    9   11 ar
    33   21   23 ar
    34   24   29 1
@<TRIPOS>SUBSTRUCTURE
     1 RES1 1

@<TRIPOS>CRYSIN
  23.6390   23.6390    8.9508  90.0000  90.0000  90.0000  88 1

