# MOL2 file generated by ConQuest
# Please check atom types

@<TRIPOS>MOLECULE
OQOLIR
    37    38     1
SMALL
NO_CHARGES
****
Generated from CSD

@<TRIPOS>ATOM
      1 C1        -0.7565    4.0315    3.4467 C.3       1 RES1    0.0000
      2 H1        -1.4801    3.3975    3.6338 H         1 RES1    0.0000
      3 N1         0.0861    2.2667    1.9411 N.2       1 RES1    0.0000
      4 O1         0.0670    4.1155    4.5804 O.3       1 RES1    0.0000
      5 C2         0.0838    3.4835    2.3077 C.2       1 RES1    0.0000
      6 O2        -0.7551    1.4898    2.7493 O.3       1 RES1    0.0000
      7 H2        -0.6925    0.7017    2.5310 H         1 RES1    0.0000
      8 C3         0.9760    4.4864    1.6308 C.3       1 RES1    0.0000
      9 H3         1.6612    4.7517    2.2788 H         1 RES1    0.0000
     10 O3         1.6452    3.9156    0.5189 O.3       1 RES1    0.0000
     11 H4         2.3680    4.2894    0.4127 H         1 RES1    0.0000
     12 C4         0.1744    5.7343    1.2803 C.3       1 RES1    0.0000
     13 H5         0.7769    6.4100    0.9042 H         1 RES1    0.0000
     14 O4        -0.8404    5.4256    0.3241 O.3       1 RES1    0.0000
     15 H6        -0.7951    5.9525   -0.3028 H         1 RES1    0.0000
     16 O5        -1.3278    5.2830    3.1181 O.3       1 RES1    0.0000
     17 C5        -0.4199    6.2583    2.5742 C.3       1 RES1    0.0000
     18 H7         0.3031    6.4158    3.2169 H         1 RES1    0.0000
     19 O6        -0.4241    8.5718    1.9249 O.3       1 RES1    0.0000
     20 H8        -0.5941    8.6879    1.1310 H         1 RES1    0.0000
     21 C6        -1.2387    7.5204    2.4355 C.3       1 RES1    0.0000
     22 H9        -1.9833    7.3626    1.8338 H         1 RES1    0.0000
     23 H10       -1.5966    7.7748    3.3000 H         1 RES1    0.0000
     24 C7        -0.6859    4.3862    5.7706 C.3       1 RES1    0.0000
     25 H11       -1.4186    3.7547    5.8464 H         1 RES1    0.0000
     26 H12       -1.0587    5.2807    5.7281 H         1 RES1    0.0000
     27 C8         0.2157    4.2672    6.9677 C.ar      1 RES1    0.0000
     28 C9         1.0020    3.1514    7.1520 C.ar      1 RES1    0.0000
     29 H13        0.9734    2.4594    6.5309 H         1 RES1    0.0000
     30 C10        1.8334    3.0501    8.2527 C.ar      1 RES1    0.0000
     31 H14        2.3491    2.2856    8.3717 H         1 RES1    0.0000
     32 C11        1.9057    4.0626    9.1685 C.ar      1 RES1    0.0000
     33 H15        2.4910    4.0047    9.8886 H         1 RES1    0.0000
     34 C12        1.1027    5.1677    9.0133 C.ar      1 RES1    0.0000
     35 H16        1.1263    5.8511    9.6435 H         1 RES1    0.0000
     36 C13        0.2604    5.2659    7.9220 C.ar      1 RES1    0.0000
     37 H17       -0.2840    6.0142    7.8281 H         1 RES1    0.0000
@<TRIPOS>BOND
     1    1    2 1
     2    3    5 2
     3    4    1 1
     4    5    1 1
     5    6    3 1
     6    7    6 1
     7    8    5 1
     8    9    8 1
     9   10    8 1
    10   11   10 1
    11   12    8 1
    12   13   12 1
    13   14   12 1
    14   15   14 1
    15   16    1 1
    16   17   12 1
    17   18   17 1
    18   19   20 1
    19   21   17 1
    20   22   21 1
    21   23   21 1
    22   24    4 1
    23   25   24 1
    24   26   24 1
    25   27   24 1
    26   28   27 ar
    27   29   28 1
    28   30   28 ar
    29   31   30 1
    30   32   30 ar
    31   33   32 1
    32   34   32 ar
    33   35   34 1
    34   36   27 ar
    35   37   36 1
    36   16   17 1
    37   19   21 1
    38   34   36 ar
@<TRIPOS>SUBSTRUCTURE
     1 RES1 1

@<TRIPOS>CRYSIN
   4.9562    9.6521   14.1759  90.0000  96.5160  90.0000   4 1

