# MOL2 file generated by ConQuest
# Please check atom types

@<TRIPOS>MOLECULE
ORAVUZ
    24    24     1
SMALL
NO_CHARGES
****
Generated from CSD

@<TRIPOS>ATOM
      1 C1         0.5483    2.8575   19.0259 C.ar      1 RES1    0.0000
      2 O1         1.4017    1.8643   19.2260 O.3       1 RES1    0.0000
      3 C2         1.1206    0.5152   18.7615 C.3       1 RES1    0.0000
      4 H1         1.6296   -0.1277   19.2978 H         1 RES1    0.0000
      5 H2         1.3809    0.4331   17.8204 H         1 RES1    0.0000
      6 H3         0.1623    0.3313   18.8540 H         1 RES1    0.0000
      7 C3         0.6567    3.9375   19.9128 C.ar      1 RES1    0.0000
      8 N1         1.5432    3.8125   21.0783 N.pl3     1 RES1    0.0000
      9 O2         2.4738    4.6134   21.1675 O.2       1 RES1    0.0000
     10 O3         1.2892    2.9450   21.8987 O.2       1 RES1    0.0000
     11 C4        -0.1005    5.0962   19.8135 C.ar      1 RES1    0.0000
     12 O4         0.1016    6.0381   20.7312 O.3       1 RES1    0.0000
     13 H4        -0.4137    6.6882   20.5136 H         1 RES1    0.0000
     14 C5        -1.0787    5.1588   18.7875 C.ar      1 RES1    0.0000
     15 N2        -1.9066    6.3173   18.6753 N.pl3     1 RES1    0.0000
     16 O5        -1.6238    7.3243   19.3420 O.2       1 RES1    0.0000
     17 O6        -2.8916    6.2895   17.9262 O.2       1 RES1    0.0000
     18 C6        -1.2520    4.0803   17.8961 C.ar      1 RES1    0.0000
     19 O7        -2.1250    4.0495   16.8907 O.3       1 RES1    0.0000
     20 H5        -2.5921    4.7148   16.8727 H         1 RES1    0.0000
     21 C7        -0.4095    2.9754   18.0128 C.ar      1 RES1    0.0000
     22 N3        -0.5116    1.9941   16.9220 N.pl3     1 RES1    0.0000
     23 O8         0.3624    2.0300   16.0701 O.2       1 RES1    0.0000
     24 O9        -1.4626    1.2190   16.9252 O.2       1 RES1    0.0000
@<TRIPOS>BOND
     1    1    2 1
     2    2    3 1
     3    3    4 1
     4    5    3 1
     5    6    3 1
     6    7    1 ar
     7    8    7 1
     8    9    8 2
     9   10    8 2
    10   11    7 ar
    11   12   11 1
    12   13   12 1
    13   14   11 ar
    14   15   14 1
    15   16   15 2
    16   17   15 2
    17   18   14 ar
    18   19   18 1
    19   20   19 1
    20   21    1 ar
    21   22   21 1
    22   23   22 2
    23   24   22 2
    24   18   21 ar
@<TRIPOS>SUBSTRUCTURE
     1 RES1 1

@<TRIPOS>CRYSIN
   5.2365    8.9295   21.4420  90.0000  90.0000  90.0000  19 1

