# MOL2 file generated by ConQuest
# Please check atom types

@<TRIPOS>MOLECULE
ORIGUT
    62    66     1
SMALL
NO_CHARGES
****
Generated from CSD

@<TRIPOS>ATOM
      1 N1         1.0294   -0.5747    9.9665 N.2       1 RES1    0.0000
      2 N2         0.9681   -4.2455   14.7362 N.pl3     1 RES1    0.0000
      3 O1        -0.9694   -0.2655   11.4705 O.3       1 RES1    0.0000
      4 H1        -0.4585   -0.1414   10.8413 H         1 RES1    0.0000
      5 O2         0.2932   -4.6477   15.6503 O.2       1 RES1    0.0000
      6 O3         2.0532   -4.7299   14.4748 O.2       1 RES1    0.0000
      7 C1         1.4600   -1.4935   10.7467 C.2       1 RES1    0.0000
      8 H2         2.2520   -1.9375   10.5459 H         1 RES1    0.0000
      9 C2         0.7235   -1.8445   11.9365 C.ar      1 RES1    0.0000
     10 C3        -0.4783   -1.2027   12.2575 C.ar      1 RES1    0.0000
     11 C4        -1.1636   -1.5592   13.4112 C.ar      1 RES1    0.0000
     12 H3        -1.9558   -1.1223   13.6280 H         1 RES1    0.0000
     13 C5        -0.6929   -2.5348   14.2237 C.ar      1 RES1    0.0000
     14 H4        -1.1554   -2.7687   14.9951 H         1 RES1    0.0000
     15 C6         0.4861   -3.1797   13.8902 C.ar      1 RES1    0.0000
     16 C7         1.1882   -2.8401   12.7690 C.ar      1 RES1    0.0000
     17 H5         1.9815   -3.2813   12.5664 H         1 RES1    0.0000
     18 C8         1.7039   -0.2183    8.7687 C.ar      1 RES1    0.0000
     19 C9         2.9000   -0.7497    8.3293 C.ar      1 RES1    0.0000
     20 H6         3.3676   -1.3496    8.8634 H         1 RES1    0.0000
     21 C10        3.3984   -0.3895    7.1005 C.ar      1 RES1    0.0000
     22 H7         4.1932   -0.7726    6.8053 H         1 RES1    0.0000
     23 C11        2.7568    0.5230    6.2897 C.ar      1 RES1    0.0000
     24 C12        1.5662    1.0567    6.7467 C.ar      1 RES1    0.0000
     25 H8         1.1063    1.6678    6.2169 H         1 RES1    0.0000
     26 C13        1.0518    0.7018    7.9675 C.ar      1 RES1    0.0000
     27 H9         0.2555    1.0830    8.2599 H         1 RES1    0.0000
     28 C14        3.2518    0.8297    4.9189 C.2       1 RES1    0.0000
     29 C15        3.2268    2.0728    4.3806 C.2       1 RES1    0.0000
     30 C16        2.9622    3.2898    5.1863 C.ar      1 RES1    0.0000
     31 C17        3.7219    3.5968    6.2902 C.ar      1 RES1    0.0000
     32 H10        4.4188    3.0327    6.5374 H         1 RES1    0.0000
     33 C18        3.4676    4.7270    7.0394 C.ar      1 RES1    0.0000
     34 H11        3.9873    4.9177    7.7867 H         1 RES1    0.0000
     35 C19        2.4503    5.5660    6.6816 C.ar      1 RES1    0.0000
     36 H12        2.2681    6.3228    7.1908 H         1 RES1    0.0000
     37 C20        1.7111    5.2908    5.5862 C.ar      1 RES1    0.0000
     38 H13        1.0147    5.8577    5.3431 H         1 RES1    0.0000
     39 C21        1.9831    4.1752    4.8293 C.ar      1 RES1    0.0000
     40 H14        1.4895    4.0192    4.0561 H         1 RES1    0.0000
     41 C22        3.4183    2.3006    2.9332 C.ar      1 RES1    0.0000
     42 C23        2.6077    1.6863    2.0188 C.ar      1 RES1    0.0000
     43 H15        1.9496    1.1012    2.3160 H         1 RES1    0.0000
     44 C24        2.7434    1.9147    0.6720 C.ar      1 RES1    0.0000
     45 H16        2.1742    1.5008    0.0651 H         1 RES1    0.0000
     46 C25        3.7261    2.7583    0.2379 C.ar      1 RES1    0.0000
     47 H17        3.8275    2.9099   -0.6735 H         1 RES1    0.0000
     48 C26        4.5537    3.3753    1.1092 C.ar      1 RES1    0.0000
     49 H18        5.2254    3.9378    0.7987 H         1 RES1    0.0000
     50 C27        4.3906    3.1603    2.4717 C.ar      1 RES1    0.0000
     51 H19        4.9426    3.6001    3.0771 H         1 RES1    0.0000
     52 C28        3.7206   -0.3354    4.1462 C.ar      1 RES1    0.0000
     53 C29        4.9139   -0.2900    3.4492 C.ar      1 RES1    0.0000
     54 H20        5.4489    0.4687    3.4978 H         1 RES1    0.0000
     55 C30        5.3118   -1.3518    2.6883 C.ar      1 RES1    0.0000
     56 H21        6.1078   -1.3011    2.2108 H         1 RES1    0.0000
     57 C31        4.5544   -2.4925    2.6199 C.ar      1 RES1    0.0000
     58 H22        4.8282   -3.2116    2.0982 H         1 RES1    0.0000
     59 C32        3.3939   -2.5543    3.3298 C.ar      1 RES1    0.0000
     60 H23        2.8738   -3.3239    3.2925 H         1 RES1    0.0000
     61 C33        2.9829   -1.5007    4.0979 C.ar      1 RES1    0.0000
     62 H24        2.1988   -1.5705    4.5919 H         1 RES1    0.0000
@<TRIPOS>BOND
     1    1    7 2
     2    2    5 2
     3    3    4 1
     4    6    2 2
     5    7    8 1
     6    9    7 1
     7   10    3 1
     8   11   10 ar
     9   12   11 1
    10   13   11 ar
    11   14   13 1
    12   15    2 1
    13   16    9 ar
    14   17   16 1
    15   18    1 1
    16   19   18 ar
    17   20   19 1
    18   21   19 ar
    19   22   21 1
    20   23   21 ar
    21   24   23 ar
    22   25   24 1
    23   26   18 ar
    24   27   26 1
    25   28   23 1
    26   29   28 2
    27   30   29 1
    28   31   30 ar
    29   32   31 1
    30   33   31 ar
    31   34   33 1
    32   35   33 ar
    33   36   35 1
    34   37   35 ar
    35   38   37 1
    36   39   30 ar
    37   40   39 1
    38   41   29 1
    39   42   41 ar
    40   43   42 1
    41   44   42 ar
    42   45   44 1
    43   46   44 ar
    44   47   46 1
    45   48   46 ar
    46   49   48 1
    47   50   41 ar
    48   51   50 1
    49   52   28 1
    50   53   52 ar
    51   54   53 1
    52   55   53 ar
    53   56   55 1
    54   57   55 ar
    55   58   57 1
    56   59   57 ar
    57   60   59 1
    58   61   52 ar
    59   62   61 1
    60    9   10 ar
    61   13   15 ar
    62   15   16 ar
    63   24   26 ar
    64   37   39 ar
    65   48   50 ar
    66   59   61 ar
@<TRIPOS>SUBSTRUCTURE
     1 RES1 1

@<TRIPOS>CRYSIN
   5.6160    9.3500   25.0700  88.3250  87.4420  83.1600   2 1

