# MOL2 file generated by ConQuest
# Please check atom types

@<TRIPOS>MOLECULE
OROMOZ
    50    53     1
SMALL
NO_CHARGES
****
Generated from CSD

@<TRIPOS>ATOM
      1 O1         3.0401    5.1834    8.3029 O.3       1 RES1    0.0000
      2 N1         1.7633    5.3963    7.5810 N.3       1 RES1    0.0000
      3 C1         1.7168    4.3639    6.5031 C.3       1 RES1    0.0000
      4 N2         2.3893    5.0106    5.3646 N.am      1 RES1    0.0000
      5 C2         2.6248    4.3570    4.0942 C.3       1 RES1    0.0000
      6 H1         3.0478    4.9764    3.4805 H         1 RES1    0.0000
      7 H2         1.7982    4.1019    3.6860 H         1 RES1    0.0000
      8 H3         3.1989    3.5794    4.2123 H         1 RES1    0.0000
      9 C3         2.6101    6.3277    5.5536 C.2       1 RES1    0.0000
     10 C4         2.0345    6.6926    6.9001 C.3       1 RES1    0.0000
     11 C5         2.9425    7.4953    7.8227 C.3       1 RES1    0.0000
     12 C6         3.3112    6.4525    8.8887 C.3       1 RES1    0.0000
     13 C7         2.4304    6.8068   10.0775 C.3       1 RES1    0.0000
     14 O2         1.5255    7.8259    9.6343 O.3       1 RES1    0.0000
     15 C8         2.2258    8.5547    8.6323 C.3       1 RES1    0.0000
     16 H4         1.6223    9.0939    8.0712 H         1 RES1    0.0000
     17 H5         2.8580    9.1752    9.0547 H         1 RES1    0.0000
     18 H6         1.9330    6.0114   10.3915 H         1 RES1    0.0000
     19 H7         2.9603    7.1666   10.8237 H         1 RES1    0.0000
     20 H8         4.2603    6.5049    9.1296 H         1 RES1    0.0000
     21 H9         3.6862    7.8284    7.3221 H         1 RES1    0.0000
     22 H10        1.2016    7.1466    6.7574 H         1 RES1    0.0000
     23 O3         3.1392    7.0975    4.7597 O.2       1 RES1    0.0000
     24 C9         0.2378    4.0284    6.1725 C.3       1 RES1    0.0000
     25 C10       -0.6244    5.2204    5.6863 C.3       1 RES1    0.0000
     26 C11       -1.6494    4.7347    4.6689 C.3       1 RES1    0.0000
     27 H11       -2.2041    5.5000    4.3948 H         1 RES1    0.0000
     28 H12       -1.2349    4.3481    3.8743 H         1 RES1    0.0000
     29 H13       -2.2080    4.0429    5.0940 H         1 RES1    0.0000
     30 C12       -1.3411    5.9813    6.8002 C.3       1 RES1    0.0000
     31 H14       -1.6936    6.8202    6.4078 H         1 RES1    0.0000
     32 H15       -2.0701    5.4677    7.1473 H         1 RES1    0.0000
     33 H16       -0.7585    6.1740    7.5507 H         1 RES1    0.0000
     34 H17       -0.0240    5.8632    5.2073 H         1 RES1    0.0000
     35 C13       -0.4153    3.2575    7.3225 C.3       1 RES1    0.0000
     36 C14        0.3564    1.9997    7.7105 C.3       1 RES1    0.0000
     37 C15        1.8121    2.3395    8.0512 C.3       1 RES1    0.0000
     38 C16        2.4435    3.0695    6.8797 C.3       1 RES1    0.0000
     39 H18        2.3986    2.4643    6.0909 H         1 RES1    0.0000
     40 H19        3.3639    3.2853    7.0762 H         1 RES1    0.0000
     41 C17        2.6240    1.0873    8.3851 C.3       1 RES1    0.0000
     42 H20        3.5506    1.3068    8.5841 H         1 RES1    0.0000
     43 H21        2.6016    0.4634    7.6121 H         1 RES1    0.0000
     44 H22        2.2560    0.6116    9.1949 H         1 RES1    0.0000
     45 H23        1.8268    2.9455    8.8338 H         1 RES1    0.0000
     46 H24        0.3634    1.3781    6.9283 H         1 RES1    0.0000
     47 H25       -0.0875    1.5485    8.4861 H         1 RES1    0.0000
     48 H26       -1.3357    3.0313    7.0263 H         1 RES1    0.0000
     49 H27       -0.4695    3.8646    8.1000 H         1 RES1    0.0000
     50 H28        0.3021    3.4034    5.3974 H         1 RES1    0.0000
@<TRIPOS>BOND
     1    1    2 1
     2    2    3 1
     3    3    4 1
     4    4    5 1
     5    5    6 1
     6    7    5 1
     7    8    5 1
     8    9    4 1
     9   10    2 1
    10   11   10 1
    11   12    1 1
    12   13   12 1
    13   14   13 1
    14   15   11 1
    15   16   15 1
    16   17   15 1
    17   18   13 1
    18   19   13 1
    19   20   12 1
    20   21   11 1
    21   22   10 1
    22   23    9 2
    23   24    3 1
    24   25   24 1
    25   26   25 1
    26   27   26 1
    27   28   26 1
    28   29   26 1
    29   30   25 1
    30   31   30 1
    31   32   30 1
    32   33   30 1
    33   34   25 1
    34   35   24 1
    35   36   35 1
    36   37   36 1
    37   38    3 1
    38   39   38 1
    39   40   38 1
    40   41   37 1
    41   42   41 1
    42   43   41 1
    43   44   41 1
    44   45   37 1
    45   46   36 1
    46   47   36 1
    47   48   35 1
    48   49   35 1
    49   50   24 1
    50    9   10 1
    51   11   12 1
    52   14   15 1
    53   37   38 1
@<TRIPOS>SUBSTRUCTURE
     1 RES1 1

@<TRIPOS>CRYSIN
   7.7474   11.1404   19.2080  90.0000  90.0000  90.0000  19 1

