# MOL2 file generated by ConQuest
# Please check atom types

@<TRIPOS>MOLECULE
OSAQEG
    22    16     2
SMALL
NO_CHARGES
****
Generated from CSD

@<TRIPOS>ATOM
      1 O1        -0.3109   10.6812    2.3958 O.2       1 RES1    0.0000
      2 N1         0.4415   11.1647    1.5613 N.pl3     1 RES1    0.0000
      3 C1         0.8919   10.3676    0.4463 C.ar      1 RES1    0.0000
      4 O2         0.8481   12.3277    1.6511 O.2       1 RES1    0.0000
      5 C2         1.3671   11.0249   -0.6853 C.ar      1 RES1    0.0000
      6 H1         1.4025   11.9736   -0.7060 H         1 RES1    0.0000
      7 C3         1.7889   10.2879   -1.7837 C.ar      1 RES1    0.0000
      8 H2         2.1138   10.7309   -2.5575 H         1 RES1    0.0000
      9 C4         1.7347    8.9080   -1.7464 C.ar      1 RES1    0.0000
     10 H3         2.0212    8.3997   -2.4967 H         1 RES1    0.0000
     11 C5         1.2653    8.2703   -0.6204 C.ar      1 RES1    0.0000
     12 H4         1.2311    7.3216   -0.6093 H         1 RES1    0.0000
     13 C6         0.8340    8.9798    0.5167 C.ar      1 RES1    0.0000
     14 C7         0.4225    8.2089    1.6483 C.1       1 RES1    0.0000
     15 C8         0.1347    7.4601    2.5298 C.1       1 RES1    0.0000
     16 H5        -0.0941    6.8629    3.2317 H         1 RES1    0.0000
     17 O3         0.7904    7.3177    1.9620 Du        2 SUP2    0.0000
     18 N2         0.3237    8.3892    1.6718 Du        2 SUP2    0.0000
     19 O4        -0.3469    9.0034    2.4386 Du        2 SUP2    0.0000
     20 C9         0.2147   12.1526    2.3350 Du        2 SUP2    0.0000
     21 H6        -0.0860   12.7262    3.0314 Du        2 SUP2    0.0000
     22 C10        0.5444   11.5254    1.5751 Du        2 SUP2    0.0000
@<TRIPOS>BOND
     1    1    2 2
     2    2    3 1
     3    3    5 ar
     4    4    2 2
     5    5    6 1
     6    7    5 ar
     7    8    7 1
     8    9    7 ar
     9   10    9 1
    10   11    9 ar
    11   12   11 1
    12   13    3 ar
    13   14   13 1
    14   15   14 3
    15   16   15 1
    16   11   13 ar
@<TRIPOS>SUBSTRUCTURE
     1 RES1 1
     2 SUP2 17

@<TRIPOS>CRYSIN
   3.7874   13.0673   13.8174  90.0000  90.5870  90.0000  14 1

