# MOL2 file generated by ConQuest
# Please check atom types

@<TRIPOS>MOLECULE
OSIGUU
    33    30     2
SMALL
NO_CHARGES
****
Generated from CSD

@<TRIPOS>ATOM
      1 O1         5.1081    2.1027   13.0538 O.3       1 RES1    0.0000
      2 O2         3.5495    3.5795   12.3778 O.2       1 RES1    0.0000
      3 N1         0.0153    4.1270   18.9101 N.2       1 RES1    0.0000
      4 O3         2.2247    5.8095   16.7547 O.2       1 RES1    0.0000
      5 N2         4.1767    2.1170   15.6126 N.2       1 RES1    0.0000
      6 N3         3.4662    2.1829   16.6968 N.2       1 RES1    0.0000
      7 N4         2.3381    2.9046   16.3845 N.pl3     1 RES1    0.0000
      8 N5         0.8065    2.1973   18.1141 N.pl3     1 RES1    0.0000
      9 C1         1.4097    3.1845   17.4032 C.2       1 RES1    0.0000
     10 O4         0.7556    6.6263   18.1073 O.2       1 RES1    0.0000
     11 C2         0.9179    4.3553   17.9150 C.2       1 RES1    0.0000
     12 C3         3.5297    2.7868   14.6077 C.2       1 RES1    0.0000
     13 N6         1.3133    5.6850   17.5620 N.pl3     1 RES1    0.0000
     14 C4         2.3575    3.2949   15.0974 C.2       1 RES1    0.0000
     15 H1         1.7059    3.8076   14.6324 H         1 RES1    0.0000
     16 C5        -0.0210    2.8138   19.0010 C.2       1 RES1    0.0000
     17 H2        -0.5673    2.3455   19.6207 H         1 RES1    0.0000
     18 C6         4.0506    2.8887   13.2281 C.2       1 RES1    0.0000
     19 C7         0.9063    0.7523   17.8917 C.3       1 RES1    0.0000
     20 H3         0.6870    0.5498   16.9576 H         1 RES1    0.0000
     21 H4         0.2791    0.2870   18.4827 H         1 RES1    0.0000
     22 H5         1.8193    0.4539   18.0852 H         1 RES1    0.0000
     23 C8         5.6987    2.1051   11.7212 C.3       1 RES1    0.0000
     24 H6         6.0459    3.0048   11.4757 H         1 RES1    0.0000
     25 H7         4.9956    2.0271   11.0314 H         1 RES1    0.0000
     26 C9         6.6262    0.9041   11.6667 C.3       1 RES1    0.0000
     27 H8         7.3350    1.0082   12.3357 H         1 RES1    0.0000
     28 H9         7.0263    0.8404   10.7742 H         1 RES1    0.0000
     29 H10        6.1166    0.0888   11.8550 H         1 RES1    0.0000
     30 C10        4.9390    1.2181   10.8171 Du        2 SUP2    0.0000
     31 H11        4.8581    0.3301   11.2237 Du        2 SUP2    0.0000
     32 H12        5.4096    1.1445    9.9610 Du        2 SUP2    0.0000
     33 H13        4.0455    1.5912   10.6677 Du        2 SUP2    0.0000
@<TRIPOS>BOND
     1    1   18 1
     2    2   18 2
     3    3   11 1
     4    4   13 2
     5    5    6 2
     6    6    7 1
     7    7    9 1
     8    8    9 1
     9    9   11 2
    10   10   13 2
    11   11   13 1
    12   12    5 1
    13   14    7 1
    14   15   14 1
    15   16    3 2
    16   17   16 1
    17   18   12 1
    18   19    8 1
    19   20   19 1
    20   21   19 1
    21   22   19 1
    22   23    1 1
    23   24   23 1
    24   25   23 1
    25   26   23 1
    26   27   26 1
    27   28   26 1
    28   29   26 1
    29    8   16 1
    30   12   14 2
@<TRIPOS>SUBSTRUCTURE
     1 RES1 1
     2 SUP2 30

@<TRIPOS>CRYSIN
   5.2740    8.9695   26.0080  90.0000  92.6220  90.0000  14 1

