# MOL2 file generated by ConQuest
# Please check atom types

@<TRIPOS>MOLECULE
OSILUZ
    37    38     1
SMALL
NO_CHARGES
****
Generated from CSD

@<TRIPOS>ATOM
      1 N1        -1.6481   -1.5310   14.6888 N.pl3     1 RES1    0.0000
      2 O1         0.4664   -2.4556   16.6911 O.3       1 RES1    0.0000
      3 O2        -0.9710   -1.1890   17.8236 O.2       1 RES1    0.0000
      4 O3        -1.9128   -1.1123   13.5732 O.2       1 RES1    0.0000
      5 O4        -2.1709   -2.5058   15.2089 O.2       1 RES1    0.0000
      6 C1        -1.9445    4.4092   18.3541 C.ar      1 RES1    0.0000
      7 H1        -2.7819    4.3972   17.9050 H         1 RES1    0.0000
      8 C2        -1.7564    5.2627   19.4320 C.ar      1 RES1    0.0000
      9 H2        -2.4699    5.8167   19.7260 H         1 RES1    0.0000
     10 C3        -0.5422    5.3119   20.0780 C.ar      1 RES1    0.0000
     11 H3        -0.4151    5.9027   20.8095 H         1 RES1    0.0000
     12 C4         0.4891    4.4966   19.6565 C.ar      1 RES1    0.0000
     13 H4         1.3284    4.5278   20.1016 H         1 RES1    0.0000
     14 C5         0.3048    3.6349   18.5899 C.ar      1 RES1    0.0000
     15 H5         1.0229    3.0804   18.3081 H         1 RES1    0.0000
     16 C6        -0.9171    3.5689   17.9241 C.ar      1 RES1    0.0000
     17 C7        -1.1604    2.6461   16.8069 C.2       1 RES1    0.0000
     18 H6        -1.8978    2.8324   16.2374 H         1 RES1    0.0000
     19 C8        -0.4300    1.5746   16.5314 C.2       1 RES1    0.0000
     20 H7         0.2841    1.3503   17.1164 H         1 RES1    0.0000
     21 C9        -0.6752    0.7157   15.3603 C.3       1 RES1    0.0000
     22 H8        -1.3569    1.0677   14.7193 H         1 RES1    0.0000
     23 C10       -0.6486   -0.8075   15.4897 C.3       1 RES1    0.0000
     24 C11        0.4300   -0.0927   14.7234 C.3       1 RES1    0.0000
     25 H9         0.3561   -0.1798   13.7301 H         1 RES1    0.0000
     26 C12        1.8388   -0.0860   15.2402 C.3       1 RES1    0.0000
     27 H10        2.2533   -0.9583   15.0693 H         1 RES1    0.0000
     28 H11        1.8323    0.0894   16.2040 H         1 RES1    0.0000
     29 H12        2.3506    0.6143   14.7841 H         1 RES1    0.0000
     30 C13       -0.4255   -1.4963   16.8128 C.2       1 RES1    0.0000
     31 C14        0.7310   -3.2423   17.8953 C.3       1 RES1    0.0000
     32 H13        0.5507   -2.6950   18.6994 H         1 RES1    0.0000
     33 H14        0.1349   -4.0331   17.9168 H         1 RES1    0.0000
     34 C15        2.1086   -3.6701   17.8928 C.3       1 RES1    0.0000
     35 H15        2.6917   -2.8905   17.7811 H         1 RES1    0.0000
     36 H16        2.2552   -4.2955   17.1538 H         1 RES1    0.0000
     37 H17        2.3149   -4.1135   18.7427 H         1 RES1    0.0000
@<TRIPOS>BOND
     1    1    4 2
     2    2   30 1
     3    3   30 2
     4    5    1 2
     5    6    7 1
     6    8    6 ar
     7    9    8 1
     8   10    8 ar
     9   11   10 1
    10   12   10 ar
    11   13   12 1
    12   14   12 ar
    13   15   14 1
    14   16    6 ar
    15   17   16 1
    16   18   17 1
    17   19   17 2
    18   20   19 1
    19   21   19 1
    20   22   21 1
    21   23    1 1
    22   24   21 1
    23   25   24 1
    24   26   24 1
    25   27   26 1
    26   28   26 1
    27   29   26 1
    28   30   23 1
    29   31    2 1
    30   32   31 1
    31   33   31 1
    32   34   31 1
    33   35   34 1
    34   36   34 1
    35   37   34 1
    36   14   16 ar
    37   21   23 1
    38   23   24 1
@<TRIPOS>SUBSTRUCTURE
     1 RES1 1

@<TRIPOS>CRYSIN
   6.4861   11.1688   19.6650  90.0000  90.0000  90.0000  19 1

