# MOL2 file generated by ConQuest
# Please check atom types

@<TRIPOS>MOLECULE
OSOVIC
    45    46     1
SMALL
NO_CHARGES
****
Generated from CSD

@<TRIPOS>ATOM
      1 O1         2.7409    0.3772   -1.4514 O.2       1 RES1    0.0000
      2 O2         7.2100    8.6011    1.3728 O.2       1 RES1    0.0000
      3 O3         6.3051    7.7782    3.1579 O.2       1 RES1    0.0000
      4 O4         1.9166    0.8213    3.4944 O.3       1 RES1    0.0000
      5 O5         0.4276    3.0002    3.6362 O.3       1 RES1    0.0000
      6 O6         0.4844    4.8785    1.7396 O.3       1 RES1    0.0000
      7 N1         6.5889    7.7255    1.9628 N.pl3     1 RES1    0.0000
      8 C1         3.8728    2.3413   -0.7931 C.2       1 RES1    0.0000
      9 C2         2.9463    2.4945    0.3677 C.ar      1 RES1    0.0000
     10 C3         2.8935    1.5180    1.3624 C.ar      1 RES1    0.0000
     11 C4         2.0481    1.6973    2.4558 C.ar      1 RES1    0.0000
     12 C5         1.2525    2.8361    2.5405 C.ar      1 RES1    0.0000
     13 C6         1.3045    3.8088    1.5416 C.ar      1 RES1    0.0000
     14 C7         2.1551    3.6394    0.4532 C.ar      1 RES1    0.0000
     15 C8         4.8844    3.1876   -1.0406 C.2       1 RES1    0.0000
     16 C9         5.3214    4.3407   -0.2239 C.ar      1 RES1    0.0000
     17 C10        5.2314    4.3596    1.1795 C.ar      1 RES1    0.0000
     18 C11        5.6496    5.4653    1.8937 C.ar      1 RES1    0.0000
     19 C12        6.1617    6.5514    1.2011 C.ar      1 RES1    0.0000
     20 C13        6.2999    6.5609   -0.1780 C.ar      1 RES1    0.0000
     21 C14        5.8864    5.4435   -0.8842 C.ar      1 RES1    0.0000
     22 C15        3.6037    1.1895   -1.7235 C.2       1 RES1    0.0000
     23 C16        2.7431   -0.3424    3.4846 C.3       1 RES1    0.0000
     24 C17       -0.9347    2.6471    3.3647 C.3       1 RES1    0.0000
     25 C18        0.4461    5.8856    0.7251 C.3       1 RES1    0.0000
     26 C19        4.3981    1.0438   -2.9913 C.3       1 RES1    0.0000
     27 H1         3.4347    0.7430    1.2743 H         1 RES1    0.0000
     28 H2         5.6156    5.4850    2.8396 H         1 RES1    0.0000
     29 H3         5.3802    3.0666   -1.8410 H         1 RES1    0.0000
     30 H4         6.6838    7.2915   -0.6096 H         1 RES1    0.0000
     31 H5         2.1787    4.3122   -0.2542 H         1 RES1    0.0000
     32 H6         4.8886    3.5765    1.6618 H         1 RES1    0.0000
     33 H7         5.9809    5.4049   -1.8548 H         1 RES1    0.0000
     34 H8         0.1657    5.4777   -0.1409 H         1 RES1    0.0000
     35 H9         3.6893   -0.0947    3.4370 H         1 RES1    0.0000
     36 H10        1.3487    6.2717    0.6249 H         1 RES1    0.0000
     37 H11        2.5549   -0.9105    2.7079 H         1 RES1    0.0000
     38 H12       -1.4234    2.6150    4.2380 H         1 RES1    0.0000
     39 H13       -0.1771    6.5558    1.0875 H         1 RES1    0.0000
     40 H14       -1.3592    3.3507    2.7600 H         1 RES1    0.0000
     41 H15        2.5485   -0.7721    4.3590 H         1 RES1    0.0000
     42 H16       -1.0052    1.7409    2.9162 H         1 RES1    0.0000
     43 H17        3.9542    0.4152   -3.5442 H         1 RES1    0.0000
     44 H18        4.5276    1.8648   -3.4860 H         1 RES1    0.0000
     45 H19        5.2924    0.7503   -2.7722 H         1 RES1    0.0000
@<TRIPOS>BOND
     1    1   22 2
     2    2    7 2
     3    3    7 2
     4    4   11 1
     5    5   12 1
     6    6   13 1
     7    7   19 1
     8    8    9 1
     9    9   10 ar
    10   10   11 ar
    11   11   12 ar
    12   12   13 ar
    13   13   14 ar
    14   14    9 ar
    15   15    8 2
    16   16   15 1
    17   17   16 ar
    18   18   17 ar
    19   19   18 ar
    20   20   19 ar
    21   21   16 ar
    22   22    8 1
    23   23    4 1
    24   24    5 1
    25   25    6 1
    26   26   22 1
    27   27   10 1
    28   28   18 1
    29   29   15 1
    30   30   20 1
    31   31   14 1
    32   32   17 1
    33   33   21 1
    34   34   25 1
    35   35   23 1
    36   36   25 1
    37   37   23 1
    38   38   24 1
    39   39   25 1
    40   40   24 1
    41   41   23 1
    42   42   24 1
    43   43   26 1
    44   44   26 1
    45   45   26 1
    46   20   21 ar
@<TRIPOS>SUBSTRUCTURE
     1 RES1 1

@<TRIPOS>CRYSIN
  30.6394    7.2842   18.4845  90.0000 124.0450  90.0000  15 1

