# MOL2 file generated by ConQuest
# Please check atom types

@<TRIPOS>MOLECULE
OSUGIU
    26    28     1
SMALL
NO_CHARGES
****
Generated from CSD

@<TRIPOS>ATOM
      1 N1         6.1104    7.3497    2.5553 N.pl3     1 RES1    0.0000
      2 O1         0.6835    4.7783    2.5776 O.2       1 RES1    0.0000
      3 O2         6.0517    7.4748    3.7754 O.2       1 RES1    0.0000
      4 O3         7.0709    7.7326    1.8923 O.2       1 RES1    0.0000
      5 C1         1.6977    5.4021    2.8264 C.2       1 RES1    0.0000
      6 C2         2.0793    5.9428    4.1895 C.3       1 RES1    0.0000
      7 C3         3.4865    6.5277    4.0521 C.3       1 RES1    0.0000
      8 C4         3.8127    6.3561    2.5850 C.ar      1 RES1    0.0000
      9 C5         2.7866    5.7537    1.8849 C.ar      1 RES1    0.0000
     10 C6         2.8464    5.5135    0.4791 C.ar      1 RES1    0.0000
     11 C7         1.7931    4.9324   -0.2711 C.ar      1 RES1    0.0000
     12 C8         1.9268    4.7425   -1.6249 C.ar      1 RES1    0.0000
     13 C9         3.1154    5.1100   -2.2916 C.ar      1 RES1    0.0000
     14 C10        4.1517    5.6713   -1.5989 C.ar      1 RES1    0.0000
     15 C11        4.0398    5.8932   -0.2006 C.ar      1 RES1    0.0000
     16 C12        5.0982    6.4903    0.5255 C.ar      1 RES1    0.0000
     17 C13        4.9803    6.7145    1.8719 C.ar      1 RES1    0.0000
     18 H1         2.0702    5.2176    4.8636 H         1 RES1    0.0000
     19 H2         1.4400    6.6444    4.4737 H         1 RES1    0.0000
     20 H3         3.4991    7.4840    4.3065 H         1 RES1    0.0000
     21 H4         4.1315    6.0343    4.6185 H         1 RES1    0.0000
     22 H5         0.9897    4.6723    0.1653 H         1 RES1    0.0000
     23 H6         1.2111    4.3589   -2.1171 H         1 RES1    0.0000
     24 H7         3.1956    4.9659   -3.2257 H         1 RES1    0.0000
     25 H8         4.9488    5.9138   -2.0539 H         1 RES1    0.0000
     26 H9         5.8979    6.7366    0.0761 H         1 RES1    0.0000
@<TRIPOS>BOND
     1    1    3 2
     2    2    5 2
     3    4    1 2
     4    5    6 1
     5    6    7 1
     6    7    8 1
     7    8    9 ar
     8    9    5 1
     9   10    9 ar
    10   11   10 ar
    11   12   11 ar
    12   13   12 ar
    13   14   13 ar
    14   15   10 ar
    15   16   15 ar
    16   17    1 1
    17   18    6 1
    18   19    6 1
    19   20    7 1
    20   21    7 1
    21   22   11 1
    22   23   12 1
    23   24   13 1
    24   25   14 1
    25   26   16 1
    26    8   17 ar
    27   14   15 ar
    28   16   17 ar
@<TRIPOS>SUBSTRUCTURE
     1 RES1 1

@<TRIPOS>CRYSIN
   7.0819    7.6258   18.5830  90.0000  92.0910  90.0000 231 1

