# MOL2 file generated by ConQuest
# Please check atom types

@<TRIPOS>MOLECULE
OTAKEB
    17    20     1
SMALL
NO_CHARGES
****
Generated from CSD

@<TRIPOS>ATOM
      1 C1        -0.6359   -0.6672    9.6357 C.2       1 RES1    0.0000
      2 C2        -1.7203   -0.1266   10.3875 C.2       1 RES1    0.0000
      3 C3        -1.7580    1.1134   11.1521 C.2       1 RES1    0.0000
      4 C4        -0.7259    2.0738   11.2518 C.2       1 RES1    0.0000
      5 C5         0.5563    2.0641   10.5649 C.2       1 RES1    0.0000
      6 C6         1.1168    1.0366    9.7486 C.2       1 RES1    0.0000
      7 N1         0.6374   -0.2051    9.4347 N.3       1 RES1    0.0000
      8 N2        -1.0115   -1.7825    9.0749 N.2       1 RES1    0.0000
      9 N3        -2.7412   -0.9294   10.2839 N.2       1 RES1    0.0000
     10 N4        -2.7739    1.4926   11.8797 N.2       1 RES1    0.0000
     11 N5        -1.1106    3.0310   12.0505 N.2       1 RES1    0.0000
     12 N6         1.3716    3.0755   10.5777 N.2       1 RES1    0.0000
     13 N7         2.2645    1.4410    9.2872 N.2       1 RES1    0.0000
     14 O1        -2.3286   -1.9607    9.4870 O.3       1 RES1    0.0000
     15 O2        -2.3841    2.6764   12.4434 O.3       1 RES1    0.0000
     16 O3         2.4385    2.7186    9.8063 O.3       1 RES1    0.0000
     17 H1         1.1580   -0.6523    8.9519 H         1 RES1    0.0000
@<TRIPOS>BOND
     1    1    2 1
     2    2    3 1
     3    3    4 1
     4    4    5 1
     5    5    6 1
     6    6    7 1
     7    7    1 1
     8    8    1 2
     9    9    2 2
    10   10    3 2
    11   11    4 2
    12   12    5 2
    13   13    6 2
    14   14    8 1
    15   15   10 1
    16   16   12 1
    17   17    7 1
    18    9   14 1
    19   11   15 1
    20   13   16 1
@<TRIPOS>SUBSTRUCTURE
     1 RES1 1

@<TRIPOS>CRYSIN
   7.2521    6.4585   16.8140  90.0000  98.9010  90.0000 231 1

