# MOL2 file generated by ConQuest
# Please check atom types

@<TRIPOS>MOLECULE
OTAKEB01
    17    20     1
SMALL
NO_CHARGES
****
Generated from CSD

@<TRIPOS>ATOM
      1 O1         5.8445    2.7236    6.7947 O.3       1 RES1    0.0000
      2 O2        10.6701    2.6835    4.1622 O.3       1 RES1    0.0000
      3 O3        10.6184   -1.9700    7.1103 O.3       1 RES1    0.0000
      4 N1         7.6466   -0.2078    7.1635 N.pl3     1 RES1    0.0000
      5 H1         7.1296   -0.6603    7.6678 H         1 RES1    0.0000
      6 N2         6.0185    1.4431    7.3139 N.2       1 RES1    0.0000
      7 N3         6.9162    3.0797    6.0226 N.2       1 RES1    0.0000
      8 N4         9.3946    3.0376    4.5544 N.2       1 RES1    0.0000
      9 N5        11.0625    1.4948    4.7235 N.2       1 RES1    0.0000
     10 N6        11.0294   -0.9329    6.3160 N.2       1 RES1    0.0000
     11 N7         9.2966   -1.7888    7.5252 N.2       1 RES1    0.0000
     12 C1         7.1696    1.0378    6.8497 C.2       1 RES1    0.0000
     13 C2         7.7284    2.0671    6.0382 C.2       1 RES1    0.0000
     14 C3         9.0152    2.0794    5.3518 C.2       1 RES1    0.0000
     15 C4        10.0464    1.1181    5.4522 C.2       1 RES1    0.0000
     16 C5        10.0053   -0.1321    6.2126 C.2       1 RES1    0.0000
     17 C6         8.9229   -0.6694    6.9650 C.2       1 RES1    0.0000
@<TRIPOS>BOND
     1    1    6 1
     2    2    8 1
     3    3   10 1
     4    4    5 1
     5    6   12 2
     6    7    1 1
     7    8   14 2
     8    9    2 1
     9   10   16 2
    10   11    3 1
    11   12    4 1
    12   13    7 2
    13   14   13 1
    14   15    9 2
    15   16   15 1
    16   17    4 1
    17   11   17 2
    18   12   13 1
    19   14   15 1
    20   16   17 1
@<TRIPOS>SUBSTRUCTURE
     1 RES1 1

@<TRIPOS>CRYSIN
   7.2600    6.4740   16.7860  90.0000  98.9300  90.0000 231 1

