# MOL2 file generated by ConQuest
# Please check atom types

@<TRIPOS>MOLECULE
OTENEI
    39    41     1
SMALL
NO_CHARGES
****
Generated from CSD

@<TRIPOS>ATOM
      1 C1         9.4933    2.7000    8.3483 C.ar      1 RES1    0.0000
      2 H1         8.7323    2.1746    8.4523 H         1 RES1    0.0000
      3 C2         9.7014    3.3733    7.1610 C.ar      1 RES1    0.0000
      4 H2         9.0735    3.3127    6.4786 H         1 RES1    0.0000
      5 C3        10.8325    4.1340    6.9827 C.ar      1 RES1    0.0000
      6 H3        10.9717    4.5804    6.1779 H         1 RES1    0.0000
      7 C4        11.7520    4.2320    7.9880 C.ar      1 RES1    0.0000
      8 H4        12.5251    4.7333    7.8602 H         1 RES1    0.0000
      9 C5        11.5391    3.5886    9.1926 C.ar      1 RES1    0.0000
     10 C6        10.4055    2.7981    9.3871 C.ar      1 RES1    0.0000
     11 C7         9.0275    1.7773   11.1521 C.2       1 RES1    0.0000
     12 C8         9.0191    0.9244   12.3934 C.ar      1 RES1    0.0000
     13 C9        10.1248    0.3957   13.0578 C.ar      1 RES1    0.0000
     14 C10        9.9567   -0.3749   14.1932 C.ar      1 RES1    0.0000
     15 H5        10.6922   -0.7199   14.6458 H         1 RES1    0.0000
     16 C11        8.6755   -0.6226   14.6436 C.ar      1 RES1    0.0000
     17 C12        7.5600   -0.1380   14.0243 C.ar      1 RES1    0.0000
     18 H6         6.7059   -0.3192   14.3451 H         1 RES1    0.0000
     19 C13        7.7584    0.6293   12.9028 C.ar      1 RES1    0.0000
     20 H7         7.0132    0.9684   12.4623 H         1 RES1    0.0000
     21 C14       13.0622    5.0026   10.5541 C.2       1 RES1    0.0000
     22 H8        12.9328    5.8165   10.1221 H         1 RES1    0.0000
     23 C15       13.8716    4.7707   11.6183 C.2       1 RES1    0.0000
     24 H9        14.4111    5.3842   12.0613 H         1 RES1    0.0000
     25 C16       13.7216    3.4290   11.9028 C.2       1 RES1    0.0000
     26 H10       14.1607    2.9959   12.6001 H         1 RES1    0.0000
     27 C17       12.4936    0.0017   13.0400 C.3       1 RES1    0.0000
     28 H11       12.6763    0.2918   13.9378 H         1 RES1    0.0000
     29 H12       13.2461    0.2028   12.4779 H         1 RES1    0.0000
     30 H13       12.3363   -0.9452   13.0356 H         1 RES1    0.0000
     31 N1        12.4803    3.8231   10.2402 N.pl3     1 RES1    0.0000
     32 N2        12.8820    2.8264   11.0723 N.2       1 RES1    0.0000
     33 N3        10.2228    2.0898   10.6058 N.am      1 RES1    0.0000
     34 N4         8.5001   -1.4506   15.8526 N.pl3     1 RES1    0.0000
     35 O1         7.9665    2.1622   10.6866 O.2       1 RES1    0.0000
     36 O2        11.3505    0.6708   12.5531 O.3       1 RES1    0.0000
     37 O3         9.4921   -1.8521   16.4225 O.2       1 RES1    0.0000
     38 O4         7.3628   -1.7199   16.2063 O.2       1 RES1    0.0000
     39 H14       10.9487    1.8704   10.9867 H         1 RES1    0.0000
@<TRIPOS>BOND
     1    1    2 1
     2    3    1 ar
     3    4    3 1
     4    5    3 ar
     5    6    5 1
     6    7    5 ar
     7    8    7 1
     8    9    7 ar
     9   10    1 ar
    10   11   12 1
    11   12   13 ar
    12   13   14 ar
    13   14   15 1
    14   16   14 ar
    15   17   16 ar
    16   18   17 1
    17   19   12 ar
    18   20   19 1
    19   21   22 1
    20   23   21 2
    21   24   23 1
    22   25   23 1
    23   26   25 1
    24   27   28 1
    25   29   27 1
    26   30   27 1
    27   31    9 1
    28   32   25 2
    29   33   10 1
    30   34   16 1
    31   35   11 2
    32   36   13 1
    33   37   34 2
    34   38   34 2
    35   39   33 1
    36    9   10 ar
    37   11   33 1
    38   17   19 ar
    39   21   31 1
    40   27   36 1
    41   31   32 1
@<TRIPOS>SUBSTRUCTURE
     1 RES1 1

@<TRIPOS>CRYSIN
  12.0980    8.3128   31.3280  90.0000  90.0000  90.0000  61 1

