# MOL2 file generated by ConQuest
# Please check atom types

@<TRIPOS>MOLECULE
OTENOS
    30    31     1
SMALL
NO_CHARGES
****
Generated from CSD

@<TRIPOS>ATOM
      1 C1         2.2173    8.6610   -0.2695 C.ar      1 RES1    0.0000
      2 C2         1.1875    5.5133    1.2518 C.2       1 RES1    0.0000
      3 C3         2.1012    9.9579    0.2170 C.ar      1 RES1    0.0000
      4 H1         1.6475   10.1162    1.0131 H         1 RES1    0.0000
      5 C4         2.6542   11.0057   -0.4757 C.ar      1 RES1    0.0000
      6 H2         2.5855   11.8743   -0.1517 H         1 RES1    0.0000
      7 C5         3.3152   10.7480   -1.6618 C.ar      1 RES1    0.0000
      8 C6         3.4499    9.4688   -2.1519 C.ar      1 RES1    0.0000
      9 H3         3.9089    9.3176   -2.9468 H         1 RES1    0.0000
     10 C7         2.8963    8.4098   -1.4524 C.ar      1 RES1    0.0000
     11 C8         1.1775    4.0378    1.1122 C.ar      1 RES1    0.0000
     12 C9         1.8237    6.3440    0.1716 C.3       1 RES1    0.0000
     13 H4         2.7737    6.1546    0.1198 H         1 RES1    0.0000
     14 H5         1.4221    6.1401   -0.6879 H         1 RES1    0.0000
     15 C10        0.5788    3.3042    2.1325 C.ar      1 RES1    0.0000
     16 H6         0.2229    3.7468    2.8692 H         1 RES1    0.0000
     17 C11        1.7031    3.3733    0.0188 C.ar      1 RES1    0.0000
     18 N1         3.8904   11.8608   -2.4022 N.pl3     1 RES1    0.0000
     19 O1         0.6789    6.0423    2.2058 O.2       1 RES1    0.0000
     20 O2         1.6152    7.7085    0.4968 O.3       1 RES1    0.0000
     21 O3         3.8218   12.9879   -1.9223 O.2       1 RES1    0.0000
     22 O4         4.4356   11.6323   -3.4770 O.2       1 RES1    0.0000
     23 C12        1.0293    1.2865    0.9766 C.ar      1 RES1    0.0000
     24 H7         0.9803    0.3585    0.9286 H         1 RES1    0.0000
     25 C13        0.5060    1.9389    2.0649 C.ar      1 RES1    0.0000
     26 C14        1.6262    1.9928   -0.0461 C.ar      1 RES1    0.0000
     27 H8         1.9780    1.5419   -0.7792 H         1 RES1    0.0000
     28 H9         2.9985    7.5384   -1.7831 H         1 RES1    0.0000
     29 H10        2.1295    3.8654   -0.6891 H         1 RES1    0.0000
     30 H11        0.0601    1.4233    2.7791 H         1 RES1    0.0000
@<TRIPOS>BOND
     1    1    3 ar
     2    2   11 1
     3    3    4 1
     4    5    3 ar
     5    6    5 1
     6    7    5 ar
     7    8    7 ar
     8    9    8 1
     9   10    1 ar
    10   11   15 ar
    11   12    2 1
    12   13   12 1
    13   14   12 1
    14   15   16 1
    15   17   11 ar
    16   18    7 1
    17   19    2 2
    18   20    1 1
    19   21   18 2
    20   22   18 2
    21   23   24 1
    22   25   15 ar
    23   26   17 ar
    24   27   26 1
    25   28   10 1
    26   29   17 1
    27   30   25 1
    28    8   10 ar
    29   12   20 1
    30   23   25 ar
    31   23   26 ar
@<TRIPOS>SUBSTRUCTURE
     1 RES1 1

@<TRIPOS>CRYSIN
   8.0930   13.1790   11.4120  90.0000  91.4310  90.0000  14 1

