# MOL2 file generated by ConQuest
# Please check atom types

@<TRIPOS>MOLECULE
OTOFIN
    34    35     1
SMALL
NO_CHARGES
****
Generated from CSD

@<TRIPOS>ATOM
      1 C1        -2.6947   12.1474    8.0802 C.ar      1 RES1    0.0000
      2 C2        -2.5665   10.8700    7.5242 C.ar      1 RES1    0.0000
      3 H1        -1.8936   10.3119    7.8437 H         1 RES1    0.0000
      4 C3        -3.3918   10.3986    6.5219 C.ar      1 RES1    0.0000
      5 C4        -4.4228   11.2392    6.0320 C.ar      1 RES1    0.0000
      6 C5        -4.5518   12.5157    6.5180 C.ar      1 RES1    0.0000
      7 H2        -5.2124   13.0737    6.1760 H         1 RES1    0.0000
      8 C6        -3.7136   12.9784    7.5069 C.ar      1 RES1    0.0000
      9 C7        -1.0606   11.8460    9.9542 C.ar      1 RES1    0.0000
     10 C8         0.0104   12.5104   10.5302 C.ar      1 RES1    0.0000
     11 H3         0.1918   13.3948   10.3075 H         1 RES1    0.0000
     12 C9         0.8091   11.8368   11.4438 C.ar      1 RES1    0.0000
     13 H4         1.5215   12.2894   11.8359 H         1 RES1    0.0000
     14 C10        0.5827   10.5160   11.7924 C.ar      1 RES1    0.0000
     15 C11       -0.4975    9.8524   11.1971 C.ar      1 RES1    0.0000
     16 C12       -1.3251   10.5288   10.2996 C.ar      1 RES1    0.0000
     17 H5        -2.0590   10.0926    9.9308 H         1 RES1    0.0000
     18 C13        1.4496    9.7967   12.7945 C.3       1 RES1    0.0000
     19 H6         2.1817   10.3628   13.0486 H         1 RES1    0.0000
     20 H7         1.7903    8.9907   12.4017 H         1 RES1    0.0000
     21 H8         0.9279    9.5802   13.5704 H         1 RES1    0.0000
     22 N1        -1.9081   12.5861    9.0890 N.pl3     1 RES1    0.0000
     23 H9        -1.9232   13.4351    9.2256 H         1 RES1    0.0000
     24 N2        -5.3311   10.8099    5.0075 N.pl3     1 RES1    0.0000
     25 N3        -3.9295   14.3400    7.9381 N.pl3     1 RES1    0.0000
     26 N4        -0.7412    8.5273   11.4668 N.3       1 RES1    0.0000
     27 H10       -1.3973    8.1239   11.0838 H         1 RES1    0.0000
     28 H11       -0.2370    8.1011   12.0179 H         1 RES1    0.0000
     29 O1        -3.1490    9.1682    6.0560 O.3       1 RES1    0.0000
     30 H12       -3.6376    9.0170    5.4154 H         1 RES1    0.0000
     31 O2        -5.2456    9.6476    4.5902 O.2       1 RES1    0.0000
     32 O3        -6.1675   11.5912    4.5760 O.2       1 RES1    0.0000
     33 O4        -4.9570   14.9146    7.6115 O.2       1 RES1    0.0000
     34 O5        -3.0658   14.8951    8.6334 O.2       1 RES1    0.0000
@<TRIPOS>BOND
     1    1    2 ar
     2    2    3 1
     3    4    2 ar
     4    5    4 ar
     5    6    5 ar
     6    7    6 1
     7    8    1 ar
     8    9   10 ar
     9   10   11 1
    10   12   10 ar
    11   13   12 1
    12   14   12 ar
    13   15   14 ar
    14   16    9 ar
    15   17   16 1
    16   18   14 1
    17   19   18 1
    18   20   18 1
    19   21   18 1
    20   22    1 1
    21   23   22 1
    22   24    5 1
    23   25    8 1
    24   26   15 1
    25   27   26 1
    26   28   26 1
    27   29    4 1
    28   30   29 1
    29   31   24 2
    30   32   24 2
    31   33   25 2
    32   34   25 2
    33    6    8 ar
    34    9   22 1
    35   15   16 ar
@<TRIPOS>SUBSTRUCTURE
     1 RES1 1

@<TRIPOS>CRYSIN
   5.3179   17.5462   14.6185  90.0000 103.4550  90.0000  14 1

