# MOL2 file generated by ConQuest
# Please check atom types

@<TRIPOS>MOLECULE
OVAZES
    28    29     1
SMALL
USER_CHARGES
****
Generated from CSD

@<TRIPOS>ATOM
      1 N1         3.5465    8.7671    5.4911 N.2       1 RES1   -1.0000
      2 N2         2.6370    9.3762    5.6971 N.1       1 RES1    1.0000
      3 N3         1.7214   10.0946    6.1599 N.2       1 RES1    0.0000
      4 C1         0.6757   10.5035    5.3646 C.2       1 RES1    0.0000
      5 C2         0.0112   10.1104    4.1993 C.2       1 RES1    0.0000
      6 N4         0.3362    8.9984    3.3638 N.pl3     1 RES1    0.0000
      7 O1         1.4522    8.5125    3.4996 O.2       1 RES1    0.0000
      8 O2        -0.5050    8.5957    2.5785 O.2       1 RES1    0.0000
      9 C3        -1.0791   10.9915    4.1145 C.2       1 RES1    0.0000
     10 N5        -2.1104   11.1191    3.0927 N.pl3     1 RES1    0.0000
     11 O3        -1.7644   11.0045    1.9286 O.2       1 RES1    0.0000
     12 O4        -3.2474   11.3606    3.4718 O.2       1 RES1    0.0000
     13 N6        -1.1016   11.8697    5.0947 N.2       1 RES1    0.0000
     14 N7        -0.0233   11.5568    5.8533 N.pl3     1 RES1    0.0000
     15 C4         0.3685   12.4006    6.9866 C.3       1 RES1    0.0000
     16 H1         0.5754   11.8281    7.7676 H         1 RES1    0.0000
     17 H2        -0.3858   12.9923    7.2322 H         1 RES1    0.0000
     18 C5         1.5883   13.2485    6.6410 C.3       1 RES1    0.0000
     19 H3         1.8924   13.7250    7.4533 H         1 RES1    0.0000
     20 H4         2.3230   12.6539    6.3448 H         1 RES1    0.0000
     21 N8         1.3091   14.2226    5.5915 N.pl3     1 RES1    0.0000
     22 N9         1.3211   13.8721    4.2692 N.2       1 RES1    0.0000
     23 N10        1.1553   14.9708    3.6166 N.2       1 RES1    0.0000
     24 N11        1.0341   16.0537    4.4364 N.2       1 RES1    0.0000
     25 C6         1.1310   15.5588    5.6713 C.2       1 RES1    0.0000
     26 N12        1.1055   16.2657    6.8138 N.3       1 RES1    0.0000
     27 H5         1.0182   17.1399    6.7876 H         1 RES1    0.0000
     28 H6         1.1763   15.8547    7.5878 H         1 RES1    0.0000
@<TRIPOS>BOND
     1    1    2 2
     2    2    3 2
     3    3    4 1
     4    4    5 2
     5    5    6 1
     6    6    7 2
     7    8    6 2
     8    9    5 1
     9   10    9 1
    10   11   10 2
    11   12   10 2
    12   13    9 2
    13   14    4 1
    14   15   14 1
    15   16   15 1
    16   17   15 1
    17   18   15 1
    18   19   18 1
    19   20   18 1
    20   21   18 1
    21   22   21 1
    22   23   22 2
    23   24   23 1
    24   25   21 1
    25   26   25 1
    26   27   26 1
    27   28   26 1
    28   13   14 1
    29   24   25 2
@<TRIPOS>SUBSTRUCTURE
     1 RES1 1

@<TRIPOS>CRYSIN
   6.5577   31.0450    5.8420  90.0000  95.0540  90.0000  14 1

