# MOL2 file generated by ConQuest
# Please check atom types

@<TRIPOS>MOLECULE
OVIVEW
    48    52     1
SMALL
NO_CHARGES
****
Generated from CSD

@<TRIPOS>ATOM
      1 C1         3.9357    1.7312    4.6705 C.3       1 RES1    0.0000
      2 C2         2.4342    1.9064    4.5313 C.2       1 RES1    0.0000
      3 H1         1.9383    1.7195    3.7670 H         1 RES1    0.0000
      4 C3         1.9391    2.3730    5.6837 C.2       1 RES1    0.0000
      5 H2         1.0330    2.5025    5.8475 H         1 RES1    0.0000
      6 C4         3.0413    2.6658    6.6963 C.3       1 RES1    0.0000
      7 H3         2.8829    3.5433    7.1028 H         1 RES1    0.0000
      8 C5         3.0630    1.6105    7.7779 C.2       1 RES1    0.0000
      9 H4         2.3214    1.6228    8.3389 H         1 RES1    0.0000
     10 C6         3.9612    0.6593    8.0724 C.2       1 RES1    0.0000
     11 H5         3.7178    0.1242    8.7928 H         1 RES1    0.0000
     12 C7         5.2679    0.2952    7.4716 C.3       1 RES1    0.0000
     13 H6         5.7952   -0.3157    8.0276 H         1 RES1    0.0000
     14 C8         5.4704    0.0763    5.9597 C.3       1 RES1    0.0000
     15 C9         4.2713    0.2740    5.0481 C.3       1 RES1    0.0000
     16 H7         3.4935   -0.1137    5.4796 H         1 RES1    0.0000
     17 H8         4.4266   -0.2237    4.2300 H         1 RES1    0.0000
     18 C10        4.2636    2.7523    5.7644 C.3       1 RES1    0.0000
     19 H9         4.2171    3.6324    5.3370 H         1 RES1    0.0000
     20 C11        5.6553    2.6560    6.3783 C.3       1 RES1    0.0000
     21 H10        6.2896    3.0778    5.7773 H         1 RES1    0.0000
     22 H11        5.6626    3.1546    7.2103 H         1 RES1    0.0000
     23 C12        6.1154    1.2496    6.6552 C.3       1 RES1    0.0000
     24 H12        7.0803    1.1583    6.7960 H         1 RES1    0.0000
     25 C13        6.3425   -1.1107    5.6121 C.3       1 RES1    0.0000
     26 H13        7.1000   -1.1308    6.2188 H         1 RES1    0.0000
     27 H14        5.8329   -1.9242    5.7502 H         1 RES1    0.0000
     28 C14        4.5203    1.6541    2.3066 C.2       1 RES1    0.0000
     29 C15        5.5197    2.1677    1.3160 C.ar      1 RES1    0.0000
     30 C16        6.5545    3.0317    1.7021 C.ar      1 RES1    0.0000
     31 H15        6.6563    3.2684    2.5955 H         1 RES1    0.0000
     32 C17        7.4282    3.5337    0.7425 C.ar      1 RES1    0.0000
     33 H16        8.1231    4.1035    0.9825 H         1 RES1    0.0000
     34 C18        7.2395    3.1648   -0.5794 C.ar      1 RES1    0.0000
     35 C19        6.2269    2.3033   -0.9939 C.ar      1 RES1    0.0000
     36 H17        6.1292    2.0712   -1.8892 H         1 RES1    0.0000
     37 C20        5.3650    1.8014   -0.0228 C.ar      1 RES1    0.0000
     38 H18        4.6820    1.2190   -0.2671 H         1 RES1    0.0000
     39 C21        7.6833    0.0059    3.9992 C.3       1 RES1    0.0000
     40 H19        7.1916    0.8247    4.1021 H         1 RES1    0.0000
     41 H20        8.0135   -0.0597    3.1003 H         1 RES1    0.0000
     42 H21        8.4227   -0.0028    4.6126 H         1 RES1    0.0000
     43 N1         8.1171    3.7502   -1.6053 N.pl3     1 RES1    0.0000
     44 O1         4.7527    2.1506    3.5258 O.3       1 RES1    0.0000
     45 O2         3.6199    0.8973    2.0188 O.2       1 RES1    0.0000
     46 O3         6.8287   -1.0960    4.2716 O.3       1 RES1    0.0000
     47 O4         7.8663    3.5201   -2.7825 O.2       1 RES1    0.0000
     48 O5         9.0505    4.4556   -1.2236 O.2       1 RES1    0.0000
@<TRIPOS>BOND
     1    1    2 1
     2    2    3 1
     3    4    2 2
     4    5    4 1
     5    6    4 1
     6    7    6 1
     7    8    6 1
     8    9    8 1
     9   10    8 2
    10   11   10 1
    11   12   10 1
    12   13   12 1
    13   14   12 1
    14   15    1 1
    15   16   15 1
    16   17   15 1
    17   18    1 1
    18   19   18 1
    19   20   18 1
    20   21   20 1
    21   22   20 1
    22   23   12 1
    23   24   23 1
    24   25   14 1
    25   26   25 1
    26   27   25 1
    27   28   29 1
    28   29   30 ar
    29   30   31 1
    30   32   30 ar
    31   33   32 1
    32   34   32 ar
    33   35   34 ar
    34   36   35 1
    35   37   29 ar
    36   38   37 1
    37   39   40 1
    38   41   39 1
    39   42   39 1
    40   43   34 1
    41   44    1 1
    42   45   28 2
    43   46   25 1
    44   47   43 2
    45   48   43 2
    46    6   18 1
    47   14   15 1
    48   14   23 1
    49   20   23 1
    50   28   44 1
    51   35   37 ar
    52   39   46 1
@<TRIPOS>SUBSTRUCTURE
     1 RES1 1

@<TRIPOS>CRYSIN
  16.3707    9.4790   11.3192  90.0000  90.0000  90.0000  33 1

