# MOL2 file generated by ConQuest
# Please check atom types

@<TRIPOS>MOLECULE
OVIZAW
    70    74     1
SMALL
USER_CHARGES
****
Generated from CSD

@<TRIPOS>ATOM
      1 O1         4.2980    5.8724    9.3500 O.2       1 RES1    0.0000
      2 O2         0.1644    4.5203   10.9479 O.2       1 RES1   -1.0000
      3 N1         3.3547    5.5078   10.1432 N.3       1 RES1    0.0000
      4 N2         1.3758    4.9172   10.9063 N.pl3     1 RES1    1.0000
      5 N3        -0.1108    5.1498    4.5701 N.pl3     1 RES1    0.0000
      6 N4        -1.3467    4.5228    2.1792 N.2       1 RES1    0.0000
      7 N5        -1.2858    4.4493    4.5788 N.2       1 RES1    0.0000
      8 C1         1.5440    5.2489    8.4341 C.ar      1 RES1    0.0000
      9 C2         2.3619    4.9932    7.3126 C.ar      1 RES1    0.0000
     10 H1         3.2873    4.8168    7.4356 H         1 RES1    0.0000
     11 C3         1.8308    4.9964    6.0437 C.ar      1 RES1    0.0000
     12 H2         2.3836    4.8107    5.2933 H         1 RES1    0.0000
     13 C4         0.4756    5.2744    5.8642 C.ar      1 RES1    0.0000
     14 C5        -0.3399    5.5453    6.9555 C.ar      1 RES1    0.0000
     15 H3        -1.2617    5.7371    6.8264 H         1 RES1    0.0000
     16 C6         0.1899    5.5357    8.2244 C.ar      1 RES1    0.0000
     17 H4        -0.3700    5.7251    8.9687 H         1 RES1    0.0000
     18 C7         2.0784    5.2156    9.7857 C.2       1 RES1    0.0000
     19 C8         3.5966    5.2455   11.5994 C.3       1 RES1    0.0000
     20 C9         2.1453    5.2614   12.1437 C.3       1 RES1    0.0000
     21 C10        4.5069    6.3174   12.1600 C.3       1 RES1    0.0000
     22 H5         4.1170    7.2001   11.9886 H         1 RES1    0.0000
     23 H6         5.3849    6.2590   11.7283 H         1 RES1    0.0000
     24 H7         4.6079    6.1882   13.1263 H         1 RES1    0.0000
     25 C11        4.2542    3.8729   11.6840 C.3       1 RES1    0.0000
     26 H8         3.6680    3.2039   11.2724 H         1 RES1    0.0000
     27 H9         4.4056    3.6404   12.6240 H         1 RES1    0.0000
     28 H10        5.1114    3.8922   11.2099 H         1 RES1    0.0000
     29 C12        1.6573    6.6434   12.5796 C.3       1 RES1    0.0000
     30 H11        1.8371    7.2928   11.8675 H         1 RES1    0.0000
     31 H12        2.1275    6.9138   13.3966 H         1 RES1    0.0000
     32 H13        0.6932    6.6090   12.7551 H         1 RES1    0.0000
     33 C13        1.8393    4.2395   13.2251 C.3       1 RES1    0.0000
     34 H14        2.1599    3.3578   12.9427 H         1 RES1    0.0000
     35 H15        0.8720    4.2025   13.3744 H         1 RES1    0.0000
     36 H16        2.2888    4.4988   14.0562 H         1 RES1    0.0000
     37 C14        0.4132    5.7006    3.3971 C.ar      1 RES1    0.0000
     38 C15        1.4984    6.5706    3.3950 C.ar      1 RES1    0.0000
     39 H17        1.8815    6.8445    4.2201 H         1 RES1    0.0000
     40 C16        2.0289    7.0453    2.2028 C.ar      1 RES1    0.0000
     41 C17        1.4011    6.6369    1.0147 C.ar      1 RES1    0.0000
     42 H18        1.7544    6.9359    0.1856 H         1 RES1    0.0000
     43 C18        0.2954    5.8200    1.0066 C.ar      1 RES1    0.0000
     44 H19       -0.1178    5.5897    0.1816 H         1 RES1    0.0000
     45 C19       -0.2237    5.3260    2.2069 C.ar      1 RES1    0.0000
     46 C20       -1.8100    4.1732    3.3789 C.2       1 RES1    0.0000
     47 C21       -3.0598    3.3863    3.4455 C.ar      1 RES1    0.0000
     48 C22       -3.2685    2.4597    4.4763 C.ar      1 RES1    0.0000
     49 H20       -2.6064    2.3457    5.1480 H         1 RES1    0.0000
     50 C23       -4.4255    1.7156    4.5227 C.ar      1 RES1    0.0000
     51 H21       -4.5509    1.0803    5.2186 H         1 RES1    0.0000
     52 C24       -5.3966    1.8861    3.5726 C.ar      1 RES1    0.0000
     53 H22       -6.2009    1.3833    3.6190 H         1 RES1    0.0000
     54 C25       -5.2030    2.7955    2.5417 C.ar      1 RES1    0.0000
     55 H23       -5.8777    2.9174    1.8841 H         1 RES1    0.0000
     56 C26       -4.0224    3.5303    2.4711 C.ar      1 RES1    0.0000
     57 H24       -3.8812    4.1313    1.7490 H         1 RES1    0.0000
     58 C27        3.2307    7.9746    2.1544 C.3       1 RES1    0.0000
     59 C28        2.7652    9.3618    1.7046 C.3       1 RES1    0.0000
     60 H25        2.3825    9.3009    0.8049 H         1 RES1    0.0000
     61 H26        3.5295    9.9745    1.6945 H         1 RES1    0.0000
     62 H27        2.0861    9.6955    2.3279 H         1 RES1    0.0000
     63 C29        4.2609    7.4551    1.1458 C.3       1 RES1    0.0000
     64 H28        3.8562    7.4230    0.2542 H         1 RES1    0.0000
     65 H29        4.5495    6.5560    1.4060 H         1 RES1    0.0000
     66 H30        5.0356    8.0558    1.1317 H         1 RES1    0.0000
     67 C30        3.8937    8.0863    3.5262 C.3       1 RES1    0.0000
     68 H31        4.0997    7.1895    3.8651 H         1 RES1    0.0000
     69 H32        3.2848    8.5361    4.1495 H         1 RES1    0.0000
     70 H33        4.7218    8.6046    3.4475 H         1 RES1    0.0000
@<TRIPOS>BOND
     1    1    3 1
     2    2    4 1
     3    3   18 1
     4    4   18 2
     5    5    7 1
     6    6   45 1
     7    7   46 2
     8    8    9 ar
     9    9   10 1
    10   11    9 ar
    11   12   11 1
    12   13    5 1
    13   14   13 ar
    14   15   14 1
    15   16    8 ar
    16   17   16 1
    17   18    8 1
    18   19    3 1
    19   20    4 1
    20   21   19 1
    21   22   21 1
    22   23   21 1
    23   24   21 1
    24   25   19 1
    25   26   25 1
    26   27   25 1
    27   28   25 1
    28   29   20 1
    29   30   29 1
    30   31   29 1
    31   32   29 1
    32   33   20 1
    33   34   33 1
    34   35   33 1
    35   36   33 1
    36   37    5 1
    37   38   37 ar
    38   39   38 1
    39   40   38 ar
    40   41   40 ar
    41   42   41 1
    42   43   41 ar
    43   44   43 1
    44   45   37 ar
    45   46    6 1
    46   47   46 1
    47   48   47 ar
    48   49   48 1
    49   50   48 ar
    50   51   50 1
    51   52   50 ar
    52   53   52 1
    53   54   52 ar
    54   55   54 1
    55   56   47 ar
    56   57   56 1
    57   58   40 1
    58   59   58 1
    59   60   59 1
    60   61   59 1
    61   62   59 1
    62   63   58 1
    63   64   63 1
    64   65   63 1
    65   66   63 1
    66   67   58 1
    67   68   67 1
    68   69   67 1
    69   70   67 1
    70   11   13 ar
    71   14   16 ar
    72   19   20 1
    73   43   45 ar
    74   54   56 ar
@<TRIPOS>SUBSTRUCTURE
     1 RES1 1

@<TRIPOS>CRYSIN
   7.2513    9.3654   20.5980  95.7680  98.3280 104.4410   2 1

