# MOL2 file generated by ConQuest
# Please check atom types

@<TRIPOS>MOLECULE
OVOLAO
    58    60     1
SMALL
NO_CHARGES
****
Generated from CSD

@<TRIPOS>ATOM
      1 O1         3.1750    4.7834    5.9682 O.3       1 RES1    0.0000
      2 N1         3.5232   -0.1633    9.8907 N.pl3     1 RES1    0.0000
      3 C1         2.5352    2.8953    7.2037 C.ar      1 RES1    0.0000
      4 C2         3.7294    2.9316    7.8904 C.ar      1 RES1    0.0000
      5 H1         4.3175    3.6402    7.7609 H         1 RES1    0.0000
      6 O2         1.0588    4.0717    5.7667 O.2       1 RES1    0.0000
      7 C3         4.0530    1.9275    8.7641 C.ar      1 RES1    0.0000
      8 H2         4.8620    1.9436    9.2226 H         1 RES1    0.0000
      9 O3         4.6438   -0.2994   10.2073 O.2       1 RES1    0.0000
     10 C4         1.9862    0.8387    8.3077 C.ar      1 RES1    0.0000
     11 H3         1.3985    0.1341    8.4578 H         1 RES1    0.0000
     12 O4         5.3361    6.1474    4.4571 O.3       1 RES1    0.0000
     13 H4         5.6286    5.4841    4.9752 H         1 RES1    0.0000
     14 O5         2.6865   -0.8740   10.3430 O.2       1 RES1    0.0000
     15 C5         3.1722    0.9012    8.9533 C.ar      1 RES1    0.0000
     16 C6         2.1554    3.9729    6.2354 C.2       1 RES1    0.0000
     17 C7         1.6695    1.8509    7.4175 C.ar      1 RES1    0.0000
     18 H5         0.8603    1.8237    6.9611 H         1 RES1    0.0000
     19 C8         3.0040    5.9286    5.0903 C.3       1 RES1    0.0000
     20 H6         2.1042    5.9065    4.7038 H         1 RES1    0.0000
     21 C9         3.1230    7.1484    6.0278 C.3       1 RES1    0.0000
     22 H7         3.9955    7.0880    6.4698 H         1 RES1    0.0000
     23 C10        3.0701    8.4932    5.3288 C.ar      1 RES1    0.0000
     24 C11        1.9715    8.8410    4.5743 C.ar      1 RES1    0.0000
     25 H8         1.2575    8.2493    4.5044 H         1 RES1    0.0000
     26 C12        1.9137   10.0497    3.9205 C.ar      1 RES1    0.0000
     27 H9         1.1737   10.2614    3.4004 H         1 RES1    0.0000
     28 C13        2.9457   10.9379    4.0398 C.ar      1 RES1    0.0000
     29 H10        2.9139   11.7524    3.5895 H         1 RES1    0.0000
     30 C14        4.0236   10.6284    4.8169 C.ar      1 RES1    0.0000
     31 H11        4.7169   11.2403    4.9156 H         1 RES1    0.0000
     32 C15        4.0869    9.4116    5.4562 C.ar      1 RES1    0.0000
     33 H12        4.8263    9.2070    5.9825 H         1 RES1    0.0000
     34 C16        2.0798    7.0880    7.1030 C.2       1 RES1    0.0000
     35 H13        1.2042    7.2170    6.8193 H         1 RES1    0.0000
     36 C17        2.2273    6.8883    8.3324 C.2       1 RES1    0.0000
     37 H14        3.0748    6.7523    8.6860 H         1 RES1    0.0000
     38 H15        1.4821    6.8773    8.8916 H         1 RES1    0.0000
     39 C18        2.5397    6.6131    2.0785 C.ar      1 RES1    0.0000
     40 H16        1.9477    5.9367    2.3149 H         1 RES1    0.0000
     41 C19        3.7159    6.7613    2.7960 C.ar      1 RES1    0.0000
     42 C20        2.2247    7.4357    1.0320 C.ar      1 RES1    0.0000
     43 H17        1.4344    7.3047    0.5592 H         1 RES1    0.0000
     44 C21        3.0787    8.4580    0.6764 C.ar      1 RES1    0.0000
     45 H18        2.8607    9.0346   -0.0206 H         1 RES1    0.0000
     46 C22        4.2542    8.6132    1.3651 C.ar      1 RES1    0.0000
     47 H19        4.8402    9.2947    1.1246 H         1 RES1    0.0000
     48 C23        4.5752    7.7735    2.4033 C.ar      1 RES1    0.0000
     49 H20        5.3836    7.8864    2.8494 H         1 RES1    0.0000
     50 C24        4.0574    5.8137    3.9514 C.3       1 RES1    0.0000
     51 C25        4.0964    4.3671    3.4148 C.3       1 RES1    0.0000
     52 H21        4.3154    3.7723    4.1487 H         1 RES1    0.0000
     53 H22        3.2091    4.1302    3.1023 H         1 RES1    0.0000
     54 C26        5.9734    3.2189    2.2943 C.2       1 RES1    0.0000
     55 H23        6.0607    2.6442    3.0201 H         1 RES1    0.0000
     56 H24        6.5415    3.1352    1.5625 H         1 RES1    0.0000
     57 C27        5.0708    4.1272    2.3026 C.2       1 RES1    0.0000
     58 H25        5.0159    4.6826    1.5583 H         1 RES1    0.0000
@<TRIPOS>BOND
     1    1   16 1
     2    2    9 2
     3    3    4 ar
     4    4    5 1
     5    6   16 2
     6    7    4 ar
     7    8    7 1
     8   10   11 1
     9   12   13 1
    10   14    2 2
    11   15    2 1
    12   16    3 1
    13   17    3 ar
    14   18   17 1
    15   19    1 1
    16   20   19 1
    17   21   19 1
    18   22   21 1
    19   23   21 1
    20   24   23 ar
    21   25   24 1
    22   26   24 ar
    23   27   26 1
    24   28   26 ar
    25   29   28 1
    26   30   28 ar
    27   31   30 1
    28   32   23 ar
    29   33   32 1
    30   34   21 1
    31   35   34 1
    32   36   34 2
    33   37   36 1
    34   38   36 1
    35   39   40 1
    36   41   39 ar
    37   42   39 ar
    38   43   42 1
    39   44   42 ar
    40   45   44 1
    41   46   44 ar
    42   47   46 1
    43   48   41 ar
    44   49   48 1
    45   50   12 1
    46   51   50 1
    47   52   51 1
    48   53   51 1
    49   54   55 1
    50   56   54 1
    51   57   51 1
    52   58   57 1
    53    7   15 ar
    54   10   15 ar
    55   10   17 ar
    56   19   50 1
    57   30   32 ar
    58   41   50 1
    59   46   48 ar
    60   54   57 2
@<TRIPOS>SUBSTRUCTURE
     1 RES1 1

@<TRIPOS>CRYSIN
   5.7846   10.0810   20.6540  90.0000  95.5100  90.0000   4 1

