# MOL2 file generated by ConQuest
# Please check atom types

@<TRIPOS>MOLECULE
OVUYEL
    36    37     1
SMALL
NO_CHARGES
****
Generated from CSD

@<TRIPOS>ATOM
      1 O1         1.4931    2.7942    8.6101 O.2       1 RES1    0.0000
      2 N1         5.4388    3.2489    9.7836 N.3       1 RES1    0.0000
      3 O2         1.5302    0.8256    9.4931 O.2       1 RES1    0.0000
      4 N2         2.0870    1.9077    9.2302 N.pl3     1 RES1    0.0000
      5 C1         4.1030    3.2391    9.6318 C.2       1 RES1    0.0000
      6 C2         3.6086    5.3770    8.3904 C.ar      1 RES1    0.0000
      7 H1         4.2120    5.1207    7.7303 H         1 RES1    0.0000
      8 C3         6.2080    4.4321   10.1903 C.3       1 RES1    0.0000
      9 H2         5.6577    5.2255   10.0976 H         1 RES1    0.0000
     10 H3         6.9811    4.5324    9.6125 H         1 RES1    0.0000
     11 C4         3.4097    2.0509    9.6544 C.2       1 RES1    0.0000
     12 C5         2.5349    4.9826   10.4824 C.ar      1 RES1    0.0000
     13 H4         2.4021    4.4566   11.2378 H         1 RES1    0.0000
     14 C6         6.2415    2.0185    9.8899 C.3       1 RES1    0.0000
     15 H5         7.0230    2.0889    9.3198 H         1 RES1    0.0000
     16 H6         5.7162    1.2604    9.5900 H         1 RES1    0.0000
     17 C7         3.4098    4.5590    9.4903 C.ar      1 RES1    0.0000
     18 C8         6.6635    4.2924   11.6335 C.3       1 RES1    0.0000
     19 H7         5.8896    4.2890   12.2183 H         1 RES1    0.0000
     20 H8         7.2181    5.0514   11.8724 H         1 RES1    0.0000
     21 C9         2.0279    6.9873    9.2334 C.ar      1 RES1    0.0000
     22 C10        2.9240    6.5679    8.2603 C.ar      1 RES1    0.0000
     23 H9         3.0659    7.0984    7.5093 H         1 RES1    0.0000
     24 C11        7.4540    3.0068   11.8324 C.3       1 RES1    0.0000
     25 H10        8.2971    3.0705   11.3576 H         1 RES1    0.0000
     26 H11        7.6485    2.8916   12.7761 H         1 RES1    0.0000
     27 C12        6.6770    1.7996   11.3255 C.3       1 RES1    0.0000
     28 H12        7.2353    1.0074   11.3790 H         1 RES1    0.0000
     29 H13        5.8965    1.6569   11.8836 H         1 RES1    0.0000
     30 C13        1.8588    6.1864   10.3501 C.ar      1 RES1    0.0000
     31 H14        1.2809    6.4617   11.0249 H         1 RES1    0.0000
     32 C14        1.2523    8.2740    9.0865 C.3       1 RES1    0.0000
     33 H15        1.4928    8.7005    8.2605 H         1 RES1    0.0000
     34 H16        1.4591    8.8585    9.8203 H         1 RES1    0.0000
     35 H17        0.3119    8.0816    9.0854 H         1 RES1    0.0000
     36 H18        3.7504    1.2379    9.9820 H         1 RES1    0.0000
@<TRIPOS>BOND
     1    1    4 2
     2    2    5 1
     3    3    4 2
     4    4   11 1
     5    5   11 2
     6    6    7 1
     7    8    2 1
     8    9    8 1
     9   10    8 1
    10   11   36 1
    11   12   13 1
    12   14    2 1
    13   15   14 1
    14   16   14 1
    15   17    5 1
    16   18    8 1
    17   19   18 1
    18   20   18 1
    19   21   22 ar
    20   22    6 ar
    21   23   22 1
    22   24   18 1
    23   25   24 1
    24   26   24 1
    25   27   14 1
    26   28   27 1
    27   29   27 1
    28   30   12 ar
    29   31   30 1
    30   32   21 1
    31   33   32 1
    32   34   32 1
    33   35   32 1
    34    6   17 ar
    35   12   17 ar
    36   21   30 ar
    37   24   27 1
@<TRIPOS>SUBSTRUCTURE
     1 RES1 1

@<TRIPOS>CRYSIN
   8.0180   16.1180   10.2720  90.0000  94.8780  90.0000  14 1

