# MOL2 file generated by ConQuest
# Please check atom types

@<TRIPOS>MOLECULE
OVUZEL
    41    42     1
SMALL
NO_CHARGES
****
Generated from CSD

@<TRIPOS>ATOM
      1 O1         2.3683    4.0597   -6.4844 O.2       1 RES1    0.0000
      2 O2         1.3128    5.9255   -6.6900 O.2       1 RES1    0.0000
      3 O3        -1.3965    1.9970    5.6369 O.3       1 RES1    0.0000
      4 O4        -0.5814   -0.4731    4.9197 O.3       1 RES1    0.0000
      5 O5         0.6498   -0.9214    2.6355 O.3       1 RES1    0.0000
      6 N1         1.6903    4.9579   -6.0168 N.pl3     1 RES1    0.0000
      7 N2         0.1510    4.7661   -0.6778 N.3       1 RES1    0.0000
      8 N3         0.3288    3.6522    0.1024 N.2       1 RES1    0.0000
      9 C1         1.2946    4.8936   -4.6291 C.ar      1 RES1    0.0000
     10 C2         0.6031    5.9583   -4.0716 C.ar      1 RES1    0.0000
     11 C3         0.2369    5.9091   -2.7449 C.ar      1 RES1    0.0000
     12 C4         0.5545    4.7838   -1.9787 C.ar      1 RES1    0.0000
     13 C5         1.2605    3.7178   -2.5514 C.ar      1 RES1    0.0000
     14 C6         1.6264    3.7771   -3.8781 C.ar      1 RES1    0.0000
     15 C7        -0.1584    3.7506    1.2856 C.2       1 RES1    0.0000
     16 C8        -0.1571    2.6505    2.2300 C.ar      1 RES1    0.0000
     17 C9        -0.7404    2.8889    3.4791 C.ar      1 RES1    0.0000
     18 C10       -0.8414    1.8595    4.3976 C.ar      1 RES1    0.0000
     19 C11       -0.3789    0.5841    4.0746 C.ar      1 RES1    0.0000
     20 C12        0.2206    0.3658    2.8408 C.ar      1 RES1    0.0000
     21 C13        0.3383    1.3827    1.9147 C.ar      1 RES1    0.0000
     22 C14       -1.9123    3.2674    5.9848 C.3       1 RES1    0.0000
     23 C15        0.2506   -0.5488    6.0503 C.3       1 RES1    0.0000
     24 C16        1.3061   -1.1846    1.4029 C.3       1 RES1    0.0000
     25 H1         2.2034    3.0277   -4.2803 H         1 RES1    0.0000
     26 H2         0.7038    1.2616    1.0510 H         1 RES1    0.0000
     27 H3        -0.3450    6.5348   -2.3305 H         1 RES1    0.0000
     28 H4        -1.1751    3.8351    3.7319 H         1 RES1    0.0000
     29 H5         1.4959    2.8889   -2.0107 H         1 RES1    0.0000
     30 H6        -0.7822    4.5668    1.5842 H         1 RES1    0.0000
     31 H7         0.3423    6.7114   -4.6306 H         1 RES1    0.0000
     32 H8        -0.3126    5.3742   -0.3503 H         1 RES1    0.0000
     33 H9        -2.5178    3.5828    5.3770 H         1 RES1    0.0000
     34 H10       -1.1427    3.9739    5.9863 H         1 RES1    0.0000
     35 H11        0.6554   -1.0092    0.8073 H         1 RES1    0.0000
     36 H12        2.1757   -0.7695    1.3557 H         1 RES1    0.0000
     37 H13        1.4176   -2.1194    1.4166 H         1 RES1    0.0000
     38 H14       -2.3705    3.2170    6.7632 H         1 RES1    0.0000
     39 H15        1.2244   -0.5929    5.6817 H         1 RES1    0.0000
     40 H16        0.0228   -1.2868    6.4737 H         1 RES1    0.0000
     41 H17        0.6801    0.2523    6.4433 H         1 RES1    0.0000
@<TRIPOS>BOND
     1    1    6 2
     2    2    6 2
     3    3   18 1
     4    4   19 1
     5    5   20 1
     6    6    9 1
     7    7    8 1
     8    8   15 2
     9    9   10 ar
    10   10   11 ar
    11   11   12 ar
    12   12    7 1
    13   13   12 ar
    14   14    9 ar
    15   15   16 1
    16   16   17 ar
    17   17   18 ar
    18   18   19 ar
    19   19   20 ar
    20   20   21 ar
    21   21   16 ar
    22   22    3 1
    23   23    4 1
    24   24    5 1
    25   25   14 1
    26   26   21 1
    27   27   11 1
    28   28   17 1
    29   29   13 1
    30   30   15 1
    31   31   10 1
    32   32    7 1
    33   33   22 1
    34   34   22 1
    35   35   24 1
    36   36   24 1
    37   37   24 1
    38   38   22 1
    39   39   23 1
    40   40   23 1
    41   41   23 1
    42   13   14 ar
@<TRIPOS>SUBSTRUCTURE
     1 RES1 1

