# MOL2 file generated by ConQuest
# Please check atom types

@<TRIPOS>MOLECULE
OWACIZ
    43    45     1
SMALL
NO_CHARGES
****
Generated from CSD

@<TRIPOS>ATOM
      1 C1         2.4006    0.6746    7.2636 C.2       1 RES1    0.0000
      2 O1         3.0292    1.6856    6.9674 O.2       1 RES1    0.0000
      3 C2         1.9050    0.4702    8.6631 C.2       1 RES1    0.0000
      4 C3         1.3611   -0.8743    9.0439 C.3       1 RES1    0.0000
      5 H1         0.6933   -0.7577    9.7375 H         1 RES1    0.0000
      6 H2         2.0799   -1.4107    9.4135 H         1 RES1    0.0000
      7 C4         0.7349   -1.6255    7.8823 C.3       1 RES1    0.0000
      8 H3        -0.0743   -1.1688    7.6045 H         1 RES1    0.0000
      9 H4         0.4909   -2.5177    8.1727 H         1 RES1    0.0000
     10 C5         1.6883   -1.7236    6.7019 C.3       1 RES1    0.0000
     11 H5         2.4755   -2.2248    6.9626 H         1 RES1    0.0000
     12 H6         1.2551   -2.1993    5.9752 H         1 RES1    0.0000
     13 C6         2.0967   -0.3559    6.2335 C.2       1 RES1    0.0000
     14 C7         2.1549    0.0470    4.9605 C.2       1 RES1    0.0000
     15 H7         2.3086    0.9566    4.8434 H         1 RES1    0.0000
     16 C8         2.0130   -0.7221    3.7203 C.ar      1 RES1    0.0000
     17 C9         1.4668   -0.2159    2.5530 C.ar      1 RES1    0.0000
     18 N1         0.7176    1.0509    2.5754 N.pl3     1 RES1    0.0000
     19 O2         0.1918    1.4033    3.6075 O.2       1 RES1    0.0000
     20 O3         0.6343    1.6899    1.5442 O.2       1 RES1    0.0000
     21 C10        1.5415   -0.8666    1.3382 C.ar      1 RES1    0.0000
     22 H8         1.1859   -0.4756    0.5728 H         1 RES1    0.0000
     23 C11        2.1504   -2.0999    1.2746 C.ar      1 RES1    0.0000
     24 H9         2.2086   -2.5486    0.4622 H         1 RES1    0.0000
     25 C12        2.6656   -2.6600    2.4013 C.ar      1 RES1    0.0000
     26 H10        3.0528   -3.5052    2.3603 H         1 RES1    0.0000
     27 C13        2.6199   -1.9795    3.6132 C.ar      1 RES1    0.0000
     28 H11        2.9989   -2.3672    4.3689 H         1 RES1    0.0000
     29 C14        1.9502    1.5328    9.4607 C.2       1 RES1    0.0000
     30 H12        2.2665    2.3229    9.0849 H         1 RES1    0.0000
     31 C15        1.5484    1.5875   10.8841 C.ar      1 RES1    0.0000
     32 C16        0.7350    2.5766   11.4401 C.ar      1 RES1    0.0000
     33 N2         0.1365    3.6244   10.6153 N.pl3     1 RES1    0.0000
     34 O4         0.4407    3.7399    9.4728 O.2       1 RES1    0.0000
     35 O5        -0.7078    4.3364   11.0794 O.2       1 RES1    0.0000
     36 C17        0.4469    2.6218   12.7963 C.ar      1 RES1    0.0000
     37 H13       -0.1086    3.2849   13.1390 H         1 RES1    0.0000
     38 C18        0.9929    1.6753   13.6218 C.ar      1 RES1    0.0000
     39 H14        0.8243    1.7076   14.5364 H         1 RES1    0.0000
     40 C19        1.7825    0.6838   13.1155 C.ar      1 RES1    0.0000
     41 H15        2.1450    0.0430   13.6826 H         1 RES1    0.0000
     42 C20        2.0406    0.6345   11.7646 C.ar      1 RES1    0.0000
     43 H16        2.5617   -0.0591   11.4314 H         1 RES1    0.0000
@<TRIPOS>BOND
     1    1    2 2
     2    3    1 1
     3    4    3 1
     4    5    4 1
     5    6    4 1
     6    7    4 1
     7    8    7 1
     8    9    7 1
     9   10    7 1
    10   11   10 1
    11   12   10 1
    12   13    1 1
    13   14   13 2
    14   15   14 1
    15   16   14 1
    16   17   16 ar
    17   18   17 1
    18   19   18 2
    19   20   18 2
    20   21   17 ar
    21   22   21 1
    22   23   21 ar
    23   24   23 1
    24   25   23 ar
    25   26   25 1
    26   27   16 ar
    27   28   27 1
    28   29    3 2
    29   30   29 1
    30   31   29 1
    31   32   31 ar
    32   33   32 1
    33   34   33 2
    34   35   33 2
    35   36   32 ar
    36   37   36 1
    37   38   36 ar
    38   39   38 1
    39   40   38 ar
    40   41   40 1
    41   42   31 ar
    42   43   42 1
    43   10   13 1
    44   25   27 ar
    45   40   42 ar
@<TRIPOS>SUBSTRUCTURE
     1 RES1 1

@<TRIPOS>CRYSIN
   8.4820   13.4350   15.3770  90.0000  92.9600  90.0000 231 1

