# MOL2 file generated by ConQuest
# Please check atom types

@<TRIPOS>MOLECULE
OWAPEI
    31    33     1
SMALL
NO_CHARGES
****
Generated from CSD

@<TRIPOS>ATOM
      1 C1         5.9429    3.7270   14.7588 C.ar      1 RES1    0.0000
      2 H1         6.3828    2.9095   14.8127 H         1 RES1    0.0000
      3 O1         3.7129    5.2278   18.0361 O.3       1 RES1    0.0000
      4 O2         7.1801    4.8587   11.6292 O.2       1 RES1    0.0000
      5 O3         2.2726    3.2559   16.7702 O.3       1 RES1    0.0000
      6 O4         1.5180    5.7728   17.8331 O.3       1 RES1    0.0000
      7 N1         6.9667    4.0934   12.5626 N.pl3     1 RES1    0.0000
      8 C2         6.1020    4.5434   13.6541 C.ar      1 RES1    0.0000
      9 C3         4.4568    5.3770   15.7020 C.ar      1 RES1    0.0000
     10 O5         7.4377    2.9623   12.6249 O.2       1 RES1    0.0000
     11 C4         4.6535    6.1808   14.5780 C.ar      1 RES1    0.0000
     12 H2         4.2251    7.0041   14.5240 H         1 RES1    0.0000
     13 C5         5.1129    4.1530   15.7835 C.ar      1 RES1    0.0000
     14 H3         4.9930    3.6154   16.5326 H         1 RES1    0.0000
     15 C6         2.3063    5.2093   20.0084 C.3       1 RES1    0.0000
     16 H4         2.4851    6.1402   20.1581 H         1 RES1    0.0000
     17 H5         2.9496    4.6791   20.4839 H         1 RES1    0.0000
     18 H6         1.4232    4.9986   20.3218 H         1 RES1    0.0000
     19 C7         5.4727    5.7749   13.5444 C.ar      1 RES1    0.0000
     20 H7         5.5992    6.3114   12.7957 H         1 RES1    0.0000
     21 C8         2.0217    5.6604   16.4907 C.3       1 RES1    0.0000
     22 H8         1.6593    6.3640   15.9131 H         1 RES1    0.0000
     23 C9         2.3997    4.9121   18.5428 C.3       1 RES1    0.0000
     24 C10        2.0645    3.4757   18.1629 C.3       1 RES1    0.0000
     25 H9         2.6232    2.8683   18.6728 H         1 RES1    0.0000
     26 H10        1.1383    3.2908   18.3842 H         1 RES1    0.0000
     27 C11        3.5236    5.8774   16.7689 C.3       1 RES1    0.0000
     28 H11        3.6796    6.8375   16.8887 H         1 RES1    0.0000
     29 C12        1.6785    4.2841   15.9665 C.3       1 RES1    0.0000
     30 H12        0.7149    4.1730   15.9621 H         1 RES1    0.0000
     31 H13        1.9931    4.2005   15.0523 H         1 RES1    0.0000
@<TRIPOS>BOND
     1    1    2 1
     2    3   23 1
     3    4    7 2
     4    5   24 1
     5    6   21 1
     6    7    8 1
     7    8    1 ar
     8    9   11 ar
     9   10    7 2
    10   11   12 1
    11   13    1 ar
    12   14   13 1
    13   15   16 1
    14   17   15 1
    15   18   15 1
    16   19    8 ar
    17   20   19 1
    18   21   22 1
    19   23    6 1
    20   24   23 1
    21   25   24 1
    22   26   24 1
    23   27    3 1
    24   28   27 1
    25   29    5 1
    26   30   29 1
    27   31   29 1
    28    9   13 ar
    29    9   27 1
    30   11   19 ar
    31   15   23 1
    32   21   27 1
    33   21   29 1
@<TRIPOS>SUBSTRUCTURE
     1 RES1 1

@<TRIPOS>CRYSIN
  11.5989    5.7251   17.8093  90.0000 108.6050  90.0000 231 1

