# MOL2 file generated by ConQuest
# Please check atom types

@<TRIPOS>MOLECULE
OWOPOH
    22    21     1
SMALL
NO_CHARGES
****
Generated from CSD

@<TRIPOS>ATOM
      1 N1         7.9622   -1.0868    5.3755 N.pl3     1 RES1    0.0000
      2 N2        10.3306   -0.8213    5.1011 N.pl3     1 RES1    0.0000
      3 N3         9.3133   -0.3930    7.3090 N.pl3     1 RES1    0.0000
      4 N4         5.8963    2.7445    6.4010 N.am      1 RES1    0.0000
      5 O1         7.1332   -0.5910    4.6847 O.2       1 RES1    0.0000
      6 O2         8.0069   -2.2314    5.7553 O.2       1 RES1    0.0000
      7 O3        10.5549   -0.3870    4.0004 O.2       1 RES1    0.0000
      8 O4        10.9117   -1.7221    5.6434 O.2       1 RES1    0.0000
      9 O5         8.3491   -0.7126    7.9444 O.2       1 RES1    0.0000
     10 O6        10.4264   -0.1095    7.7311 O.2       1 RES1    0.0000
     11 O7         7.8110    1.6456    6.2386 O.3       1 RES1    0.0000
     12 O8         6.9181    2.5967    4.3778 O.2       1 RES1    0.0000
     13 C1         9.1387   -0.2048    5.8145 C.3       1 RES1    0.0000
     14 C2         8.9423    1.2496    5.4648 C.3       1 RES1    0.0000
     15 C3        10.1179    2.1302    5.8004 C.3       1 RES1    0.0000
     16 C4         6.8471    2.3627    5.5692 C.2       1 RES1    0.0000
     17 H1         8.7550    1.2526    4.5305 H         1 RES1    0.0000
     18 H2        11.0215    1.8376    5.4423 H         1 RES1    0.0000
     19 H3        10.2193    2.1302    6.7394 H         1 RES1    0.0000
     20 H4         9.9538    3.0827    5.4517 H         1 RES1    0.0000
     21 H5         5.9384    2.4452    7.1530 H         1 RES1    0.0000
     22 H6         5.3098    3.1653    6.0438 H         1 RES1    0.0000
@<TRIPOS>BOND
     1    1    5 2
     2    2    7 2
     3    3    9 2
     4    4   16 1
     5    6    1 2
     6    8    2 2
     7   10    3 2
     8   11   14 1
     9   12   16 2
    10   13    1 1
    11   14   13 1
    12   15   14 1
    13   16   11 1
    14   17   14 1
    15   18   15 1
    16   19   15 1
    17   20   15 1
    18   21    4 1
    19   22    4 1
    20    2   13 1
    21    3   13 1
@<TRIPOS>SUBSTRUCTURE
     1 RES1 1

@<TRIPOS>CRYSIN
  12.8460    7.5006    9.5234  90.0000  99.2540  90.0000  14 1

