# MOL2 file generated by ConQuest
# Please check atom types

@<TRIPOS>MOLECULE
OWUYOW02
    36    39     1
SMALL
NO_CHARGES
****
Generated from CSD

@<TRIPOS>ATOM
      1 C1        -3.0401    5.1400    6.5190 C.2       1 RES1    0.0000
      2 H1        -3.8600    5.4308    6.1906 H         1 RES1    0.0000
      3 O1        -1.8838    5.5855    6.0524 O.3       1 RES1    0.0000
      4 N1        -0.8917    4.9141    6.7884 N.2       1 RES1    0.0000
      5 C2        -1.5768    4.1716    7.5789 C.2       1 RES1    0.0000
      6 N2        -2.9373    4.2756    7.4617 N.2       1 RES1    0.0000
      7 C3        -0.9385    3.2992    8.5526 C.2       1 RES1    0.0000
      8 N3        -1.6305    2.4926    9.2992 N.2       1 RES1    0.0000
      9 O2        -0.7170    1.8692   10.1234 O.3       1 RES1    0.0000
     10 N4         0.5576    2.3005    9.8594 N.2       1 RES1    0.0000
     11 C4         0.4338    3.1694    8.9168 C.2       1 RES1    0.0000
     12 N5         1.5403    3.9208    8.5028 N.3       1 RES1    0.0000
     13 N6         1.9453    3.7723    7.1884 N.pl3     1 RES1    0.0000
     14 O3         1.3149    2.9764    6.5125 O.2       1 RES1    0.0000
     15 O4         2.8804    4.4552    6.8380 O.2       1 RES1    0.0000
     16 C5         2.2657    4.7949    9.4129 C.3       1 RES1    0.0000
     17 H2         1.6857    5.0493   10.1472 H         1 RES1    0.0000
     18 H3         2.5296    5.6015    8.9440 H         1 RES1    0.0000
     19 C1B        8.8123    3.7527   12.8569 C.2       1 RES1    0.0000
     20 H1B        9.6323    3.4619   13.1854 H         1 RES1    0.0000
     21 O1B        7.6561    3.3072   13.3236 O.3       1 RES1    0.0000
     22 N1B        6.6639    3.9786   12.5876 N.2       1 RES1    0.0000
     23 C2B        7.3490    4.7211   11.7971 C.2       1 RES1    0.0000
     24 N2B        8.7096    4.6171   11.9143 N.2       1 RES1    0.0000
     25 C3B        6.7107    5.5935   10.8234 C.2       1 RES1    0.0000
     26 N3B        7.4027    6.4001   10.0768 N.2       1 RES1    0.0000
     27 O2B        6.4893    7.0235    9.2526 O.3       1 RES1    0.0000
     28 N4B        5.2146    6.5922    9.5166 N.2       1 RES1    0.0000
     29 C4B        5.3384    5.7233   10.4592 C.2       1 RES1    0.0000
     30 N5B        4.2319    4.9719   10.8732 N.3       1 RES1    0.0000
     31 N6B        3.8269    5.1204   12.1876 N.pl3     1 RES1    0.0000
     32 O3B        4.4573    5.9163   12.8635 O.2       1 RES1    0.0000
     33 O4B        2.8918    4.4375   12.5380 O.2       1 RES1    0.0000
     34 C5B        3.5065    4.0978    9.9631 C.3       1 RES1    0.0000
     35 H2B        4.0866    3.8434    9.2288 H         1 RES1    0.0000
     36 H3B        3.2426    3.2912   10.4320 H         1 RES1    0.0000
@<TRIPOS>BOND
     1    1    2 1
     2    3    1 1
     3    4    3 1
     4    5    4 2
     5    6    1 2
     6    7    5 1
     7    8    7 2
     8    9    8 1
     9   10    9 1
    10   11    7 1
    11   12   11 1
    12   13   12 1
    13   14   13 2
    14   15   13 2
    15   16   12 1
    16   17   16 1
    17   18   16 1
    18   19   20 1
    19   21   19 1
    20   22   21 1
    21   23   22 2
    22   24   19 2
    23   25   23 1
    24   26   25 2
    25   27   26 1
    26   28   27 1
    27   29   25 1
    28   30   29 1
    29   31   30 1
    30   32   31 2
    31   33   31 2
    32   34   16 1
    33   35   34 1
    34   36   34 1
    35    5    6 1
    36   10   11 2
    37   23   24 1
    38   28   29 2
    39   30   34 1
@<TRIPOS>SUBSTRUCTURE
     1 RES1 1

@<TRIPOS>CRYSIN
   9.2994    8.8927    9.8472  90.0000 100.3170  90.0000 231 1

