# MOL2 file generated by ConQuest
# Please check atom types

@<TRIPOS>MOLECULE
OXACIB02
    35    36     1
SMALL
USER_CHARGES
****
Generated from CSD

@<TRIPOS>ATOM
      1 C1        10.7600   -0.9060   11.9706 C.3       1 RES1    0.0000
      2 H1        11.1117   -1.5623   12.6085 H         1 RES1    0.0000
      3 H2        10.3710   -0.1512   12.4598 H         1 RES1    0.0000
      4 H3        11.4885   -0.5855   11.3981 H         1 RES1    0.0000
      5 N1         9.7323   -1.5325   11.1450 N.2       1 RES1    0.0000
      6 N2        10.1783   -2.4054   10.3614 N.pl3     1 RES1    1.0000
      7 O1        11.3680   -2.7687   10.2079 O.2       1 RES1   -1.0000
      8 C2         9.2006   -3.0442    9.5453 C.2       1 RES1    0.0000
      9 N3         9.5226   -4.0692    8.8264 N.2       1 RES1    0.0000
     10 O2         8.3607   -4.4125    8.1692 O.3       1 RES1    0.0000
     11 N4         7.3171   -3.5691    8.5053 N.2       1 RES1    0.0000
     12 C3         7.8225   -2.7210    9.3505 C.2       1 RES1    0.0000
     13 N5         7.0700   -1.6410    9.8115 N.3       1 RES1    0.0000
     14 N6         6.8006   -1.5794   11.1712 N.pl3     1 RES1    0.0000
     15 O3         7.0678   -2.5655   11.8260 O.2       1 RES1    0.0000
     16 O4         6.3165   -0.5297   11.5669 O.2       1 RES1    0.0000
     17 C4         6.6216   -0.5665    8.9516 C.3       1 RES1    0.0000
     18 H4         5.6580   -0.4056    9.1135 H         1 RES1    0.0000
     19 H5         6.7266   -0.8448    8.0078 H         1 RES1    0.0000
     20 N7         7.3519    0.6759    9.1643 N.pl3     1 RES1    0.0000
     21 N8         8.6827    0.7454    8.7671 N.pl3     1 RES1    0.0000
     22 O5         9.1859   -0.3125    8.4297 O.2       1 RES1    0.0000
     23 O6         9.2170    1.8394    8.8139 O.2       1 RES1    0.0000
     24 C5         6.7243    1.8570    9.5493 C.2       1 RES1    0.0000
     25 N9         5.5441    2.1576    9.0920 N.2       1 RES1    0.0000
     26 N10        6.1901    3.7471   10.6002 N.2       1 RES1    0.0000
     27 O7         5.1898    3.3201    9.7468 O.3       1 RES1    0.0000
     28 C6         7.1166    2.8541   10.4814 C.2       1 RES1    0.0000
     29 N11        8.3113    2.8923   11.2792 N.pl3     1 RES1    1.0000
     30 O8         8.6769    1.7790   11.7453 O.2       1 RES1   -1.0000
     31 N12        8.8387    4.0322   11.4265 N.2       1 RES1    0.0000
     32 C7        10.0283    3.9808   12.2693 C.3       1 RES1    0.0000
     33 H6         9.7828    3.6584   13.1619 H         1 RES1    0.0000
     34 H7        10.4170    4.8772   12.3414 H         1 RES1    0.0000
     35 H8        10.6845    3.3714   11.8714 H         1 RES1    0.0000
@<TRIPOS>BOND
     1    1    2 1
     2    3    1 1
     3    4    1 1
     4    5    1 1
     5    6    5 2
     6    7    6 1
     7    8    6 1
     8    9    8 2
     9   10    9 1
    10   11   10 1
    11   12    8 1
    12   13   12 1
    13   14   13 1
    14   15   14 2
    15   16   14 2
    16   17   13 1
    17   18   17 1
    18   19   17 1
    19   20   17 1
    20   21   20 1
    21   22   21 2
    22   23   21 2
    23   24   20 1
    24   25   24 2
    25   26   27 1
    26   27   25 1
    27   28   24 1
    28   29   28 1
    29   30   29 1
    30   31   29 2
    31   32   31 1
    32   33   32 1
    33   34   32 1
    34   35   32 1
    35   11   12 2
    36   26   28 2
@<TRIPOS>SUBSTRUCTURE
     1 RES1 1

@<TRIPOS>CRYSIN
  14.3822    9.5669   11.2707  90.0000  90.0000  90.0000  33 1

