# MOL2 file generated by ConQuest
# Please check atom types

@<TRIPOS>MOLECULE
OXAJAA
    34    34     1
SMALL
NO_CHARGES
****
Generated from CSD

@<TRIPOS>ATOM
      1 C1         3.8369   11.6610    2.5180 C.3       1 RES1    0.0000
      2 H1         3.9604   11.9246    1.5827 H         1 RES1    0.0000
      3 H2         4.5596   12.0380    3.0617 H         1 RES1    0.0000
      4 H3         2.9755   11.9994    2.8417 H         1 RES1    0.0000
      5 C2         2.7935    8.4503    1.8872 C.2       1 RES1    0.0000
      6 C3         3.7486    7.5905    2.6573 C.3       1 RES1    0.0000
      7 H4         4.6660    7.7871    2.3737 H         1 RES1    0.0000
      8 H5         3.5482    6.6469    2.4862 H         1 RES1    0.0000
      9 H6         3.6555    7.7764    3.6149 H         1 RES1    0.0000
     10 C4         1.6275    7.8006    1.1585 C.3       1 RES1    0.0000
     11 C5         0.7694    8.7458    0.3434 C.2       1 RES1    0.0000
     12 C6         0.6107    7.3862    2.2668 C.2       1 RES1    0.0000
     13 C7         1.1805    9.3411   -0.9544 C.3       1 RES1    0.0000
     14 H7         1.3372    8.6257   -1.6062 H         1 RES1    0.0000
     15 H8         2.0049    9.8558   -0.8304 H         1 RES1    0.0000
     16 H9         0.4711    9.9329   -1.2819 H         1 RES1    0.0000
     17 C8        -1.6953    8.1241    2.7889 C.3       1 RES1    0.0000
     18 H10       -2.2955    7.4855    2.3527 H         1 RES1    0.0000
     19 H11       -2.1131    9.0108    2.8010 H         1 RES1    0.0000
     20 H12       -1.5196    7.8342    3.7083 H         1 RES1    0.0000
     21 C9         1.2746    5.6889   -0.0496 C.2       1 RES1    0.0000
     22 C10        1.8339    4.6678   -0.9830 C.3       1 RES1    0.0000
     23 H13        1.1254    4.0455   -1.2501 H         1 RES1    0.0000
     24 H14        2.5510    4.1717   -0.5341 H         1 RES1    0.0000
     25 H15        2.1939    5.1151   -1.7779 H         1 RES1    0.0000
     26 N1         2.8055    9.7251    1.8287 N.2       1 RES1    0.0000
     27 N2        -0.3895    8.9216    0.8571 N.2       1 RES1    0.0000
     28 N3        -0.4467    8.1895    2.0576 N.am      1 RES1    0.0000
     29 N4         2.0992    6.6653    0.3815 N.am      1 RES1    0.0000
     30 O1         3.8577   10.2356    2.6185 O.3       1 RES1    0.0000
     31 O2         0.7770    6.6052    3.1818 O.2       1 RES1    0.0000
     32 O3         3.2725    6.9284   -0.3389 O.3       1 RES1    0.0000
     33 H16        3.8369    6.3602   -0.0763 H         1 RES1    0.0000
     34 O4         0.1182    5.6621    0.3974 O.2       1 RES1    0.0000
@<TRIPOS>BOND
     1    1    2 1
     2    3    1 1
     3    4    1 1
     4    5    6 1
     5    6    7 1
     6    8    6 1
     7    9    6 1
     8   10    5 1
     9   11   10 1
    10   12   10 1
    11   13   11 1
    12   14   13 1
    13   15   13 1
    14   16   13 1
    15   17   18 1
    16   19   17 1
    17   20   17 1
    18   21   22 1
    19   22   23 1
    20   24   22 1
    21   25   22 1
    22   26    5 2
    23   27   11 2
    24   28   12 1
    25   29   10 1
    26   30    1 1
    27   31   12 2
    28   32   29 1
    29   33   32 1
    30   34   21 2
    31   17   28 1
    32   21   29 1
    33   26   30 1
    34   27   28 1
@<TRIPOS>SUBSTRUCTURE
     1 RES1 1

@<TRIPOS>CRYSIN
   9.4973   21.3932    6.3586  90.0000  90.0000  90.0000  33 1

