# MOL2 file generated by ConQuest
# Please check atom types

@<TRIPOS>MOLECULE
OXAKAB
    42    44     1
SMALL
NO_CHARGES
****
Generated from CSD

@<TRIPOS>ATOM
      1 O1        -0.0202    1.4625    5.5972 O.2       1 RES1    0.0000
      2 O2         0.0455    0.2467    3.7973 O.2       1 RES1    0.0000
      3 N1        -0.9226   12.4367   -4.4804 N.pl3     1 RES1    0.0000
      4 N2        -0.0149    1.3373    4.3690 N.pl3     1 RES1    0.0000
      5 C1        -0.4489    7.0128    0.5472 C.1       1 RES1    0.0000
      6 C2        -0.5322    8.1444   -0.2189 C.1       1 RES1    0.0000
      7 C3        -0.3768    6.0135    1.2159 C.1       1 RES1    0.0000
      8 C4        -0.6143    9.1469   -0.8876 C.1       1 RES1    0.0000
      9 C5        -0.8083   11.2947   -2.2954 C.1       1 RES1    0.0000
     10 C6         0.0648    2.4487    2.1875 C.ar      1 RES1    0.0000
     11 H1         0.2360    1.6045    1.7872 H         1 RES1    0.0000
     12 C7        -0.2853    4.8247    2.0091 C.ar      1 RES1    0.0000
     13 C8        -0.7143   10.2872   -1.6372 C.1       1 RES1    0.0000
     14 C9        -0.0111    3.5895    1.4198 C.ar      1 RES1    0.0000
     15 H2         0.1243    3.5353    0.4813 H         1 RES1    0.0000
     16 C10       -1.0000   13.7521   -4.9447 C.2       1 RES1    0.0000
     17 C11       -0.9673   13.7989   -2.6868 C.2       1 RES1    0.0000
     18 H3        -0.9638   14.1169   -1.7917 H         1 RES1    0.0000
     19 C12       -0.4796    4.8952    3.4109 C.ar      1 RES1    0.0000
     20 H4        -0.6859    5.7268    3.8217 H         1 RES1    0.0000
     21 C13       -0.3691    3.7589    4.1726 C.ar      1 RES1    0.0000
     22 H5        -0.4688    3.8006    5.1172 H         1 RES1    0.0000
     23 C14       -0.9124   12.4816   -3.0751 C.2       1 RES1    0.0000
     24 C15       -0.6383   16.4768   -5.4200 C.3       1 RES1    0.0000
     25 H6        -0.8156   17.4401   -5.5639 H         1 RES1    0.0000
     26 H7         0.3347   16.3248   -5.5220 H         1 RES1    0.0000
     27 C16       -1.0587   14.1691   -6.3736 C.3       1 RES1    0.0000
     28 H8        -1.7512   13.6432   -6.8474 H         1 RES1    0.0000
     29 H9        -0.1867   13.9937   -6.8084 H         1 RES1    0.0000
     30 C17       -0.9178   11.2273   -5.2011 C.2       1 RES1    0.0000
     31 H10       -1.0844   10.4423   -4.6943 H         1 RES1    0.0000
     32 C18       -0.1127    2.5601    3.5519 C.ar      1 RES1    0.0000
     33 C19       -1.3912   15.6614   -6.4650 C.3       1 RES1    0.0000
     34 H11       -1.1584   15.9929   -7.3676 H         1 RES1    0.0000
     35 H12       -2.3653   15.7868   -6.3361 H         1 RES1    0.0000
     36 C20       -1.0289   14.5950   -3.8502 C.2       1 RES1    0.0000
     37 C21       -1.0737   16.0809   -3.9957 C.3       1 RES1    0.0000
     38 H13       -0.4690   16.4997   -3.3330 H         1 RES1    0.0000
     39 H14       -1.9924   16.4055   -3.8247 H         1 RES1    0.0000
     40 C22       -0.7139   11.0493   -6.4740 C.2       1 RES1    0.0000
     41 H15       -0.5416   11.7954   -7.0378 H         1 RES1    0.0000
     42 H16       -0.7373   10.1732   -6.8414 H         1 RES1    0.0000
@<TRIPOS>BOND
     1    1    4 2
     2    2    4 2
     3    3   16 1
     4    4   32 1
     5    5    6 1
     6    6    8 3
     7    7    5 3
     8    8   13 1
     9    9   13 3
    10   10   11 1
    11   12    7 1
    12   14   10 ar
    13   15   14 1
    14   16   27 1
    15   17   18 1
    16   19   12 ar
    17   20   19 1
    18   21   19 ar
    19   22   21 1
    20   23    3 1
    21   24   25 1
    22   26   24 1
    23   27   28 1
    24   29   27 1
    25   30    3 1
    26   31   30 1
    27   32   10 ar
    28   33   24 1
    29   34   33 1
    30   35   33 1
    31   36   16 2
    32   37   24 1
    33   38   37 1
    34   39   37 1
    35   40   30 2
    36   41   40 1
    37   42   40 1
    38    9   23 1
    39   12   14 ar
    40   17   23 2
    41   17   36 1
    42   21   32 ar
    43   27   33 1
    44   36   37 1
@<TRIPOS>SUBSTRUCTURE
     1 RES1 1

@<TRIPOS>CRYSIN
   7.0110    8.3770   15.3630 100.0300  94.5200 105.8300   2 1

