# MOL2 file generated by ConQuest
# Please check atom types

@<TRIPOS>MOLECULE
OXALOQ
    51    52     1
SMALL
NO_CHARGES
****
Generated from CSD

@<TRIPOS>ATOM
      1 O1         0.1924    4.8763   12.0236 O.2       1 RES1    0.0000
      2 O2        -0.9505    6.6917    9.6935 O.2       1 RES1    0.0000
      3 N1        -0.9475    6.6004   12.9352 N.am      1 RES1    0.0000
      4 N2        -0.3465    5.6992    9.3101 N.pl3     1 RES1    0.0000
      5 O3        -0.8819    4.7100    8.8508 O.2       1 RES1    0.0000
      6 C1         0.0434    6.0854   12.1914 C.2       1 RES1    0.0000
      7 N3         3.8392    4.2986    7.3075 N.pl3     1 RES1    0.0000
      8 C2         1.9973    7.5306   12.7075 C.ar      1 RES1    0.0000
      9 C3         1.0878    7.0454   11.5819 C.3       1 RES1    0.0000
     10 H1         0.6025    7.8381   11.2116 H         1 RES1    0.0000
     11 C4         1.1303    5.7082    9.3853 C.ar      1 RES1    0.0000
     12 C5         1.8045    6.3528   10.4336 C.ar      1 RES1    0.0000
     13 C6         3.1932    6.3113   10.3676 C.ar      1 RES1    0.0000
     14 H2         3.6949    6.7416   11.0504 H         1 RES1    0.0000
     15 C7         3.8735    5.6685    9.3480 C.ar      1 RES1    0.0000
     16 H3         4.8226    5.6703    9.3213 H         1 RES1    0.0000
     17 O4         5.0407    4.4155    7.2261 O.2       1 RES1    0.0000
     18 O5         3.1810    3.6515    6.5300 O.2       1 RES1    0.0000
     19 C8         3.1479    5.0302    8.3780 C.ar      1 RES1    0.0000
     20 C9         1.7726    5.0321    8.3727 C.ar      1 RES1    0.0000
     21 H4         1.2825    4.5823    7.6943 H         1 RES1    0.0000
     22 C10        2.3341    8.8772   12.7959 C.ar      1 RES1    0.0000
     23 H5         2.0495    9.4772   12.1164 H         1 RES1    0.0000
     24 C11        2.4403    6.6643   13.6878 C.ar      1 RES1    0.0000
     25 H6         2.2437    5.7362   13.6266 H         1 RES1    0.0000
     26 C12       -1.8932    5.6797   13.6092 C.3       1 RES1    0.0000
     27 H7        -2.5578    6.2564   14.0856 H         1 RES1    0.0000
     28 C13       -1.2092    8.0473   13.0852 C.3       1 RES1    0.0000
     29 H8        -0.4602    8.5265   12.6264 H         1 RES1    0.0000
     30 C14        3.1785    7.1538   14.7726 C.ar      1 RES1    0.0000
     31 H9         3.4757    6.5621   15.4544 H         1 RES1    0.0000
     32 C15       -2.6839    4.8295   12.6351 C.3       1 RES1    0.0000
     33 H10       -3.0263    5.3941   11.9108 H         1 RES1    0.0000
     34 H11       -3.4348    4.4084   13.1035 H         1 RES1    0.0000
     35 H12       -2.1027    4.1350   12.2612 H         1 RES1    0.0000
     36 C16        3.0751    9.3510   13.8563 C.ar      1 RES1    0.0000
     37 H13        3.3100   10.2708   13.8997 H         1 RES1    0.0000
     38 C17        3.4705    8.4985   14.8445 C.ar      1 RES1    0.0000
     39 H14        3.9528    8.8364   15.5909 H         1 RES1    0.0000
     40 C18       -2.4938    8.4360   12.3579 C.3       1 RES1    0.0000
     41 H15       -2.4092    8.2181   11.4057 H         1 RES1    0.0000
     42 H16       -2.6481    9.3987   12.4602 H         1 RES1    0.0000
     43 H17       -3.2485    7.9418   12.7399 H         1 RES1    0.0000
     44 C19       -1.2091    4.8431   14.6764 C.3       1 RES1    0.0000
     45 H18       -0.5849    4.2191   14.2518 H         1 RES1    0.0000
     46 H19       -1.8836    4.3397   15.1780 H         1 RES1    0.0000
     47 H20       -0.7181    5.4306   15.2882 H         1 RES1    0.0000
     48 C20       -1.1850    8.4803   14.5364 C.3       1 RES1    0.0000
     49 H21       -1.8962    8.0190   15.0267 H         1 RES1    0.0000
     50 H22       -1.3269    9.4492   14.5907 H         1 RES1    0.0000
     51 H23       -0.3166    8.2545   14.9296 H         1 RES1    0.0000
@<TRIPOS>BOND
     1    1    6 2
     2    2    4 2
     3    3    6 1
     4    4    5 2
     5    6    9 1
     6    7   17 2
     7    8    9 1
     8    9   10 1
     9   11    4 1
    10   12    9 1
    11   13   12 ar
    12   14   13 1
    13   15   13 ar
    14   16   15 1
    15   18    7 2
    16   19    7 1
    17   20   11 ar
    18   21   20 1
    19   22    8 ar
    20   23   22 1
    21   24    8 ar
    22   25   24 1
    23   26    3 1
    24   27   26 1
    25   28    3 1
    26   29   28 1
    27   30   24 ar
    28   31   30 1
    29   32   26 1
    30   33   32 1
    31   34   32 1
    32   35   32 1
    33   36   22 ar
    34   37   36 1
    35   38   30 ar
    36   39   38 1
    37   40   28 1
    38   41   40 1
    39   42   40 1
    40   43   40 1
    41   44   26 1
    42   45   44 1
    43   46   44 1
    44   47   44 1
    45   48   28 1
    46   49   48 1
    47   50   48 1
    48   51   48 1
    49   11   12 ar
    50   15   19 ar
    51   19   20 ar
    52   36   38 ar
@<TRIPOS>SUBSTRUCTURE
     1 RES1 1

@<TRIPOS>CRYSIN
   8.6317   14.0216   16.5617  90.0000  96.6180  90.0000  14 1

