# MOL2 file generated by ConQuest
# Please check atom types

@<TRIPOS>MOLECULE
OXALIN02
    56    60     1
SMALL
NO_CHARGES
****
Generated from CSD

@<TRIPOS>ATOM
      1 O1         1.2538    6.8216    0.5992 O.3       1 RES1    0.0000
      2 O2        -0.3053    2.7654    3.5239 O.3       1 RES1    0.0000
      3 O3         2.8811    0.3419    2.9002 O.2       1 RES1    0.0000
      4 O4         1.7313    4.4253   -0.4036 O.2       1 RES1    0.0000
      5 N1         2.3787    2.4532    3.6246 N.am      1 RES1    0.0000
      6 N2         3.2373   -0.7077    0.4931 N.pl3     1 RES1    0.0000
      7 N3         0.4764    3.9574    3.5300 N.3       1 RES1    0.0000
      8 N4         1.9456    3.4909    1.6733 N.am      1 RES1    0.0000
      9 N5         3.1702   -1.5042   -1.5779 N.2       1 RES1    0.0000
     10 C1         0.5868    4.5419    4.8309 C.ar      1 RES1    0.0000
     11 C2         1.7702    4.5419    0.8015 C.2       1 RES1    0.0000
     12 C3         2.5552    1.5215    2.6784 C.2       1 RES1    0.0000
     13 C4         3.4279   -1.7852   -0.3100 C.2       1 RES1    0.0000
     14 C5         1.8763    3.6977    3.1136 C.3       1 RES1    0.0000
     15 C6         1.8157    5.1887    4.9404 C.ar      1 RES1    0.0000
     16 C7        -0.3735    4.5644    5.8233 C.ar      1 RES1    0.0000
     17 C8         1.7193    5.8951    1.4746 C.2       1 RES1    0.0000
     18 C9         2.3029    2.1616    1.3572 C.2       1 RES1    0.0000
     19 C10        2.7707   -0.1749   -1.5920 C.2       1 RES1    0.0000
     20 C11        2.1665    6.1111    2.7050 C.2       1 RES1    0.0000
     21 C12        2.0961    5.8924    6.0957 C.ar      1 RES1    0.0000
     22 C13        2.4036    1.6514    0.1096 C.2       1 RES1    0.0000
     23 C14        2.6061    4.9859    3.6396 C.3       1 RES1    0.0000
     24 C15        1.2570    8.1667    1.0817 C.3       1 RES1    0.0000
     25 C16        1.1390    5.9043    7.1273 C.ar      1 RES1    0.0000
     26 C17        4.7628    6.3019    3.9887 C.3       1 RES1    0.0000
     27 C18        4.1641    4.8905    3.7617 C.3       1 RES1    0.0000
     28 C19       -0.0704    5.2443    6.9958 C.ar      1 RES1    0.0000
     29 C20        4.8094    4.3590    2.4577 C.3       1 RES1    0.0000
     30 C21        4.5950    4.0171    4.9467 C.2       1 RES1    0.0000
     31 C22       -1.3447    2.9064    2.5391 C.3       1 RES1    0.0000
     32 C23        5.6074    3.1742    4.9905 C.2       1 RES1    0.0000
     33 C24        2.7977    0.3340   -0.3068 C.2       1 RES1    0.0000
     34 H1         3.7126   -2.6374   -0.0016 H         1 RES1    0.0000
     35 H2        -1.2116    4.1324    5.7075 H         1 RES1    0.0000
     36 H3         2.5184    0.3115   -2.3685 H         1 RES1    0.0000
     37 H4         2.2163    7.0057    3.0197 H         1 RES1    0.0000
     38 H5         2.9179    6.3589    6.1912 H         1 RES1    0.0000
     39 H6         2.1838    2.2504   -0.5933 H         1 RES1    0.0000
     40 H7         2.1730    8.4304    1.3087 H         1 RES1    0.0000
     41 H8         0.6919    8.2290    1.8801 H         1 RES1    0.0000
     42 H9         0.9084    8.7644    0.3867 H         1 RES1    0.0000
     43 H10        1.3274    6.3735    7.9319 H         1 RES1    0.0000
     44 H11        5.7394    6.2397    4.0309 H         1 RES1    0.0000
     45 H12        4.4218    6.6704    4.8293 H         1 RES1    0.0000
     46 H13        4.5052    6.8891    3.2467 H         1 RES1    0.0000
     47 H14       -0.6951    5.2563    7.7112 H         1 RES1    0.0000
     48 H15        4.5160    3.4379    2.3012 H         1 RES1    0.0000
     49 H16        5.7849    4.3815    2.5438 H         1 RES1    0.0000
     50 H17        4.5344    4.9223    1.7047 H         1 RES1    0.0000
     51 H18        4.0742    4.0913    5.7372 H         1 RES1    0.0000
     52 H19       -0.9409    3.0469    1.6562 H         1 RES1    0.0000
     53 H20       -1.9077    3.6751    2.7661 H         1 RES1    0.0000
     54 H21       -1.8915    2.0940    2.5219 H         1 RES1    0.0000
     55 H22        6.1628    3.0589    4.2297 H         1 RES1    0.0000
     56 H23        5.7817    2.6825    5.7842 H         1 RES1    0.0000
@<TRIPOS>BOND
     1    1   17 1
     2    2    7 1
     3    3   12 2
     4    4   11 2
     5    5   12 1
     6    6   13 1
     7    7   10 1
     8    8   11 1
     9    9   13 2
    10   10   15 ar
    11   11   17 1
    12   12   18 1
    13   13   34 1
    14   14    5 1
    15   15   21 ar
    16   16   10 ar
    17   17   20 2
    18   18    8 1
    19   19    9 1
    20   20   23 1
    21   21   25 ar
    22   22   18 2
    23   23   14 1
    24   24    1 1
    25   25   28 ar
    26   26   27 1
    27   27   23 1
    28   28   16 ar
    29   29   27 1
    30   30   27 1
    31   31    2 1
    32   32   30 2
    33   33    6 1
    34   35   16 1
    35   36   19 1
    36   37   20 1
    37   38   21 1
    38   39   22 1
    39   40   24 1
    40   41   24 1
    41   42   24 1
    42   43   25 1
    43   44   26 1
    44   45   26 1
    45   46   26 1
    46   47   28 1
    47   48   29 1
    48   49   29 1
    49   50   29 1
    50   51   30 1
    51   52   31 1
    52   53   31 1
    53   54   31 1
    54   55   32 1
    55   56   32 1
    56    7   14 1
    57    8   14 1
    58   15   23 1
    59   19   33 2
    60   22   33 1
@<TRIPOS>SUBSTRUCTURE
     1 RES1 1

@<TRIPOS>CRYSIN
  10.8271   13.2533   15.6541  90.0000  90.0000  90.0000  19 1

