# MOL2 file generated by ConQuest
# Please check atom types

@<TRIPOS>MOLECULE
OXARAH
    41    44     1
SMALL
NO_CHARGES
****
Generated from CSD

@<TRIPOS>ATOM
      1 O1         3.5829    1.8583    3.3999 O.3       1 RES1    0.0000
      2 O2         4.2189    3.7954    2.4597 O.2       1 RES1    0.0000
      3 C1         0.7822    1.1403    7.3505 C.ar      1 RES1    0.0000
      4 O3         3.3117   -0.3994    6.3852 O.3       1 RES1    0.0000
      5 C2         4.3304    2.6057    2.5823 C.2       1 RES1    0.0000
      6 O4         1.0556    3.2785    6.3696 O.2       1 RES1    0.0000
      7 C3         2.2991    1.5090    5.3539 C.3       1 RES1    0.0000
      8 C4         5.4195    0.3866    2.0799 C.ar      1 RES1    0.0000
      9 H1         4.8935   -0.0122    2.7343 H         1 RES1    0.0000
     10 C5         5.3034    1.7524    1.8435 C.ar      1 RES1    0.0000
     11 C6         0.5351   -1.1124    8.1321 C.ar      1 RES1    0.0000
     12 H2         0.7103   -2.0215    8.0472 H         1 RES1    0.0000
     13 C7         2.6707    2.5298    4.2945 C.3       1 RES1    0.0000
     14 H3         1.8802    2.8269    3.8165 H         1 RES1    0.0000
     15 H4         3.0969    3.3015    4.6998 H         1 RES1    0.0000
     16 C8         7.0613    0.2291    0.3922 C.ar      1 RES1    0.0000
     17 C9         1.3401    2.0960    6.3618 C.2       1 RES1    0.0000
     18 C10       -0.2453   -0.6629    9.1771 C.ar      1 RES1    0.0000
     19 H5        -0.5932   -1.2699    9.7908 H         1 RES1    0.0000
     20 C11        1.0591   -0.2241    7.2098 C.ar      1 RES1    0.0000
     21 C12        1.6831    0.1969    4.8434 C.3       1 RES1    0.0000
     22 H6         0.7362    0.2906    4.6517 H         1 RES1    0.0000
     23 H7         2.1438   -0.1396    4.0591 H         1 RES1    0.0000
     24 C13        6.2986   -0.3801    1.3587 C.ar      1 RES1    0.0000
     25 H8         6.3757   -1.2928    1.5193 H         1 RES1    0.0000
     26 C14        6.1008    2.3394    0.8715 C.ar      1 RES1    0.0000
     27 H9         6.0424    3.2549    0.7162 H         1 RES1    0.0000
     28 C15        3.5347    0.9771    6.1268 C.3       1 RES1    0.0000
     29 H10        4.3388    1.0924    5.5967 H         1 RES1    0.0000
     30 H11        3.6444    1.4610    6.9604 H         1 RES1    0.0000
     31 N1         7.9707   -0.5984   -0.4141 N.pl3     1 RES1    0.0000
     32 C16       -0.0031    1.5799    8.4076 C.ar      1 RES1    0.0000
     33 H12       -0.1879    2.4868    8.5003 H         1 RES1    0.0000
     34 O5         8.7749   -0.0308   -1.1301 O.2       1 RES1    0.0000
     35 C17        1.9305   -0.6686    6.0605 C.3       1 RES1    0.0000
     36 H13        1.7921   -1.6171    5.8552 H         1 RES1    0.0000
     37 O6         7.8617   -1.8104   -0.3549 O.2       1 RES1    0.0000
     38 C18       -0.5111    0.6808    9.3180 C.ar      1 RES1    0.0000
     39 H14       -1.0329    0.9800   10.0264 H         1 RES1    0.0000
     40 C19        6.9768    1.5770    0.1375 C.ar      1 RES1    0.0000
     41 H15        7.5031    1.9671   -0.5217 H         1 RES1    0.0000
@<TRIPOS>BOND
     1    1    5 1
     2    2    5 2
     3    3   17 1
     4    4   28 1
     5    5   10 1
     6    6   17 2
     7    7   13 1
     8    8    9 1
     9   10    8 ar
    10   11   12 1
    11   13    1 1
    12   14   13 1
    13   15   13 1
    14   16   24 ar
    15   17    7 1
    16   18   11 ar
    17   19   18 1
    18   20    3 ar
    19   21    7 1
    20   22   21 1
    21   23   21 1
    22   24    8 ar
    23   25   24 1
    24   26   10 ar
    25   27   26 1
    26   28    7 1
    27   29   28 1
    28   30   28 1
    29   31   16 1
    30   32    3 ar
    31   33   32 1
    32   34   31 2
    33   35    4 1
    34   36   35 1
    35   37   31 2
    36   38   18 ar
    37   39   38 1
    38   40   16 ar
    39   41   40 1
    40   11   20 ar
    41   20   35 1
    42   21   35 1
    43   26   40 ar
    44   32   38 ar
@<TRIPOS>SUBSTRUCTURE
     1 RES1 1

@<TRIPOS>CRYSIN
  10.0686    7.1584   22.9392  90.0000  94.0830  90.0000  14 1

