# MOL2 file generated by ConQuest
# Please check atom types

@<TRIPOS>MOLECULE
OXAZOL
    18    19     1
SMALL
NO_CHARGES
****
Generated from CSD

@<TRIPOS>ATOM
      1 C1         0.7030    0.0957    0.0000 C.2       1 RES1    0.0000
      2 C2         1.4157    1.4400    0.0086 C.3       1 RES1    0.0000
      3 C3         2.8319    0.9932    0.0156 C.3       1 RES1    0.0000
      4 H1         1.7030    1.8483    1.0412 H         1 RES1    0.0000
      5 H2         1.0681    2.1165   -0.8871 H         1 RES1    0.0000
      6 H3         3.0768    1.1958    1.2781 H         1 RES1    0.0000
      7 H4         3.4110    1.2698   -0.6477 H         1 RES1    0.0000
      8 N1         1.4784   -0.8991    0.0249 N.2       1 RES1    0.0000
      9 O1         2.8165   -0.4646    0.0507 O.3       1 RES1    0.0000
     10 C1F       -0.7030   -0.0957    0.0000 C.2       1 RES1    0.0000
     11 C2F       -1.4157   -1.4400    0.0086 C.3       1 RES1    0.0000
     12 N1F       -1.4784    0.8991    0.0249 N.2       1 RES1    0.0000
     13 C3F       -2.8319   -0.9932    0.0156 C.3       1 RES1    0.0000
     14 H1F       -1.7030   -1.8483    1.0412 H         1 RES1    0.0000
     15 H2F       -1.0681   -2.1165   -0.8871 H         1 RES1    0.0000
     16 O1F       -2.8165    0.4646    0.0507 O.3       1 RES1    0.0000
     17 H3F       -3.0768   -1.1958    1.2781 H         1 RES1    0.0000
     18 H4F       -3.4110   -1.2698   -0.6477 H         1 RES1    0.0000
@<TRIPOS>BOND
     1    1    2 1
     2    2    3 1
     3    3    6 1
     4    4    2 1
     5    5    2 1
     6    7    3 1
     7    8    1 2
     8    9    3 1
     9   10    1 1
    10   11   10 1
    11   12   10 2
    12   13   11 1
    13   14   11 1
    14   15   11 1
    15   16   12 1
    16   17   13 1
    17   18   13 1
    18    8    9 1
    19   13   16 1
@<TRIPOS>SUBSTRUCTURE
     1 RES1 1

@<TRIPOS>CRYSIN
   8.9220   10.5000    7.0420  90.0000  90.0000  90.0000  45 1

