# MOL2 file generated by ConQuest
# Please check atom types

@<TRIPOS>MOLECULE
OXEJOR
    51    53     1
SMALL
USER_CHARGES
****
Generated from CSD

@<TRIPOS>ATOM
      1 C1         2.9500    3.2675    8.2038 C.ar      1 RES1    0.0000
      2 C2         3.6982    2.5488    9.1016 C.ar      1 RES1    0.0000
      3 H1         4.0718    2.9564    9.8489 H         1 RES1    0.0000
      4 C3         3.8798    1.2049    8.8626 C.ar      1 RES1    0.0000
      5 H2         4.3583    0.6885    9.4699 H         1 RES1    0.0000
      6 C4         3.3580    0.6175    7.7236 C.ar      1 RES1    0.0000
      7 H3         3.5116   -0.2848    7.5619 H         1 RES1    0.0000
      8 C5         2.6049    1.3570    6.8227 C.ar      1 RES1    0.0000
      9 C6         2.3880    2.7017    7.0712 C.ar      1 RES1    0.0000
     10 H4         1.8746    3.2150    6.4893 H         1 RES1    0.0000
     11 C7         2.0676    0.6638    5.5989 C.3       1 RES1    0.0000
     12 H5         2.7735    0.0872    5.2389 H         1 RES1    0.0000
     13 C8         0.7829   -0.1791    5.7460 C.3       1 RES1    0.0000
     14 H6         1.0144   -1.1139    5.9288 H         1 RES1    0.0000
     15 C9        -0.1795    0.3489    6.8360 C.3       1 RES1    0.0000
     16 H7         0.2867    0.3342    7.6858 H         1 RES1    0.0000
     17 H8        -0.3862    1.2752    6.6348 H         1 RES1    0.0000
     18 C10       -1.4979   -0.4107    6.9995 C.3       1 RES1    0.0000
     19 H9        -2.0932    0.1166    7.5565 H         1 RES1    0.0000
     20 H10       -1.9156   -0.5010    6.1300 H         1 RES1    0.0000
     21 C11       -1.3546   -1.7785    7.6104 C.3       1 RES1    0.0000
     22 H11       -0.9860   -1.6835    8.5033 H         1 RES1    0.0000
     23 H12       -0.7192   -2.2887    7.0840 H         1 RES1    0.0000
     24 C12       -2.6626   -2.5658    7.7002 C.3       1 RES1    0.0000
     25 H13       -2.5551   -3.2497    8.3793 H         1 RES1    0.0000
     26 H14       -3.3557   -1.9614    8.0074 H         1 RES1    0.0000
     27 C13       -3.1166   -3.1879    6.5252 C.3       1 RES1    0.0000
     28 H15       -3.3183   -2.4817    5.8928 H         1 RES1    0.0000
     29 H16       -3.9591   -3.6171    6.7426 H         1 RES1    0.0000
     30 C14       -2.2627   -4.2316    5.7761 C.3       1 RES1    0.0000
     31 H17       -1.3287   -4.0911    6.0006 H         1 RES1    0.0000
     32 H18       -2.5089   -5.1177    6.0833 H         1 RES1    0.0000
     33 C15       -2.4108   -4.1798    4.3334 C.3       1 RES1    0.0000
     34 H19       -3.3535   -4.3149    4.1519 H         1 RES1    0.0000
     35 H20       -1.9510   -4.9602    3.9848 H         1 RES1    0.0000
     36 C16       -1.9945   -3.0583    3.4998 C.3       1 RES1    0.0000
     37 H21       -2.7234   -2.4191    3.4692 H         1 RES1    0.0000
     38 H22       -1.8587   -3.3871    2.5979 H         1 RES1    0.0000
     39 C17       -0.7357   -2.3211    3.9309 C.3       1 RES1    0.0000
     40 H23       -0.6217   -2.4307    4.8867 H         1 RES1    0.0000
     41 H24        0.0294   -2.7294    3.4944 H         1 RES1    0.0000
     42 C18       -0.7493   -0.8707    3.6130 C.3       1 RES1    0.0000
     43 H25       -1.6332   -0.5226    3.8088 H         1 RES1    0.0000
     44 H26       -0.5972   -0.7642    2.6608 H         1 RES1    0.0000
     45 C19        0.2515   -0.0448    4.3422 C.2       1 RES1    0.0000
     46 N1         2.6949    4.6847    8.4814 N.pl3     1 RES1    0.0000
     47 N2         0.7499    0.9927    3.7685 N.pl3     1 RES1    1.0000
     48 O1         3.3403    5.2242    9.3674 O.2       1 RES1    0.0000
     49 O2         1.8522    5.2636    7.8166 O.2       1 RES1    0.0000
     50 O3         1.7354    1.6557    4.5971 O.3       1 RES1    0.0000
     51 O4         0.5575    1.5376    2.6564 O.2       1 RES1   -1.0000
@<TRIPOS>BOND
     1    1    2 ar
     2    2    3 1
     3    4    2 ar
     4    5    4 1
     5    6    4 ar
     6    7    6 1
     7    8    6 ar
     8    9    1 ar
     9   10    9 1
    10   11    8 1
    11   12   11 1
    12   13   11 1
    13   14   13 1
    14   15   13 1
    15   16   15 1
    16   17   15 1
    17   18   15 1
    18   19   18 1
    19   20   18 1
    20   21   18 1
    21   22   21 1
    22   23   21 1
    23   24   21 1
    24   25   24 1
    25   26   24 1
    26   27   24 1
    27   28   27 1
    28   29   27 1
    29   30   27 1
    30   31   30 1
    31   32   30 1
    32   33   30 1
    33   34   33 1
    34   35   33 1
    35   36   33 1
    36   37   36 1
    37   38   36 1
    38   39   36 1
    39   40   39 1
    40   41   39 1
    41   42   39 1
    42   43   42 1
    43   44   42 1
    44   45   13 1
    45   46    1 1
    46   47   45 2
    47   48   46 2
    48   49   46 2
    49   50   11 1
    50   51   47 1
    51    8    9 ar
    52   42   45 1
    53   47   50 1
@<TRIPOS>SUBSTRUCTURE
     1 RES1 1

@<TRIPOS>CRYSIN
  13.0697    7.7190   18.1460  90.0000  98.0780  90.0000 231 1

