# MOL2 file generated by ConQuest
# Please check atom types

@<TRIPOS>MOLECULE
OXEKAE
    51    53     1
SMALL
USER_CHARGES
****
Generated from CSD

@<TRIPOS>ATOM
      1 C1         3.3245    2.7431   10.8275 C.ar      1 RES1    0.0000
      2 C2         4.6799    2.9542   10.9445 C.ar      1 RES1    0.0000
      3 H1         5.0795    3.1201   11.7902 H         1 RES1    0.0000
      4 C3         5.4339    2.9180    9.8042 C.ar      1 RES1    0.0000
      5 H2         6.3712    3.0627    9.8573 H         1 RES1    0.0000
      6 C4         4.8480    2.6745    8.5676 C.ar      1 RES1    0.0000
      7 H3         5.3862    2.6581    7.7847 H         1 RES1    0.0000
      8 C5         3.4846    2.4555    8.4712 C.ar      1 RES1    0.0000
      9 C6         2.7089    2.4860    9.6180 C.ar      1 RES1    0.0000
     10 H4         1.7715    2.3333    9.5746 H         1 RES1    0.0000
     11 C7         2.8545    2.1657    7.1350 C.3       1 RES1    0.0000
     12 H5         3.4556    2.4992    6.4094 H         1 RES1    0.0000
     13 C8         2.5279    0.6720    6.8799 C.3       1 RES1    0.0000
     14 H6         2.4555    0.2047    7.7609 H         1 RES1    0.0000
     15 C9         3.5785   -0.0455    6.0274 C.3       1 RES1    0.0000
     16 H7         4.4276   -0.0769    6.5340 H         1 RES1    0.0000
     17 H8         3.2824   -0.9790    5.8821 H         1 RES1    0.0000
     18 C10        3.8457    0.5993    4.6669 C.3       1 RES1    0.0000
     19 H9         3.0205    1.0495    4.3585 H         1 RES1    0.0000
     20 H10        4.5452    1.2916    4.7732 H         1 RES1    0.0000
     21 C11        4.2934   -0.3913    3.5994 C.3       1 RES1    0.0000
     22 H11        3.6695   -1.1602    3.5973 H         1 RES1    0.0000
     23 H12        5.1906   -0.7342    3.8409 H         1 RES1    0.0000
     24 C12        4.3562    0.1947    2.1830 C.3       1 RES1    0.0000
     25 H13        5.0203    0.9277    2.1755 H         1 RES1    0.0000
     26 H14        4.6809   -0.5085    1.5658 H         1 RES1    0.0000
     27 C13        3.0326    0.7328    1.6524 C.3       1 RES1    0.0000
     28 H15        3.1975    1.1691    0.7797 H         1 RES1    0.0000
     29 H16        2.7015    1.4260    2.2762 H         1 RES1    0.0000
     30 C14        1.9342   -0.3277    1.4694 C.3       1 RES1    0.0000
     31 H17        1.9404   -0.6312    0.5274 H         1 RES1    0.0000
     32 H18        2.1509   -1.1087    2.0379 H         1 RES1    0.0000
     33 C15        0.5258    0.1543    1.8181 C.3       1 RES1    0.0000
     34 H19       -0.1211   -0.5539    1.5723 H         1 RES1    0.0000
     35 H20        0.3191    0.9521    1.2702 H         1 RES1    0.0000
     36 C16        0.3241    0.5096    3.2930 C.3       1 RES1    0.0000
     37 H21        0.9398    1.2475    3.5312 H         1 RES1    0.0000
     38 H22       -0.6016    0.8359    3.4197 H         1 RES1    0.0000
     39 C17        0.5673   -0.6567    4.2405 C.3       1 RES1    0.0000
     40 H23        1.5045   -0.9579    4.1430 H         1 RES1    0.0000
     41 H24       -0.0199   -1.4097    3.9773 H         1 RES1    0.0000
     42 C18        0.3072   -0.3191    5.7110 C.3       1 RES1    0.0000
     43 H25       -0.6419   -0.0573    5.8106 H         1 RES1    0.0000
     44 H26        0.4482   -1.1382    6.2503 H         1 RES1    0.0000
     45 C19        1.1596    0.7676    6.2708 C.2       1 RES1    0.0000
     46 N1         2.5035    2.7977   12.0425 N.pl3     1 RES1    0.0000
     47 N2         0.6736    1.9566    6.4057 N.pl3     1 RES1    1.0000
     48 O1         1.2794    2.6443   11.9093 O.2       1 RES1    0.0000
     49 O2         3.0542    3.0112   13.0983 O.2       1 RES1    0.0000
     50 O3        -0.4391    2.4606    6.1241 O.2       1 RES1   -1.0000
     51 O4         1.5850    2.8631    7.0612 O.3       1 RES1    0.0000
@<TRIPOS>BOND
     1    1    2 ar
     2    2    3 1
     3    4    2 ar
     4    5    4 1
     5    6    4 ar
     6    7    6 1
     7    8    6 ar
     8    9    1 ar
     9   10    9 1
    10   11    8 1
    11   12   11 1
    12   13   11 1
    13   14   13 1
    14   15   13 1
    15   16   15 1
    16   17   15 1
    17   18   15 1
    18   19   18 1
    19   20   18 1
    20   21   18 1
    21   22   21 1
    22   23   21 1
    23   24   21 1
    24   25   24 1
    25   26   24 1
    26   27   24 1
    27   28   27 1
    28   29   27 1
    29   30   27 1
    30   31   30 1
    31   32   30 1
    32   33   30 1
    33   34   33 1
    34   35   33 1
    35   36   33 1
    36   37   36 1
    37   38   36 1
    38   39   36 1
    39   40   39 1
    40   41   39 1
    41   42   39 1
    42   43   42 1
    43   44   42 1
    44   45   13 1
    45   46    1 1
    46   47   45 2
    47   48   46 2
    48   49   46 2
    49   50   47 1
    50   51   11 1
    51    8    9 ar
    52   42   45 1
    53   47   51 1
@<TRIPOS>SUBSTRUCTURE
     1 RES1 1

@<TRIPOS>CRYSIN
   7.5626   10.9151   11.7483 108.6670  98.9220 100.8220   2 1

