# MOL2 file generated by ConQuest
# Please check atom types

@<TRIPOS>MOLECULE
OXINEQ
    31    32     1
SMALL
NO_CHARGES
****
Generated from CSD

@<TRIPOS>ATOM
      1 O1        -0.3329    2.6574    3.6437 O.3       1 RES1    0.0000
      2 O2         1.1974    3.7537    7.8274 O.2       1 RES1    0.0000
      3 O3         3.0040    3.9438    6.6517 O.2       1 RES1    0.0000
      4 O4         4.5784    1.9665    8.0846 O.2       1 RES1    0.0000
      5 O5         4.2503    1.1063    6.1406 O.2       1 RES1    0.0000
      6 N1         1.0212    2.1164    5.4011 N.ar      1 RES1    0.0000
      7 N2         3.8757    1.6130    7.1671 N.pl3     1 RES1    0.0000
      8 N3         2.1843    3.3115    7.2862 N.pl3     1 RES1    0.0000
      9 N4         0.1491   -3.0368    4.4943 N.1       1 RES1    0.0000
     10 N5        -1.6760   -0.2705    2.3051 N.1       1 RES1    0.0000
     11 C1         0.2519    1.7320    4.4091 C.ar      1 RES1    0.0000
     12 C2        -0.0179    0.3878    4.1442 C.ar      1 RES1    0.0000
     13 C3         0.6166   -0.5536    4.9592 C.ar      1 RES1    0.0000
     14 C4         1.4586   -0.1792    6.0083 C.ar      1 RES1    0.0000
     15 C5         1.5928    1.1993    6.1867 C.ar      1 RES1    0.0000
     16 C6         2.3676    1.7889    7.3560 C.3       1 RES1    0.0000
     17 C7         1.9604    1.3199    8.7414 C.3       1 RES1    0.0000
     18 H1         0.9951    1.3752    8.8089 H         1 RES1    0.0000
     19 H2         2.3316    1.9355    9.3926 H         1 RES1    0.0000
     20 C8         2.3865   -0.0955    9.1234 C.3       1 RES1    0.0000
     21 H3         3.3494   -0.1608    9.0295 H         1 RES1    0.0000
     22 H4         2.1767   -0.2362   10.0592 H         1 RES1    0.0000
     23 C9         1.7498   -1.2068    8.3175 C.3       1 RES1    0.0000
     24 H5         0.7858   -1.1239    8.3817 H         1 RES1    0.0000
     25 H6         1.9973   -2.0577    8.7119 H         1 RES1    0.0000
     26 C10        2.1400   -1.2194    6.8481 C.3       1 RES1    0.0000
     27 H7         3.0989   -1.0913    6.7823 H         1 RES1    0.0000
     28 H8         1.9368   -2.0946    6.4819 H         1 RES1    0.0000
     29 C11        0.3601   -1.9472    4.7052 C.1       1 RES1    0.0000
     30 C12       -0.9258    0.0168    3.1095 C.1       1 RES1    0.0000
     31 H9        -0.0089    3.4254    3.9436 H         1 RES1    0.0000
@<TRIPOS>BOND
     1    1   11 1
     2    2    8 2
     3    3    8 2
     4    4    7 2
     5    5    7 2
     6    6   11 ar
     7    7   16 1
     8    8   16 1
     9    9   29 3
    10   10   30 3
    11   11   12 ar
    12   12   13 ar
    13   13   14 ar
    14   14   15 ar
    15   15    6 ar
    16   16   15 1
    17   17   16 1
    18   18   17 1
    19   19   17 1
    20   20   17 1
    21   21   20 1
    22   22   20 1
    23   23   20 1
    24   24   23 1
    25   25   23 1
    26   26   14 1
    27   27   26 1
    28   28   26 1
    29   29   13 1
    30   30   12 1
    31   31    1 1
    32   23   26 1
@<TRIPOS>SUBSTRUCTURE
     1 RES1 1

@<TRIPOS>CRYSIN
  20.3460    8.3750   18.7730  90.0000 123.5300  90.0000  15 1

