# MOL2 file generated by ConQuest
# Please check atom types

@<TRIPOS>MOLECULE
OYAJOO
    54    58     1
SMALL
NO_CHARGES
****
Generated from CSD

@<TRIPOS>ATOM
      1 C1         9.3894    5.4153    5.8362 C.ar      1 RES1    0.0000
      2 C2         8.9181    5.6332    4.5678 C.ar      1 RES1    0.0000
      3 H1         9.1840    6.4023    4.0782 H         1 RES1    0.0000
      4 C3         8.0527    4.7176    4.0201 C.ar      1 RES1    0.0000
      5 H2         7.7167    4.8580    3.1422 H         1 RES1    0.0000
      6 C4         7.6613    3.5799    4.7359 C.ar      1 RES1    0.0000
      7 C5         8.1850    3.3966    6.0178 C.ar      1 RES1    0.0000
      8 H3         7.9448    2.6232    6.5140 H         1 RES1    0.0000
      9 C6         9.0420    4.3188    6.5725 C.ar      1 RES1    0.0000
     10 H4         9.3856    4.1954    7.4501 H         1 RES1    0.0000
     11 C7         6.7840    2.5821    4.1263 C.2       1 RES1    0.0000
     12 C8         5.1881    2.3213    6.0864 C.3       1 RES1    0.0000
     13 H5         4.2111    2.1978    5.9816 H         1 RES1    0.0000
     14 H6         5.3568    3.2925    6.1765 H         1 RES1    0.0000
     15 C9         5.6176    1.6460    7.3485 C.ar      1 RES1    0.0000
     16 C10        5.3910    2.2940    8.5497 C.ar      1 RES1    0.0000
     17 H7         4.9674    3.1443    8.5566 H         1 RES1    0.0000
     18 C11        5.7793    1.7131    9.7394 C.ar      1 RES1    0.0000
     19 H8         5.6284    2.1700   10.5575 H         1 RES1    0.0000
     20 C12        6.3810    0.4762    9.7460 C.ar      1 RES1    0.0000
     21 H9         6.6406    0.0769   10.5679 H         1 RES1    0.0000
     22 C13        6.6070   -0.1767    8.5646 C.ar      1 RES1    0.0000
     23 H10        7.0235   -1.0305    8.5636 H         1 RES1    0.0000
     24 C14        6.2259    0.4103    7.3767 C.ar      1 RES1    0.0000
     25 H11        6.3863   -0.0472    6.5593 H         1 RES1    0.0000
     26 C15        5.3051    0.8823    4.0407 C.ar      1 RES1    0.0000
     27 C16        4.3596   -0.0920    4.3378 C.ar      1 RES1    0.0000
     28 H12        3.9451   -0.1349    5.1917 H         1 RES1    0.0000
     29 C17        4.0486   -0.9888    3.3464 C.ar      1 RES1    0.0000
     30 H13        3.4062   -1.6659    3.5215 H         1 RES1    0.0000
     31 C18        4.6501   -0.9355    2.0812 C.ar      1 RES1    0.0000
     32 H14        4.4279   -1.5842    1.4232 H         1 RES1    0.0000
     33 C19        5.5608    0.0502    1.7900 C.ar      1 RES1    0.0000
     34 H15        5.9624    0.0956    0.9291 H         1 RES1    0.0000
     35 C20        5.8891    0.9833    2.7713 C.ar      1 RES1    0.0000
     36 C21        6.7903    2.0726    2.8614 C.2       1 RES1    0.0000
     37 C22        8.3890    1.8081    1.1229 C.2       1 RES1    0.0000
     38 C23        8.8169    2.4199   -0.1493 C.ar      1 RES1    0.0000
     39 C24        8.3436    3.6520   -0.5822 C.ar      1 RES1    0.0000
     40 H16        7.7424    4.1488   -0.0383 H         1 RES1    0.0000
     41 C25        8.7485    4.1530   -1.8035 C.ar      1 RES1    0.0000
     42 H17        8.4197    4.9923   -2.1018 H         1 RES1    0.0000
     43 C26        9.6230    3.4468   -2.5875 C.ar      1 RES1    0.0000
     44 H18        9.9000    3.7996   -3.4240 H         1 RES1    0.0000
     45 C27       10.0973    2.2402   -2.1689 C.ar      1 RES1    0.0000
     46 H19       10.7012    1.7543   -2.7177 H         1 RES1    0.0000
     47 C28        9.7015    1.7161   -0.9451 C.ar      1 RES1    0.0000
     48 H20       10.0382    0.8756   -0.6577 H         1 RES1    0.0000
     49 N1        10.2786    6.4138    6.4444 N.pl3     1 RES1    0.0000
     50 N2         5.8507    1.8456    4.8653 N.pl3     1 RES1    0.0000
     51 O1        10.3528    6.4489    7.6571 O.2       1 RES1    0.0000
     52 O2        10.9085    7.1569    5.7050 O.2       1 RES1    0.0000
     53 O3         7.5249    2.6202    1.8053 O.3       1 RES1    0.0000
     54 O4         8.7054    0.7249    1.5279 O.2       1 RES1    0.0000
@<TRIPOS>BOND
     1    1    2 ar
     2    2    3 1
     3    4    2 ar
     4    5    4 1
     5    6    4 ar
     6    7    6 ar
     7    8    7 1
     8    9    1 ar
     9   10    9 1
    10   11    6 1
    11   12   13 1
    12   14   12 1
    13   15   12 1
    14   16   15 ar
    15   17   16 1
    16   18   16 ar
    17   19   18 1
    18   20   18 ar
    19   21   20 1
    20   22   20 ar
    21   23   22 1
    22   24   15 ar
    23   25   24 1
    24   26   27 ar
    25   27   28 1
    26   29   27 ar
    27   30   29 1
    28   31   29 ar
    29   32   31 1
    30   33   31 ar
    31   34   33 1
    32   35   26 ar
    33   36   11 2
    34   37   38 1
    35   38   39 ar
    36   39   40 1
    37   41   39 ar
    38   42   41 1
    39   43   41 ar
    40   44   43 1
    41   45   43 ar
    42   46   45 1
    43   47   38 ar
    44   48   47 1
    45   49    1 1
    46   50   11 1
    47   51   49 2
    48   52   49 2
    49   53   36 1
    50   54   37 2
    51    7    9 ar
    52   12   50 1
    53   22   24 ar
    54   26   50 1
    55   33   35 ar
    56   35   36 1
    57   37   53 1
    58   45   47 ar
@<TRIPOS>SUBSTRUCTURE
     1 RES1 1

@<TRIPOS>CRYSIN
  10.6470    6.0513   35.1190  90.0000  97.7620  90.0000  14 1

