# MOL2 file generated by ConQuest
# Please check atom types

@<TRIPOS>MOLECULE
OYEKUZ
    39    40     1
SMALL
NO_CHARGES
****
Generated from CSD

@<TRIPOS>ATOM
      1 O1         4.3837    1.7041    7.9358 O.2       1 RES1    0.0000
      2 N1         4.0694    2.6851    8.6915 N.pl3     1 RES1    0.0000
      3 C1         4.1550    4.1159    8.2481 C.3       1 RES1    0.0000
      4 N2         3.4089    3.8166   10.4591 N.pl3     1 RES1    0.0000
      5 O2         3.0512    4.0761   11.6534 O.2       1 RES1    0.0000
      6 C2         3.6390    4.2647    6.8488 C.3       1 RES1    0.0000
      7 H1         2.6955    4.0398    6.8261 H         1 RES1    0.0000
      8 H2         4.1280    3.6695    6.2588 H         1 RES1    0.0000
      9 H3         3.7594    5.1816    6.5556 H         1 RES1    0.0000
     10 O3         4.1329    0.2497   10.2696 O.3       1 RES1    0.0000
     11 N3         4.0661   -0.7509   11.2517 N.2       1 RES1    0.0000
     12 C3         5.6439    4.4775    8.3160 C.3       1 RES1    0.0000
     13 H4         5.9583    4.3823    9.2291 H         1 RES1    0.0000
     14 H5         5.7675    5.3945    8.0252 H         1 RES1    0.0000
     15 H6         6.1478    3.8841    7.7368 H         1 RES1    0.0000
     16 O4         3.6490   -2.1107   13.6618 O.2       1 RES1    0.0000
     17 C4         3.3554    4.8322    9.3625 C.3       1 RES1    0.0000
     18 O5         3.0682   -0.1358   14.5558 O.3       1 RES1    0.0000
     19 C5         3.8825    6.1332    9.8763 C.3       1 RES1    0.0000
     20 H7         4.8276    6.0450   10.0741 H         1 RES1    0.0000
     21 H8         3.4049    6.3806   10.6832 H         1 RES1    0.0000
     22 H9         3.7570    6.8218    9.2028 H         1 RES1    0.0000
     23 C6         1.8621    4.9913    9.0205 C.3       1 RES1    0.0000
     24 H10        1.4073    5.4325    9.7547 H         1 RES1    0.0000
     25 H11        1.4691    4.1159    8.8762 H         1 RES1    0.0000
     26 H12        1.7696    5.5225    8.2147 H         1 RES1    0.0000
     27 C7         3.7274    2.5917    9.9943 C.2       1 RES1    0.0000
     28 C8         3.7168    1.4273   10.8179 C.2       1 RES1    0.0000
     29 C9         3.3579    1.2284   12.1040 C.2       1 RES1    0.0000
     30 H13        3.0181    1.8581   12.7142 H         1 RES1    0.0000
     31 C10        3.6093   -0.1436   12.3233 C.2       1 RES1    0.0000
     32 C11        3.4464   -0.9429   13.5748 C.2       1 RES1    0.0000
     33 C12        2.9290   -0.7509   15.8859 C.3       1 RES1    0.0000
     34 H14        2.1499   -1.3460   15.8979 H         1 RES1    0.0000
     35 H15        3.7259   -1.2837   16.0909 H         1 RES1    0.0000
     36 C13        2.7698    0.2682   16.8514 C.3       1 RES1    0.0000
     37 H16        2.6898   -0.1315   17.7322 H         1 RES1    0.0000
     38 H17        1.9695    0.7785   16.6547 H         1 RES1    0.0000
     39 H18        3.5414    0.8547   16.8323 H         1 RES1    0.0000
@<TRIPOS>BOND
     1    1    2 1
     2    2    3 1
     3    3    6 1
     4    4    5 1
     5    6    7 1
     6    8    6 1
     7    9    6 1
     8   10   11 1
     9   11   31 2
    10   12    3 1
    11   13   12 1
    12   14   12 1
    13   15   12 1
    14   16   32 2
    15   17    3 1
    16   18   32 1
    17   19   17 1
    18   20   19 1
    19   21   19 1
    20   22   19 1
    21   23   17 1
    22   24   23 1
    23   25   23 1
    24   26   23 1
    25   27    2 1
    26   28   10 1
    27   29   28 2
    28   30   29 1
    29   31   29 1
    30   32   31 1
    31   33   18 1
    32   34   33 1
    33   35   33 1
    34   36   33 1
    35   37   36 1
    36   38   36 1
    37   39   36 1
    38    4   17 1
    39    4   27 2
    40   27   28 1
@<TRIPOS>SUBSTRUCTURE
     1 RES1 1

@<TRIPOS>CRYSIN
   7.1780   17.3010   12.0460  90.0000  98.3200  90.0000 231 1

