# MOL2 file generated by ConQuest
# Please check atom types

@<TRIPOS>MOLECULE
OYELIO
    50    53     1
SMALL
NO_CHARGES
****
Generated from CSD

@<TRIPOS>ATOM
      1 N1         2.1929   14.7698   -1.4394 N.pl3     1 RES1    0.0000
      2 C1         3.1803   14.9167   -2.5450 C.3       1 RES1    0.0000
      3 O1         1.0087   14.3812   -1.5946 O.2       1 RES1    0.0000
      4 N2         3.9853   15.4601   -0.3341 N.2       1 RES1    0.0000
      5 C2         2.5469   15.5992   -3.7160 C.3       1 RES1    0.0000
      6 H1         1.8700   15.0192   -4.1016 H         1 RES1    0.0000
      7 H2         3.2238   15.7935   -4.3831 H         1 RES1    0.0000
      8 H3         2.1346   16.4275   -3.4243 H         1 RES1    0.0000
      9 N3         1.6200   15.3071    3.2725 N.ar      1 RES1    0.0000
     10 C3         3.5733   13.4970   -2.9421 C.3       1 RES1    0.0000
     11 H4         2.8349   13.0748   -3.4091 H         1 RES1    0.0000
     12 H5         3.7867   12.9857   -2.1459 H         1 RES1    0.0000
     13 H6         4.3496   13.5262   -3.5232 H         1 RES1    0.0000
     14 N4         1.5169   14.0076    3.5719 N.ar      1 RES1    0.0000
     15 C4         4.2892   15.6838   -1.7890 C.3       1 RES1    0.0000
     16 N5         1.9831   13.4026    1.3264 N.ar      1 RES1    0.0000
     17 C5         5.6994   15.1799   -2.0778 C.3       1 RES1    0.0000
     18 H7         6.3395   15.7058   -1.5733 H         1 RES1    0.0000
     19 H8         5.8863   15.2661   -3.0267 H         1 RES1    0.0000
     20 H9         5.7693   14.2479   -1.8187 H         1 RES1    0.0000
     21 C6         4.2312   17.1895   -1.9886 C.3       1 RES1    0.0000
     22 H10        4.9520   17.6093   -1.4934 H         1 RES1    0.0000
     23 H11        3.3803   17.5261   -1.6665 H         1 RES1    0.0000
     24 H12        4.3248   17.3946   -2.9316 H         1 RES1    0.0000
     25 C7         2.8063   15.0056   -0.2376 C.2       1 RES1    0.0000
     26 C8         2.1501   14.6804    1.0612 C.ar      1 RES1    0.0000
     27 C9         1.8602   15.6743    2.0089 C.ar      1 RES1    0.0000
     28 C10        1.8004   17.1164    1.7099 C.ar      1 RES1    0.0000
     29 C11        1.2289   17.5617    0.5363 C.ar      1 RES1    0.0000
     30 H13        0.8626   16.9402   -0.0647 H         1 RES1    0.0000
     31 C12        1.1876   18.9104    0.2319 C.ar      1 RES1    0.0000
     32 H14        0.8027   19.1988   -0.5764 H         1 RES1    0.0000
     33 C13        1.7052   19.8208    1.1047 C.ar      1 RES1    0.0000
     34 H15        1.6887   20.7370    0.8941 H         1 RES1    0.0000
     35 C14        2.2486   19.4024    2.2874 C.ar      1 RES1    0.0000
     36 H16        2.5864   20.0358    2.8955 H         1 RES1    0.0000
     37 C15        2.3065   18.0574    2.5987 C.ar      1 RES1    0.0000
     38 H17        2.6887   17.7788    3.4110 H         1 RES1    0.0000
     39 C16        1.5931   13.1106    2.5821 C.ar      1 RES1    0.0000
     40 C17        1.3126   11.7016    2.9166 C.ar      1 RES1    0.0000
     41 C18        1.6676   10.6844    2.0561 C.ar      1 RES1    0.0000
     42 H18        2.0893   10.8922    1.2423 H         1 RES1    0.0000
     43 C19        1.4118    9.3633    2.3748 C.ar      1 RES1    0.0000
     44 H19        1.6697    8.6790    1.7845 H         1 RES1    0.0000
     45 C20        0.7838    9.0542    3.5480 C.ar      1 RES1    0.0000
     46 H20        0.5994    8.1575    3.7629 H         1 RES1    0.0000
     47 C21        0.4220   10.0610    4.4120 C.ar      1 RES1    0.0000
     48 H21       -0.0088    9.8463    5.2202 H         1 RES1    0.0000
     49 C22        0.6832   11.3780    4.1094 C.ar      1 RES1    0.0000
     50 H22        0.4357   12.0566    4.7103 H         1 RES1    0.0000
@<TRIPOS>BOND
     1    1    2 1
     2    2    5 1
     3    3    1 1
     4    4   15 1
     5    5    6 1
     6    7    5 1
     7    8    5 1
     8    9   14 ar
     9   10    2 1
    10   11   10 1
    11   12   10 1
    12   13   10 1
    13   14   39 ar
    14   15    2 1
    15   16   26 ar
    16   17   15 1
    17   18   17 1
    18   19   17 1
    19   20   17 1
    20   21   15 1
    21   22   21 1
    22   23   21 1
    23   24   21 1
    24   25    1 1
    25   26   25 1
    26   27    9 ar
    27   28   27 1
    28   29   28 ar
    29   30   29 1
    30   31   29 ar
    31   32   31 1
    32   33   31 ar
    33   34   33 1
    34   35   33 ar
    35   36   35 1
    36   37   28 ar
    37   38   37 1
    38   39   16 ar
    39   40   39 1
    40   41   40 ar
    41   42   41 1
    42   43   41 ar
    43   44   43 1
    44   45   43 ar
    45   46   45 1
    46   47   45 ar
    47   48   47 1
    48   49   40 ar
    49   50   49 1
    50    4   25 2
    51   26   27 ar
    52   35   37 ar
    53   47   49 ar
@<TRIPOS>SUBSTRUCTURE
     1 RES1 1

@<TRIPOS>CRYSIN
  14.6206   14.6087   19.0240  90.0000  90.0000  90.0000  61 1

