# MOL2 file generated by ConQuest
# Please check atom types

@<TRIPOS>MOLECULE
OYEQEP
    59    62     1
SMALL
NO_CHARGES
****
Generated from CSD

@<TRIPOS>ATOM
      1 N1         2.9167    2.2509    2.4959 N.2       1 RES1    0.0000
      2 N2        -1.7519   -1.3681    2.2602 N.ar      1 RES1    0.0000
      3 N3         4.8553    3.1092   -2.9113 N.pl3     1 RES1    0.0000
      4 O1         4.4482    5.7822    0.9081 O.3       1 RES1    0.0000
      5 O2         2.9192    8.0875    0.8160 O.3       1 RES1    0.0000
      6 O3         0.3482    8.0435    1.5098 O.3       1 RES1    0.0000
      7 O4         4.2497    4.1480   -3.1395 O.2       1 RES1    0.0000
      8 O5         5.1878    2.3175   -3.7594 O.2       1 RES1    0.0000
      9 O6         7.1763    1.7410   -2.0964 O.3       1 RES1    0.0000
     10 C1         3.1251    5.7284    1.2650 C.ar      1 RES1    0.0000
     11 C2         2.3534    6.8874    1.2008 C.ar      1 RES1    0.0000
     12 C3         1.0152    6.8617    1.5838 C.ar      1 RES1    0.0000
     13 C4         0.4565    5.6782    2.0341 C.ar      1 RES1    0.0000
     14 H1        -0.4311    5.6626    2.3142 H         1 RES1    0.0000
     15 C5         1.2115    4.5133    2.0711 C.ar      1 RES1    0.0000
     16 C6         2.5495    4.5164    1.6685 C.ar      1 RES1    0.0000
     17 C7         3.2734    3.2134    1.7269 C.2       1 RES1    0.0000
     18 C8         1.7239    2.4753    3.3125 C.3       1 RES1    0.0000
     19 H2         1.9666    2.9970    4.0932 H         1 RES1    0.0000
     20 H3         1.3815    1.6210    3.6191 H         1 RES1    0.0000
     21 C9         0.6314    3.2057    2.5416 C.3       1 RES1    0.0000
     22 H4        -0.1159    3.3904    3.1480 H         1 RES1    0.0000
     23 C10        4.3741    2.9109    0.7693 C.ar      1 RES1    0.0000
     24 C11        4.2240    3.2177   -0.5718 C.ar      1 RES1    0.0000
     25 H5         3.4912    3.7192   -0.8487 H         1 RES1    0.0000
     26 C12        5.1433    2.7921   -1.5016 C.ar      1 RES1    0.0000
     27 C13        6.2869    2.0805   -1.1299 C.ar      1 RES1    0.0000
     28 C14        6.4473    1.8094    0.2210 C.ar      1 RES1    0.0000
     29 H6         7.2064    1.3554    0.5083 H         1 RES1    0.0000
     30 C15        5.5018    2.2001    1.1459 C.ar      1 RES1    0.0000
     31 H7         5.6240    1.9821    2.0422 H         1 RES1    0.0000
     32 C16        0.1028    2.4144    1.3226 C.3       1 RES1    0.0000
     33 H8        -0.5379    2.9674    0.8487 H         1 RES1    0.0000
     34 H9         0.8434    2.2413    0.7208 H         1 RES1    0.0000
     35 C17       -0.5530    1.1060    1.6675 C.ar      1 RES1    0.0000
     36 C18        0.1822   -0.0642    1.7572 C.ar      1 RES1    0.0000
     37 H10        1.1006   -0.0490    1.6141 H         1 RES1    0.0000
     38 C19       -0.4474   -1.2454    2.0570 C.ar      1 RES1    0.0000
     39 H11        0.0761   -2.0118    2.1224 H         1 RES1    0.0000
     40 C20       -2.4474   -0.2401    2.1892 C.ar      1 RES1    0.0000
     41 H12       -3.3641   -0.2850    2.3364 H         1 RES1    0.0000
     42 C21       -1.8959    0.9976    1.9090 C.ar      1 RES1    0.0000
     43 H13       -2.4366    1.7539    1.8846 H         1 RES1    0.0000
     44 C22        5.3112    6.4790    1.7951 C.3       1 RES1    0.0000
     45 H14        4.8380    7.2140    2.1908 H         1 RES1    0.0000
     46 H15        6.0698    6.8104    1.3094 H         1 RES1    0.0000
     47 H16        5.6093    5.8819    2.4851 H         1 RES1    0.0000
     48 C23        3.2285    8.1838   -0.5695 C.3       1 RES1    0.0000
     49 H17        3.7831    7.4436   -0.8264 H         1 RES1    0.0000
     50 H18        3.6950    9.0066   -0.7372 H         1 RES1    0.0000
     51 H19        2.4160    8.1670   -1.0805 H         1 RES1    0.0000
     52 C24       -0.9943    8.0511    1.9774 C.3       1 RES1    0.0000
     53 H20       -1.5271    7.4668    1.4328 H         1 RES1    0.0000
     54 H21       -1.3453    8.9434    1.9277 H         1 RES1    0.0000
     55 H22       -1.0177    7.7479    2.8879 H         1 RES1    0.0000
     56 C25        8.4172    1.1746   -1.6869 C.3       1 RES1    0.0000
     57 H23        8.8711    1.7861   -1.1028 H         1 RES1    0.0000
     58 H24        8.9628    1.0059   -2.4598 H         1 RES1    0.0000
     59 H25        8.2557    0.3495   -1.2232 H         1 RES1    0.0000
@<TRIPOS>BOND
     1    1   17 2
     2    2   38 ar
     3    3    7 2
     4    4   10 1
     5    5   11 1
     6    6   12 1
     7    8    3 2
     8    9   27 1
     9   10   11 ar
    10   11   12 ar
    11   12   13 ar
    12   13   14 1
    13   15   13 ar
    14   16   10 ar
    15   17   16 1
    16   18    1 1
    17   19   18 1
    18   20   18 1
    19   21   15 1
    20   22   21 1
    21   23   17 1
    22   24   23 ar
    23   25   24 1
    24   26    3 1
    25   27   26 ar
    26   28   27 ar
    27   29   28 1
    28   30   23 ar
    29   31   30 1
    30   32   21 1
    31   33   32 1
    32   34   32 1
    33   35   32 1
    34   36   35 ar
    35   37   36 1
    36   38   36 ar
    37   39   38 1
    38   40    2 ar
    39   41   40 1
    40   42   35 ar
    41   43   42 1
    42   44    4 1
    43   45   44 1
    44   46   44 1
    45   47   44 1
    46   48    5 1
    47   49   48 1
    48   50   48 1
    49   51   48 1
    50   52    6 1
    51   53   52 1
    52   54   52 1
    53   55   52 1
    54   56    9 1
    55   57   56 1
    56   58   56 1
    57   59   56 1
    58   15   16 ar
    59   18   21 1
    60   24   26 ar
    61   28   30 ar
    62   40   42 ar
@<TRIPOS>SUBSTRUCTURE
     1 RES1 1

@<TRIPOS>CRYSIN
  12.0740   12.8960   15.4500  90.0000 105.8460  90.0000 231 1

