# MOL2 file generated by ConQuest
# Please check atom types

@<TRIPOS>MOLECULE
OYIBUV
    34    34     1
SMALL
NO_CHARGES
****
Generated from CSD

@<TRIPOS>ATOM
      1 O1         0.3736   -0.6919    7.6422 O.3       1 RES1    0.0000
      2 O2        -2.7247    3.5221    9.3093 O.2       1 RES1    0.0000
      3 N1        -2.0099    2.5152    8.9429 N.3       1 RES1    0.0000
      4 C1         0.3277   -2.7039    6.4261 C.2       1 RES1    0.0000
      5 H1         0.5420   -3.1838    7.1927 H         1 RES1    0.0000
      6 H2         0.2029   -3.1487    5.6190 H         1 RES1    0.0000
      7 C2         0.2009   -1.3929    6.4835 C.2       1 RES1    0.0000
      8 H3        -0.0143   -0.9292    5.7070 H         1 RES1    0.0000
      9 C3        -0.3893    0.5321    7.6895 C.3       1 RES1    0.0000
     10 H4        -0.3210    1.0064    6.8345 H         1 RES1    0.0000
     11 C4        -1.8406    0.2245    8.0053 C.3       1 RES1    0.0000
     12 H5        -1.8850   -0.2609    8.8444 H         1 RES1    0.0000
     13 H6        -2.1989   -0.3502    7.3112 H         1 RES1    0.0000
     14 C5        -2.7105    1.4791    8.1107 C.3       1 RES1    0.0000
     15 C6        -4.0202    1.1272    8.8112 C.3       1 RES1    0.0000
     16 H7        -3.8358    0.8368    9.7077 H         1 RES1    0.0000
     17 H8        -4.4610    0.4224    8.3303 H         1 RES1    0.0000
     18 H9        -4.5874    1.9015    8.8363 H         1 RES1    0.0000
     19 C7        -0.5258    2.7253    8.9507 C.3       1 RES1    0.0000
     20 C8         0.1841    1.3754    8.8019 C.3       1 RES1    0.0000
     21 H10        1.1253    1.5302    8.6279 H         1 RES1    0.0000
     22 H11        0.1134    0.8870    9.6369 H         1 RES1    0.0000
     23 C9        -0.1475    3.6988    7.8237 C.3       1 RES1    0.0000
     24 H12       -0.3152    3.2852    6.9741 H         1 RES1    0.0000
     25 H13        0.7838    3.9223    7.8931 H         1 RES1    0.0000
     26 H14       -0.6738    4.4973    7.9002 H         1 RES1    0.0000
     27 C10       -0.1438    3.3312   10.3013 C.3       1 RES1    0.0000
     28 H15       -0.5366    4.2033   10.3838 H         1 RES1    0.0000
     29 H16        0.8112    3.4036   10.3605 H         1 RES1    0.0000
     30 H17       -0.4668    2.7674   11.0082 H         1 RES1    0.0000
     31 C11       -3.0125    2.0511    6.7213 C.3       1 RES1    0.0000
     32 H18       -3.4613    2.8948    6.8132 H         1 RES1    0.0000
     33 H19       -3.5754    1.4399    6.2394 H         1 RES1    0.0000
     34 H20       -2.1903    2.1764    6.2414 H         1 RES1    0.0000
@<TRIPOS>BOND
     1    1    7 1
     2    2    3 1
     3    3   14 1
     4    4    5 1
     5    6    4 1
     6    7    4 2
     7    8    7 1
     8    9    1 1
     9   10    9 1
    10   11    9 1
    11   12   11 1
    12   13   11 1
    13   14   11 1
    14   15   14 1
    15   16   15 1
    16   17   15 1
    17   18   15 1
    18   19    3 1
    19   20    9 1
    20   21   20 1
    21   22   20 1
    22   23   19 1
    23   24   23 1
    24   25   23 1
    25   26   23 1
    26   27   19 1
    27   28   27 1
    28   29   27 1
    29   30   27 1
    30   31   14 1
    31   32   31 1
    32   33   31 1
    33   34   31 1
    34   19   20 1
@<TRIPOS>SUBSTRUCTURE
     1 RES1 1

@<TRIPOS>CRYSIN
  11.5408   10.0341   11.2571  90.0000 115.9670  90.0000  14 1

