# MOL2 file generated by ConQuest
# Please check atom types

@<TRIPOS>MOLECULE
OYIVAV
    62    65     1
SMALL
NO_CHARGES
****
Generated from CSD

@<TRIPOS>ATOM
      1 C1         6.4796    5.3220    3.5338 C.2       1 RES1    0.0000
      2 C2         5.6976    5.4375    4.8143 C.3       1 RES1    0.0000
      3 H1         6.1567    6.0884    5.4035 H         1 RES1    0.0000
      4 H2         5.7158    4.5592    5.2715 H         1 RES1    0.0000
      5 C3         4.2268    5.8753    4.6589 C.3       1 RES1    0.0000
      6 C4         3.3216    4.7824    4.0354 C.3       1 RES1    0.0000
      7 H3         3.4348    3.9622    4.5777 H         1 RES1    0.0000
      8 H4         2.3832    5.0766    4.1504 H         1 RES1    0.0000
      9 C5         3.4958    4.3884    2.5785 C.ar      1 RES1    0.0000
     10 C6         2.7773    5.0717    1.5714 C.ar      1 RES1    0.0000
     11 C7         2.8062    4.6372    0.2604 C.ar      1 RES1    0.0000
     12 H5         2.3051    5.0993   -0.4010 H         1 RES1    0.0000
     13 C8         3.5654    3.5253   -0.0969 C.ar      1 RES1    0.0000
     14 H6         3.5834    3.2334   -1.0005 H         1 RES1    0.0000
     15 C9         4.2934    2.8474    0.8630 C.ar      1 RES1    0.0000
     16 C10        4.2476    3.2653    2.2079 C.ar      1 RES1    0.0000
     17 C11        5.0207    2.4854    3.2225 C.ar      1 RES1    0.0000
     18 C12        6.2658    2.9195    3.6769 C.ar      1 RES1    0.0000
     19 C13        7.0155    2.2211    4.6046 C.ar      1 RES1    0.0000
     20 H7         7.8564    2.5546    4.8945 H         1 RES1    0.0000
     21 C14        6.5222    1.0247    5.1073 C.ar      1 RES1    0.0000
     22 H8         7.0217    0.5376    5.7517 H         1 RES1    0.0000
     23 C15        5.2973    0.5387    4.6667 C.ar      1 RES1    0.0000
     24 H9         4.9617   -0.2879    4.9938 H         1 RES1    0.0000
     25 C16        4.5746    1.2716    3.7470 C.ar      1 RES1    0.0000
     26 C17        2.2232    1.0236    3.9141 C.2       1 RES1    0.0000
     27 C18        1.0880    0.1718    3.4161 C.ar      1 RES1    0.0000
     28 C19        0.3415    0.6154    2.3175 C.ar      1 RES1    0.0000
     29 C20       -0.7483   -0.1592    1.9000 C.ar      1 RES1    0.0000
     30 H10       -1.2669    0.1325    1.1589 H         1 RES1    0.0000
     31 C21       -1.0886   -1.3347    2.5361 C.ar      1 RES1    0.0000
     32 H11       -1.8264   -1.8435    2.2197 H         1 RES1    0.0000
     33 C22       -0.3669   -1.7804    3.6300 C.ar      1 RES1    0.0000
     34 H12       -0.6006   -2.5876    4.0737 H         1 RES1    0.0000
     35 C23        0.7060   -1.0172    4.0591 C.ar      1 RES1    0.0000
     36 C24        4.1180    7.2234    3.9604 C.3       1 RES1    0.0000
     37 H13        3.1858    7.5259    3.9769 H         1 RES1    0.0000
     38 H14        4.4167    7.1348    3.0317 H         1 RES1    0.0000
     39 H15        4.6815    7.8777    4.4244 H         1 RES1    0.0000
     40 C25        1.2593    6.8270    1.0152 C.3       1 RES1    0.0000
     41 H16        1.8291    7.1241    0.2753 H         1 RES1    0.0000
     42 H17        0.8245    7.6040    1.4241 H         1 RES1    0.0000
     43 H18        0.5766    6.2114    0.6762 H         1 RES1    0.0000
     44 C26        5.0834    1.2699   -0.7477 C.3       1 RES1    0.0000
     45 H19        4.1671    1.0473   -1.0118 H         1 RES1    0.0000
     46 H20        5.6454    0.4688   -0.8107 H         1 RES1    0.0000
     47 H21        5.4368    1.9635   -1.3437 H         1 RES1    0.0000
     48 C27        0.6806    1.9085    1.6169 C.3       1 RES1    0.0000
     49 H22        0.5207    2.6609    2.2248 H         1 RES1    0.0000
     50 H23        0.1181    2.0063    0.8208 H         1 RES1    0.0000
     51 H24        1.6235    1.8988    1.3512 H         1 RES1    0.0000
     52 N1         1.4547   -1.4666    5.2387 N.pl3     1 RES1    0.0000
     53 O1         6.8804    6.2548    2.8893 O.2       1 RES1    0.0000
     54 O2         6.8179    4.0684    3.0854 O.3       1 RES1    0.0000
     55 O3         3.8187    6.0097    6.0356 O.3       1 RES1    0.0000
     56 H25        2.9931    6.1635    6.0697 H         1 RES1    0.0000
     57 O4         3.3713    0.6999    3.2616 O.3       1 RES1    0.0000
     58 O5         2.1126    1.9048    4.7138 O.2       1 RES1    0.0000
     59 O6         5.0880    1.7511    0.6014 O.3       1 RES1    0.0000
     60 O7         2.0565    6.1610    1.9903 O.3       1 RES1    0.0000
     61 O8         2.4771   -0.8671    5.5437 O.2       1 RES1    0.0000
     62 O9         1.0360   -2.4326    5.8658 O.2       1 RES1    0.0000
@<TRIPOS>BOND
     1    1    2 1
     2    2    3 1
     3    4    2 1
     4    5    2 1
     5    6    5 1
     6    7    6 1
     7    8    6 1
     8    9    6 1
     9   10    9 ar
    10   11   10 ar
    11   12   11 1
    12   13   11 ar
    13   14   13 1
    14   15   13 ar
    15   16    9 ar
    16   17   16 1
    17   18   17 ar
    18   19   18 ar
    19   20   19 1
    20   21   19 ar
    21   22   21 1
    22   23   21 ar
    23   24   23 1
    24   25   17 ar
    25   26   27 1
    26   27   28 ar
    27   28   29 ar
    28   29   30 1
    29   31   29 ar
    30   32   31 1
    31   33   31 ar
    32   34   33 1
    33   35   27 ar
    34   36    5 1
    35   37   36 1
    36   38   36 1
    37   39   36 1
    38   40   41 1
    39   42   40 1
    40   43   40 1
    41   44   45 1
    42   46   44 1
    43   47   44 1
    44   48   28 1
    45   49   48 1
    46   50   48 1
    47   51   48 1
    48   52   35 1
    49   53    1 2
    50   54    1 1
    51   55    5 1
    52   56   55 1
    53   57   25 1
    54   58   26 2
    55   59   15 1
    56   60   10 1
    57   61   52 2
    58   62   52 2
    59   15   16 ar
    60   18   54 1
    61   23   25 ar
    62   26   57 1
    63   33   35 ar
    64   40   60 1
    65   44   59 1
@<TRIPOS>SUBSTRUCTURE
     1 RES1 1

@<TRIPOS>CRYSIN
   8.4761   10.8798   13.1666  74.8140  81.5230  88.7270   2 1

