# MOL2 file generated by ConQuest
# Please check atom types

@<TRIPOS>MOLECULE
OYOYIM
    49    52     1
SMALL
NO_CHARGES
****
Generated from CSD

@<TRIPOS>ATOM
      1 C1         1.2889   -1.3358   -1.2959 C.ar      1 RES1    0.0000
      2 C2         0.9490   -2.6365   -1.6679 C.ar      1 RES1    0.0000
      3 H1         0.9932   -3.3323   -1.0226 H         1 RES1    0.0000
      4 C3         0.5494   -2.9320   -2.9567 C.ar      1 RES1    0.0000
      5 H2         0.2942   -3.8160   -3.1933 H         1 RES1    0.0000
      6 C4         0.5279   -1.9182   -3.8956 C.ar      1 RES1    0.0000
      7 C5         0.9264   -0.6245   -3.5915 C.ar      1 RES1    0.0000
      8 H3         0.9395    0.0519   -4.2584 H         1 RES1    0.0000
      9 C6         1.3048   -0.3467   -2.2872 C.ar      1 RES1    0.0000
     10 H4         1.5809    0.5337   -2.0609 H         1 RES1    0.0000
     11 C7         1.6212   -1.0650    0.1090 C.2       1 RES1    0.0000
     12 H5         1.6815   -1.8111    0.6939 H         1 RES1    0.0000
     13 C8         1.8444    0.1371    0.6301 C.2       1 RES1    0.0000
     14 H6         1.7159    0.8795    0.0514 H         1 RES1    0.0000
     15 C9         2.2670    0.4425    1.9993 C.ar      1 RES1    0.0000
     16 C10        2.6768    1.7434    2.2845 C.ar      1 RES1    0.0000
     17 H7         2.5925    2.4069    1.6099 H         1 RES1    0.0000
     18 C11        3.2064    2.1091    3.5227 C.ar      1 RES1    0.0000
     19 C12        3.3097    1.1202    4.5144 C.ar      1 RES1    0.0000
     20 C13        2.8220   -0.1813    4.2950 C.ar      1 RES1    0.0000
     21 C14        2.3193   -0.5005    3.0361 C.ar      1 RES1    0.0000
     22 H8         2.0029   -1.3816    2.8751 H         1 RES1    0.0000
     23 C15        3.6910    3.5024    3.7316 C.ar      1 RES1    0.0000
     24 C16        2.9164   -1.2257    5.3534 C.ar      1 RES1    0.0000
     25 C17        4.3817    4.1579    2.7099 C.ar      1 RES1    0.0000
     26 H9         4.5402    3.7039    1.8906 H         1 RES1    0.0000
     27 C18        2.4879   -0.9880    6.6596 C.ar      1 RES1    0.0000
     28 H10        2.1023   -0.1497    6.8853 H         1 RES1    0.0000
     29 C19        4.8409    5.4555    2.8654 C.ar      1 RES1    0.0000
     30 H11        5.2979    5.8867    2.1529 H         1 RES1    0.0000
     31 C20        2.6229   -1.9757    7.6361 C.ar      1 RES1    0.0000
     32 H12        2.3228   -1.8071    8.5216 H         1 RES1    0.0000
     33 C21        4.6334    6.1227    4.0589 C.ar      1 RES1    0.0000
     34 H13        4.9695    7.0033    4.1772 H         1 RES1    0.0000
     35 C22        3.1896   -3.1970    7.3252 C.ar      1 RES1    0.0000
     36 H14        3.3052   -3.8566    7.9990 H         1 RES1    0.0000
     37 C23        3.9335    5.5027    5.0813 C.ar      1 RES1    0.0000
     38 H15        3.7774    5.9659    5.8958 H         1 RES1    0.0000
     39 C24        3.5873   -3.4516    6.0251 C.ar      1 RES1    0.0000
     40 H16        3.9593   -4.2966    5.8010 H         1 RES1    0.0000
     41 C25        3.4593    4.2077    4.9214 C.ar      1 RES1    0.0000
     42 H17        2.9727    3.7950    5.6254 H         1 RES1    0.0000
     43 C26        3.4451   -2.4776    5.0468 C.ar      1 RES1    0.0000
     44 H18        3.7121   -2.6674    4.1550 H         1 RES1    0.0000
     45 N1         0.0526   -2.2161   -5.2445 N.pl3     1 RES1    0.0000
     46 O1         0.0578   -1.3300   -6.0832 O.2       1 RES1    0.0000
     47 O2        -0.3360   -3.3553   -5.4813 O.2       1 RES1    0.0000
     48 O3         3.9370    1.3634    5.7081 O.3       1 RES1    0.0000
     49 H19        4.4373    2.0665    5.6255 H         1 RES1    0.0000
@<TRIPOS>BOND
     1    1    2 ar
     2    2    3 1
     3    4    2 ar
     4    5    4 1
     5    6    4 ar
     6    7    6 ar
     7    8    7 1
     8    9    1 ar
     9   10    9 1
    10   11    1 1
    11   12   11 1
    12   13   11 2
    13   14   13 1
    14   15   13 1
    15   16   15 ar
    16   17   16 1
    17   18   16 ar
    18   19   18 ar
    19   20   19 ar
    20   21   15 ar
    21   22   21 1
    22   23   18 1
    23   24   20 1
    24   25   23 ar
    25   26   25 1
    26   27   24 ar
    27   28   27 1
    28   29   25 ar
    29   30   29 1
    30   31   27 ar
    31   32   31 1
    32   33   29 ar
    33   34   33 1
    34   35   31 ar
    35   36   35 1
    36   37   33 ar
    37   38   37 1
    38   39   35 ar
    39   40   39 1
    40   41   23 ar
    41   42   41 1
    42   43   24 ar
    43   44   43 1
    44   45    6 1
    45   46   45 2
    46   47   45 2
    47   48   19 1
    48   49   48 1
    49    7    9 ar
    50   20   21 ar
    51   37   41 ar
    52   39   43 ar
@<TRIPOS>SUBSTRUCTURE
     1 RES1 1

@<TRIPOS>CRYSIN
  11.8923   12.9590   12.7118  90.0000  97.6380  90.0000  14 1

