# MOL2 file generated by ConQuest
# Please check atom types

@<TRIPOS>MOLECULE
OYUVIP
    35    37     1
SMALL
NO_CHARGES
****
Generated from CSD

@<TRIPOS>ATOM
      1 O1         6.4617    7.6017    3.4671 O.2       1 RES1    0.0000
      2 O2         1.4867    6.4128   -0.3209 O.2       1 RES1    0.0000
      3 O3        -0.3117    5.2303   -0.0835 O.2       1 RES1    0.0000
      4 N1         4.3293    7.8993    2.7042 N.am      1 RES1    0.0000
      5 H1         3.6858    8.4797    2.5524 H         1 RES1    0.0000
      6 N2         4.1223    6.5773    2.4661 N.2       1 RES1    0.0000
      7 N3         4.6911   10.5380    2.7174 N.ar      1 RES1    0.0000
      8 N4         6.8176   11.6696    4.2049 N.ar      1 RES1    0.0000
      9 N5         0.8788    5.4352    0.1135 N.pl3     1 RES1    0.0000
     10 C1         5.5290    8.3240    3.1768 C.2       1 RES1    0.0000
     11 C2         2.9713    6.2740    2.0074 C.2       1 RES1    0.0000
     12 H2         2.3226    6.9495    1.8432 H         1 RES1    0.0000
     13 C3         5.6003    9.8123    3.3216 C.ar      1 RES1    0.0000
     14 C4         6.6472   10.3728    4.0873 C.ar      1 RES1    0.0000
     15 H3         7.2500    9.7900    4.5341 H         1 RES1    0.0000
     16 C5         5.9217   12.4584    3.5339 C.ar      1 RES1    0.0000
     17 C6         6.0682   13.8580    3.5596 C.ar      1 RES1    0.0000
     18 H4         6.7923   14.2521    4.0330 H         1 RES1    0.0000
     19 C7         5.1710   14.6486    2.9060 C.ar      1 RES1    0.0000
     20 H5         5.2874   15.5918    2.9088 H         1 RES1    0.0000
     21 C8         4.0710   14.0822    2.2239 C.ar      1 RES1    0.0000
     22 H6         3.4444   14.6486    1.7896 H         1 RES1    0.0000
     23 C9         3.9000   12.7301    2.1828 C.ar      1 RES1    0.0000
     24 H7         3.1535   12.3563    1.7297 H         1 RES1    0.0000
     25 C10        4.8358   11.8928    2.8149 C.ar      1 RES1    0.0000
     26 C11        2.6665    4.8649    1.7367 C.ar      1 RES1    0.0000
     27 C12        1.6191    4.4520    0.9028 C.ar      1 RES1    0.0000
     28 C13        1.2557    3.1245    0.7441 C.ar      1 RES1    0.0000
     29 H8         0.5146    2.8854    0.2005 H         1 RES1    0.0000
     30 C14        2.0000    2.1535    1.3970 C.ar      1 RES1    0.0000
     31 H9         1.7782    1.2344    1.2968 H         1 RES1    0.0000
     32 C15        3.0682    2.5276    2.1968 C.ar      1 RES1    0.0000
     33 H10        3.5891    1.8586    2.6248 H         1 RES1    0.0000
     34 C16        3.3878    3.8638    2.3833 C.ar      1 RES1    0.0000
     35 H11        4.1062    4.0997    2.9583 H         1 RES1    0.0000
@<TRIPOS>BOND
     1    1   10 2
     2    2    9 2
     3    3    9 2
     4    4    5 1
     5    6    4 1
     6    7   13 ar
     7    8   14 ar
     8    9   27 1
     9   10    4 1
    10   11    6 2
    11   12   11 1
    12   13   10 1
    13   14   13 ar
    14   15   14 1
    15   16    8 ar
    16   17   16 ar
    17   18   17 1
    18   19   17 ar
    19   20   19 1
    20   21   19 ar
    21   22   21 1
    22   23   21 ar
    23   24   23 1
    24   25    7 ar
    25   26   11 1
    26   27   26 ar
    27   28   27 ar
    28   29   28 1
    29   30   28 ar
    30   31   30 1
    31   32   30 ar
    32   33   32 1
    33   34   26 ar
    34   35   34 1
    35   16   25 ar
    36   23   25 ar
    37   32   34 ar
@<TRIPOS>SUBSTRUCTURE
     1 RES1 1

@<TRIPOS>CRYSIN
  12.9503   15.4880    6.9637  90.0000  91.7120  90.0000   9 1

