# MOL2 file generated by ConQuest
# Please check atom types

@<TRIPOS>MOLECULE
OZIRUM
    50    51     1
SMALL
NO_CHARGES
****
Generated from CSD

@<TRIPOS>ATOM
      1 C1         3.6266    5.7095   -1.2193 C.3       1 RES1    0.0000
      2 C2         3.0494    5.2254    0.1130 C.3       1 RES1    0.0000
      3 H1         3.7311    4.7230    0.5860 H         1 RES1    0.0000
      4 H2         2.8214    5.9972    0.6549 H         1 RES1    0.0000
      5 C3         1.8139    4.3523   -0.0433 C.3       1 RES1    0.0000
      6 H3         2.0381    3.5947   -0.6237 H         1 RES1    0.0000
      7 C4         0.7316    5.1770   -0.7191 C.3       1 RES1    0.0000
      8 H4         0.5492    5.9638   -0.1836 H         1 RES1    0.0000
      9 H5        -0.0845    4.6561   -0.7680 H         1 RES1    0.0000
     10 C5         1.1393    5.6101   -2.1340 C.3       1 RES1    0.0000
     11 C6         4.5261    6.9120   -0.9556 C.3       1 RES1    0.0000
     12 H6         4.9122    7.2107   -1.7821 H         1 RES1    0.0000
     13 H7         5.2253    6.6602   -0.3471 H         1 RES1    0.0000
     14 H8         4.0066    7.6212   -0.5716 H         1 RES1    0.0000
     15 C7         4.4184    4.6053   -1.9207 C.3       1 RES1    0.0000
     16 H9         3.8478    3.8471   -2.0698 H         1 RES1    0.0000
     17 H10        5.1597    4.3428   -1.3700 H         1 RES1    0.0000
     18 H11        4.7444    4.9298   -2.7633 H         1 RES1    0.0000
     19 C8         0.2194    6.7363   -2.6021 C.3       1 RES1    0.0000
     20 H12        0.2822    7.4753   -1.9929 H         1 RES1    0.0000
     21 H13       -0.6861    6.4200   -2.6286 H         1 RES1    0.0000
     22 H14        0.4842    7.0221   -3.4799 H         1 RES1    0.0000
     23 C9         1.0594    4.4435   -3.1272 C.3       1 RES1    0.0000
     24 H15        1.3622    4.7351   -3.9898 H         1 RES1    0.0000
     25 H16        0.1501    4.1421   -3.1921 H         1 RES1    0.0000
     26 H17        1.6150    3.7224   -2.8202 H         1 RES1    0.0000
     27 C10        1.8775    2.6309    1.6474 C.2       1 RES1    0.0000
     28 C11        1.5521    2.1136    3.0262 C.ar      1 RES1    0.0000
     29 C12        2.6236    1.9485    3.9016 C.ar      1 RES1    0.0000
     30 H18        3.4791    2.1927    3.6298 H         1 RES1    0.0000
     31 C13        2.4315    1.4227    5.1834 C.ar      1 RES1    0.0000
     32 C14        1.1514    1.0167    5.5666 C.ar      1 RES1    0.0000
     33 H19        1.0158    0.6508    6.4107 H         1 RES1    0.0000
     34 C15        0.0810    1.1557    4.6944 C.ar      1 RES1    0.0000
     35 H20       -0.7651    0.8759    4.9598 H         1 RES1    0.0000
     36 C16        0.2551    1.7137    3.4174 C.ar      1 RES1    0.0000
     37 C17       -0.8789    1.8509    2.5404 C.1       1 RES1    0.0000
     38 C18       -1.8490    1.9369    1.8430 C.1       1 RES1    0.0000
     39 H21       -2.6024    2.0042    1.3019 H         1 RES1    0.0000
     40 C19        3.5606    1.3229    6.0853 C.1       1 RES1    0.0000
     41 C20        4.4940    1.2694    6.8284 C.1       1 RES1    0.0000
     42 H22        5.2206    1.2286    7.4072 H         1 RES1    0.0000
     43 C21        0.6382    4.7315    2.1436 C.3       1 RES1    0.0000
     44 H23        0.6467    4.3885    3.0398 H         1 RES1    0.0000
     45 H24       -0.2688    4.7990    1.8350 H         1 RES1    0.0000
     46 H25        1.0457    5.6019    2.1292 H         1 RES1    0.0000
     47 N1         2.5278    6.1648   -2.1219 N.3       1 RES1    0.0000
     48 N2         1.3852    3.8286    1.2692 N.am      1 RES1    0.0000
     49 O1         2.9052    6.7761   -3.1959 O.2       1 RES1    0.0000
     50 O2         2.6257    1.9619    0.9263 O.2       1 RES1    0.0000
@<TRIPOS>BOND
     1    1    2 1
     2    2    3 1
     3    4    2 1
     4    5    2 1
     5    6    5 1
     6    7    5 1
     7    8    7 1
     8    9    7 1
     9   10    7 1
    10   11    1 1
    11   12   11 1
    12   13   11 1
    13   14   11 1
    14   15    1 1
    15   16   15 1
    16   17   15 1
    17   18   15 1
    18   19   10 1
    19   20   19 1
    20   21   19 1
    21   22   19 1
    22   23   10 1
    23   24   23 1
    24   25   23 1
    25   26   23 1
    26   27   28 1
    27   28   29 ar
    28   29   30 1
    29   31   29 ar
    30   32   31 ar
    31   33   32 1
    32   34   32 ar
    33   35   34 1
    34   36   28 ar
    35   37   36 1
    36   38   37 3
    37   39   38 1
    38   40   31 1
    39   41   40 3
    40   42   41 1
    41   43   44 1
    42   45   43 1
    43   46   43 1
    44   47    1 1
    45   48    5 1
    46   49   47 1
    47   50   27 2
    48   10   47 1
    49   27   48 1
    50   34   36 ar
    51   43   48 1
@<TRIPOS>SUBSTRUCTURE
     1 RES1 1

@<TRIPOS>CRYSIN
   7.7008   30.4120    8.5824  90.0000 110.9240  90.0000  14 1

