# MOL2 file generated by ConQuest
# Please check atom types

@<TRIPOS>MOLECULE
OZUJEA
    38    40     1
SMALL
NO_CHARGES
****
Generated from CSD

@<TRIPOS>ATOM
      1 C1        21.4425    3.0212    1.6374 C.ar      1 RES1    0.0000
      2 C2        20.4976    4.0390    1.6578 C.ar      1 RES1    0.0000
      3 C3        20.9024    5.3687    1.6148 C.ar      1 RES1    0.0000
      4 H1        20.2700    6.0498    1.6279 H         1 RES1    0.0000
      5 C4        22.2548    5.6806    1.5505 C.ar      1 RES1    0.0000
      6 C5        23.2026    4.6627    1.5301 C.ar      1 RES1    0.0000
      7 H2        24.1086    4.8698    1.4870 H         1 RES1    0.0000
      8 C6        22.7979    3.3330    1.5732 C.ar      1 RES1    0.0000
      9 H3        23.4302    2.6519    1.5593 H         1 RES1    0.0000
     10 C7        17.9640    4.4906    1.6666 C.ar      1 RES1    0.0000
     11 C8        16.9673    4.0066    2.5039 C.ar      1 RES1    0.0000
     12 H4        17.1344    3.2781    3.0572 H         1 RES1    0.0000
     13 C9        15.7142    4.6103    2.5112 C.ar      1 RES1    0.0000
     14 H5        15.0473    4.2885    3.0740 H         1 RES1    0.0000
     15 C10       15.4622    5.7005    1.6863 C.ar      1 RES1    0.0000
     16 H6        14.6239    6.1047    1.6936 H         1 RES1    0.0000
     17 C11       16.4603    6.1820    0.8468 C.ar      1 RES1    0.0000
     18 H7        16.2932    6.9105    0.2964 H         1 RES1    0.0000
     19 C12       17.7134    5.5783    0.8395 C.ar      1 RES1    0.0000
     20 H8        18.3789    5.9026    0.2796 H         1 RES1    0.0000
     21 C13       22.0783    8.2452    1.5637 C.ar      1 RES1    0.0000
     22 C14       20.9758    8.3999    2.3981 C.ar      1 RES1    0.0000
     23 H9        20.7137    7.7013    2.9529 H         1 RES1    0.0000
     24 C15       20.2700    9.5973    2.4032 C.ar      1 RES1    0.0000
     25 H10       19.5340    9.6996    2.9616 H         1 RES1    0.0000
     26 C16       20.6647   10.6401    1.5739 C.ar      1 RES1    0.0000
     27 H11       20.1937   11.4410    1.5768 H         1 RES1    0.0000
     28 C17       21.7680   10.4855    0.7395 C.ar      1 RES1    0.0000
     29 H12       22.0302   11.1840    0.1840 H         1 RES1    0.0000
     30 C18       22.4738    9.2880    0.7344 C.ar      1 RES1    0.0000
     31 H13       23.2098    9.1857    0.1759 H         1 RES1    0.0000
     32 N1        19.2215    3.7845    1.7812 N.pl3     1 RES1    0.0000
     33 H14       19.0933    2.9588    1.9827 H         1 RES1    0.0000
     34 N2        22.6725    6.9329    1.4892 N.pl3     1 RES1    0.0000
     35 H15       23.5224    6.9778    1.3782 H         1 RES1    0.0000
     36 N3        21.1847    1.5318    1.4972 N.pl3     1 RES1    0.0000
     37 O1        19.9575    1.1725    1.6206 O.2       1 RES1    0.0000
     38 O2        22.0762    0.7409    1.2848 O.2       1 RES1    0.0000
@<TRIPOS>BOND
     1    1    2 ar
     2    2    3 ar
     3    3    4 1
     4    5    3 ar
     5    6    5 ar
     6    7    6 1
     7    8    1 ar
     8    9    8 1
     9   10   11 ar
    10   11   12 1
    11   13   11 ar
    12   14   13 1
    13   15   13 ar
    14   16   15 1
    15   17   15 ar
    16   18   17 1
    17   19   10 ar
    18   20   19 1
    19   21   22 ar
    20   22   23 1
    21   24   22 ar
    22   25   24 1
    23   26   24 ar
    24   27   26 1
    25   28   26 ar
    26   29   28 1
    27   30   21 ar
    28   31   30 1
    29   32    2 1
    30   33   32 1
    31   34    5 1
    32   35   34 1
    33   36    1 1
    34   37   36 2
    35   38   36 2
    36    6    8 ar
    37   10   32 1
    38   17   19 ar
    39   21   34 1
    40   28   30 ar
@<TRIPOS>SUBSTRUCTURE
     1 RES1 1

@<TRIPOS>CRYSIN
  28.8070   28.8070    7.3000  90.0000  90.0000 120.0000 184 1

