# MOL2 file generated by ConQuest
# Please check atom types

@<TRIPOS>MOLECULE
OZUPIK
    38    39     1
SMALL
NO_CHARGES
****
Generated from CSD

@<TRIPOS>ATOM
      1 O1         3.6942    1.8650   21.9479 O.3       1 RES1    0.0000
      2 O2         4.7834    5.1797   21.9336 O.2       1 RES1    0.0000
      3 N1         4.4575    2.9894   22.2769 N.am      1 RES1    0.0000
      4 C1        -0.4759    4.6011   18.1972 C.3       1 RES1    0.0000
      5 H1        -1.2881    4.3821   18.6614 H         1 RES1    0.0000
      6 H2        -0.3646    4.0091   17.4497 H         1 RES1    0.0000
      7 H3        -0.5211    5.5071   17.8843 H         1 RES1    0.0000
      8 C2         3.5121    0.5577   24.0183 C.3       1 RES1    0.0000
      9 H4         3.7399   -0.2579   23.5441 H         1 RES1    0.0000
     10 H5         2.8877    0.3237   24.7226 H         1 RES1    0.0000
     11 C3         2.8251    1.4988   23.0556 C.3       1 RES1    0.0000
     12 H6         2.0253    1.0742   22.7081 H         1 RES1    0.0000
     13 H7         2.5551    2.3009   23.5287 H         1 RES1    0.0000
     14 C4         4.1016    4.1698   21.7454 C.2       1 RES1    0.0000
     15 C5         2.8702    4.2064   20.8860 C.ar      1 RES1    0.0000
     16 C6         1.6636    4.7454   21.3579 C.ar      1 RES1    0.0000
     17 C7         1.5574    5.1864   22.7549 C.2       1 RES1    0.0000
     18 H8         2.3273    5.1506   23.2731 H         1 RES1    0.0000
     19 C8         0.4425    5.6350   23.3406 C.2       1 RES1    0.0000
     20 H9        -0.3442    5.6731   22.8462 H         1 RES1    0.0000
     21 C9         0.4228    6.0588   24.7052 C.1       1 RES1    0.0000
     22 N2         0.3631    6.4146   25.7950 N.1       1 RES1    0.0000
     23 C10        2.9685    3.7698   19.5638 C.ar      1 RES1    0.0000
     24 H10        3.7603    3.3856   19.2622 H         1 RES1    0.0000
     25 C11        1.8994    3.9044   18.6998 C.ar      1 RES1    0.0000
     26 H11        1.9831    3.6263   17.8153 H         1 RES1    0.0000
     27 C12        0.6972    4.4509   19.1377 C.ar      1 RES1    0.0000
     28 C13        0.5866    4.8456   20.4647 C.ar      1 RES1    0.0000
     29 H12       -0.2241    5.1857   20.7704 H         1 RES1    0.0000
     30 C14        5.7296    2.8055   22.9819 C.3       1 RES1    0.0000
     31 H13        5.8111    3.4873   23.6668 H         1 RES1    0.0000
     32 H14        6.4581    2.9289   22.3528 H         1 RES1    0.0000
     33 C15        5.8628    1.4405   23.6284 C.3       1 RES1    0.0000
     34 H15        6.7259    1.3874   24.0681 H         1 RES1    0.0000
     35 H16        5.8460    0.7640   22.9331 H         1 RES1    0.0000
     36 C16        4.7711    1.1176   24.6528 C.3       1 RES1    0.0000
     37 H17        5.1168    0.4732   25.2901 H         1 RES1    0.0000
     38 H18        4.5463    1.9257   25.1392 H         1 RES1    0.0000
@<TRIPOS>BOND
     1    1    3 1
     2    2   14 2
     3    3   14 1
     4    4    5 1
     5    6    4 1
     6    7    4 1
     7    8    9 1
     8   10    8 1
     9   11    1 1
    10   12   11 1
    11   13   11 1
    12   14   15 1
    13   15   16 ar
    14   16   17 1
    15   17   18 1
    16   19   17 2
    17   20   19 1
    18   21   19 1
    19   22   21 3
    20   23   15 ar
    21   24   23 1
    22   25   23 ar
    23   26   25 1
    24   27    4 1
    25   28   16 ar
    26   29   28 1
    27   30    3 1
    28   31   30 1
    29   32   30 1
    30   33   30 1
    31   34   33 1
    32   35   33 1
    33   36    8 1
    34   37   36 1
    35   38   36 1
    36    8   11 1
    37   25   27 ar
    38   27   28 ar
    39   33   36 1
@<TRIPOS>SUBSTRUCTURE
     1 RES1 1

@<TRIPOS>CRYSIN
   7.2775    7.4754   25.5636  90.0000  90.0000  90.0000  19 1

