# MOL2 file generated by ConQuest
# Please check atom types

@<TRIPOS>MOLECULE
PABBOL
    42    45     1
SMALL
NO_CHARGES
****
Generated from CSD

@<TRIPOS>ATOM
      1 O1         3.7289    1.6323    7.4880 O.2       1 RES1    0.0000
      2 O2         4.1772    0.4171    5.7387 O.2       1 RES1    0.0000
      3 O3         5.7879    3.0474    1.9547 O.2       1 RES1    0.0000
      4 O4         6.8869    4.8636    2.3461 O.2       1 RES1    0.0000
      5 N1         8.2631    1.8706    8.3767 N.ar      1 RES1    0.0000
      6 N2         9.8426   -0.0383    7.1766 N.ar      1 RES1    0.0000
      7 N3         4.3637    1.3970    6.4328 N.pl3     1 RES1    0.0000
      8 N4         6.2971    3.8086    2.6985 N.pl3     1 RES1    0.0000
      9 C1         6.1045    2.9345    8.4005 C.3       1 RES1    0.0000
     10 C2         6.1184    3.1127    6.8998 C.ar      1 RES1    0.0000
     11 C3         6.9500    4.0962    6.3485 C.ar      1 RES1    0.0000
     12 C4        10.3657    0.6804    8.1864 C.ar      1 RES1    0.0000
     13 C5         7.5293    2.8515    8.9259 C.ar      1 RES1    0.0000
     14 C6         6.2658    3.5868    4.1602 C.ar      1 RES1    0.0000
     15 C7         9.5455    1.7126    8.8178 C.ar      1 RES1    0.0000
     16 C8         5.3492    2.3924    5.9874 C.ar      1 RES1    0.0000
     17 C9         8.0347    3.7003    9.9141 C.ar      1 RES1    0.0000
     18 C10        9.2962    3.5241   10.3898 C.ar      1 RES1    0.0000
     19 C11        5.2795    4.0589    9.0189 C.3       1 RES1    0.0000
     20 C12        5.4315    2.5842    4.6100 C.ar      1 RES1    0.0000
     21 C13       10.5943   -0.9923    6.6339 C.ar      1 RES1    0.0000
     22 C14       10.0928    2.5033    9.8470 C.ar      1 RES1    0.0000
     23 C15       11.6806    0.4607    8.6837 C.ar      1 RES1    0.0000
     24 C16       12.1773    1.2514    9.7649 C.ar      1 RES1    0.0000
     25 C17       11.4373    2.2199   10.3141 C.ar      1 RES1    0.0000
     26 C18        7.0094    4.3465    5.0100 C.ar      1 RES1    0.0000
     27 C19       11.8968   -1.2784    7.0469 C.ar      1 RES1    0.0000
     28 C20       12.4317   -0.5503    8.0480 C.ar      1 RES1    0.0000
     29 H1         5.6686    2.1157    8.6059 H         1 RES1    0.0000
     30 H2         7.4987    4.6087    6.9301 H         1 RES1    0.0000
     31 H3         7.4895    4.3931   10.2687 H         1 RES1    0.0000
     32 H4         9.6438    4.0905   11.0687 H         1 RES1    0.0000
     33 H5         4.9276    2.0411    4.0154 H         1 RES1    0.0000
     34 H6        10.2286   -1.5043    5.9225 H         1 RES1    0.0000
     35 H7        13.0410    1.0695   10.1152 H         1 RES1    0.0000
     36 H8        11.8055    2.7453   11.0168 H         1 RES1    0.0000
     37 H9         7.5689    5.0331    4.6662 H         1 RES1    0.0000
     38 H10       12.3954   -1.9675    6.6231 H         1 RES1    0.0000
     39 H11       13.3137   -0.7426    8.3443 H         1 RES1    0.0000
     40 H12        5.6648    4.8937    8.7810 H         1 RES1    0.0000
     41 H13        4.3862    4.0185    8.6989 H         1 RES1    0.0000
     42 H14        5.2802    3.9687    9.9660 H         1 RES1    0.0000
@<TRIPOS>BOND
     1    1    7 2
     2    2    7 2
     3    3    8 2
     4    4    8 2
     5    5   13 ar
     6    6   12 ar
     7    7   16 1
     8    8   14 1
     9    9   10 1
    10   10   11 ar
    11   11   26 ar
    12   12   15 ar
    13   13    9 1
    14   14   20 ar
    15   15    5 ar
    16   16   10 ar
    17   17   13 ar
    18   18   17 ar
    19   19    9 1
    20   20   16 ar
    21   21    6 ar
    22   22   15 ar
    23   23   12 ar
    24   24   23 ar
    25   25   22 ar
    26   26   14 ar
    27   27   21 ar
    28   28   23 ar
    29   29    9 1
    30   30   11 1
    31   31   17 1
    32   32   18 1
    33   33   20 1
    34   34   21 1
    35   35   24 1
    36   36   25 1
    37   37   26 1
    38   38   27 1
    39   39   28 1
    40   40   19 1
    41   41   19 1
    42   42   19 1
    43   18   22 ar
    44   24   25 ar
    45   27   28 ar
@<TRIPOS>SUBSTRUCTURE
     1 RES1 1

@<TRIPOS>CRYSIN
  15.4770    5.1818   21.7540  90.0000  96.2950  90.0000 231 1

