# MOL2 file generated by ConQuest
# Please check atom types

@<TRIPOS>MOLECULE
PABBOJ
    34    36     1
SMALL
NO_CHARGES
****
Generated from CSD

@<TRIPOS>ATOM
      1 N1         0.8068    7.2682    6.2819 N.pl3     1 RES1    0.0000
      2 N2         1.8756    7.2906    5.4119 N.2       1 RES1    0.0000
      3 N3         2.7275    8.1544    5.8194 N.2       1 RES1    0.0000
      4 C1         2.2426    8.7235    6.9896 C.ar      1 RES1    0.0000
      5 C2         2.8459    9.6991    7.7756 C.ar      1 RES1    0.0000
      6 C3         2.1565   10.0995    8.8804 C.ar      1 RES1    0.0000
      7 N4         2.7833   11.1076    9.7399 N.pl3     1 RES1    0.0000
      8 O1         3.8670   11.5202    9.4246 O.2       1 RES1    0.0000
      9 O2         2.1875   11.4470   10.7350 O.2       1 RES1    0.0000
     10 C4         0.9120    9.5975    9.2074 C.ar      1 RES1    0.0000
     11 C5         0.3274    8.6341    8.4261 C.ar      1 RES1    0.0000
     12 N5        -0.9515    8.0833    8.8395 N.pl3     1 RES1    0.0000
     13 O3        -1.4237    7.1869    8.1879 O.2       1 RES1    0.0000
     14 O4        -1.4922    8.5446    9.8147 O.2       1 RES1    0.0000
     15 C6         0.9998    8.1625    7.2886 C.ar      1 RES1    0.0000
     16 C7        -0.2128    6.3048    5.9876 C.ar      1 RES1    0.0000
     17 C8        -1.2053    6.5365    5.0545 C.ar      1 RES1    0.0000
     18 N6        -1.3389    7.8475    4.3935 N.pl3     1 RES1    0.0000
     19 O5        -0.9655    8.8414    4.9949 O.2       1 RES1    0.0000
     20 O6        -1.8667    7.8576    3.2864 O.2       1 RES1    0.0000
     21 C9        -2.1115    5.5670    4.7182 C.ar      1 RES1    0.0000
     22 C10       -2.0444    4.3556    5.3616 C.ar      1 RES1    0.0000
     23 N7        -3.0357    3.3292    5.0253 N.pl3     1 RES1    0.0000
     24 O7        -3.9079    3.6158    4.2382 O.2       1 RES1    0.0000
     25 O8        -2.9284    2.2459    5.5613 O.2       1 RES1    0.0000
     26 C11       -1.0884    4.0630    6.2819 C.ar      1 RES1    0.0000
     27 C12       -0.1628    5.0467    6.5669 C.ar      1 RES1    0.0000
     28 N8         0.8870    4.7134    7.5642 N.pl3     1 RES1    0.0000
     29 O9         0.5280    4.2215    8.5686 O.2       1 RES1    0.0000
     30 O10        2.0226    4.9715    7.2991 O.2       1 RES1    0.0000
     31 H1         3.7240    9.9958    7.5782 H         1 RES1    0.0000
     32 H2         0.5135    9.9613    9.9595 H         1 RES1    0.0000
     33 H3        -2.7600    5.7764    4.1190 H         1 RES1    0.0000
     34 H4        -1.0373    3.2825    6.7175 H         1 RES1    0.0000
@<TRIPOS>BOND
     1    1    2 1
     2    2    3 2
     3    3    4 1
     4    4    5 ar
     5    5    6 ar
     6    6    7 1
     7    7    8 2
     8    9    7 2
     9   10    6 ar
    10   11   10 ar
    11   12   11 1
    12   13   12 2
    13   14   12 2
    14   15    1 1
    15   16    1 1
    16   17   16 ar
    17   18   17 1
    18   19   18 2
    19   20   18 2
    20   21   17 ar
    21   22   21 ar
    22   23   22 1
    23   24   23 2
    24   25   23 2
    25   26   22 ar
    26   27   16 ar
    27   28   27 1
    28   29   28 2
    29   30   28 2
    30   31    5 1
    31   32   10 1
    32   33   21 1
    33   34   26 1
    34    4   15 ar
    35   11   15 ar
    36   26   27 ar
@<TRIPOS>SUBSTRUCTURE
     1 RES1 1

@<TRIPOS>CRYSIN
   6.6970   20.3250   11.8680  90.0000 100.2500  90.0000  14 1

