# MOL2 file generated by ConQuest
# Please check atom types

@<TRIPOS>MOLECULE
PABGAA
    45    40     2
SMALL
NO_CHARGES
****
Generated from CSD

@<TRIPOS>ATOM
      1 C1        -2.2229    6.4208    8.9742 C.ar      1 RES1    0.0000
      2 C2        -1.7458    6.0033    7.7240 C.ar      1 RES1    0.0000
      3 C3        -0.6588    5.1292    7.7327 C.ar      1 RES1    0.0000
      4 C4        -0.0536    4.6915    8.9014 C.ar      1 RES1    0.0000
      5 C5        -0.5525    5.1193   10.1429 C.ar      1 RES1    0.0000
      6 C6        -1.6313    5.9945   10.1418 C.ar      1 RES1    0.0000
      7 N1        -3.3528    7.3539    9.0971 N.pl3     1 RES1    0.0000
      8 O1        -3.3715    8.0909   10.0592 O.2       1 RES1    0.0000
      9 O2        -4.2278    7.3301    8.2741 O.2       1 RES1    0.0000
     10 O3        -2.3329    6.4866    6.6130 O.3       1 RES1    0.0000
     11 C7        -1.8436    6.0262    5.3432 C.3       1 RES1    0.0000
     12 C8         1.1198    3.7304    8.7927 C.3       1 RES1    0.0000
     13 C9         2.4014    4.3492    8.6111 C.3       1 RES1    0.0000
     14 C10        1.9712    3.8894    7.6588 Du        2 SUP2    0.0000
     15 C11        3.4270    3.3192    8.0828 C.2       1 RES1    0.0000
     16 O4         3.7962    3.0629    6.9576 O.2       1 RES1    0.0000
     17 O5         3.9870    2.8500    9.1166 O.3       1 RES1    0.0000
     18 C12        5.1008    1.9604    8.9514 C.3       1 RES1    0.0000
     19 C13        0.0347    4.6871   11.4213 C.2       1 RES1    0.0000
     20 C14       -0.4419    4.8890   12.6302 C.2       1 RES1    0.0000
     21 C15        0.2793    4.4377   13.8185 C.2       1 RES1    0.0000
     22 O6         1.3660    3.9299   13.8315 O.2       1 RES1    0.0000
     23 O7        -0.4143    4.6661   14.9360 O.3       1 RES1    0.0000
     24 C16        0.1904    4.2093   16.1580 C.3       1 RES1    0.0000
     25 H1        -0.3022    4.8357    6.8913 H         1 RES1    0.0000
     26 H2        -1.9706    6.3177   10.9789 H         1 RES1    0.0000
     27 H3        -2.3330    6.4490    4.6344 H         1 RES1    0.0000
     28 H4        -0.9135    6.2515    5.2693 H         1 RES1    0.0000
     29 H5        -1.9486    5.0742    5.2813 H         1 RES1    0.0000
     30 H6         0.9674    3.1302    8.0589 H         1 RES1    0.0000
     31 H7         1.1540    3.2054    9.5961 H         1 RES1    0.0000
     32 H8         0.7788    2.8330    8.8231 Du        2 SUP2    0.0000
     33 H9         1.6798    3.8528    9.5624 Du        2 SUP2    0.0000
     34 H10        2.7125    4.7020    9.4482 H         1 RES1    0.0000
     35 H11        2.3096    5.0768    7.9926 H         1 RES1    0.0000
     36 H12        2.0224    4.8090    7.3881 Du        2 SUP2    0.0000
     37 H13        1.6140    3.3703    6.9348 Du        2 SUP2    0.0000
     38 H14        5.4240    1.6924    9.8146 H         1 RES1    0.0000
     39 H15        4.8064    1.1865    8.4655 H         1 RES1    0.0000
     40 H16        5.8069    2.3945    8.4655 H         1 RES1    0.0000
     41 H17        0.8689    4.2146   11.3703 H         1 RES1    0.0000
     42 H18       -1.2921    5.3235   12.7324 H         1 RES1    0.0000
     43 H19       -0.3730    4.4238   16.9048 H         1 RES1    0.0000
     44 H20        0.3155    3.2591   16.1134 H         1 RES1    0.0000
     45 H21        1.0419    4.6396   16.2667 H         1 RES1    0.0000
@<TRIPOS>BOND
     1    1    2 ar
     2    2    3 ar
     3    3    4 ar
     4    4    5 ar
     5    5    6 ar
     6    6    1 ar
     7    7    1 1
     8    8    7 2
     9    9    7 2
    10   10    2 1
    11   11   10 1
    12   12    4 1
    13   13   12 1
    14   15   13 1
    15   16   15 2
    16   17   15 1
    17   18   17 1
    18   19    5 1
    19   20   19 2
    20   21   20 1
    21   22   21 2
    22   23   21 1
    23   24   23 1
    24   25    3 1
    25   26    6 1
    26   27   11 1
    27   28   11 1
    28   29   11 1
    29   30   12 1
    30   31   12 1
    31   34   13 1
    32   35   13 1
    33   38   18 1
    34   39   18 1
    35   40   18 1
    36   41   19 1
    37   42   20 1
    38   43   24 1
    39   44   24 1
    40   45   24 1
@<TRIPOS>SUBSTRUCTURE
     1 RES1 1
     2 SUP2 14

@<TRIPOS>CRYSIN
   7.8200    9.4180   11.3370  99.8300 100.9700 100.8700   2 1

