# MOL2 file generated by ConQuest
# Please check atom types

@<TRIPOS>MOLECULE
PABGAC
    42    35     2
SMALL
NO_CHARGES
****
Generated from CSD

@<TRIPOS>ATOM
      1 C1         1.2594    7.1502    1.8568 C.ar      1 RES1    0.0000
      2 H1         0.6774    7.8320    2.1683 H         1 RES1    0.0000
      3 C2         0.9412    6.4586    0.7284 C.ar      1 RES1    0.0000
      4 H2         0.1293    6.6520    0.2744 H         1 RES1    0.0000
      5 C3         1.8057    5.4496    0.2168 C.ar      1 RES1    0.0000
      6 C4         1.5425    4.7707   -1.0025 C.ar      1 RES1    0.0000
      7 H3         0.7534    4.9700   -1.4935 H         1 RES1    0.0000
      8 C5         2.4195    3.8320   -1.4769 C.ar      1 RES1    0.0000
      9 H4         2.2403    3.3924   -2.2989 H         1 RES1    0.0000
     10 C6         3.5859    3.5126   -0.7525 C.ar      1 RES1    0.0000
     11 H5         4.1776    2.8454   -1.0797 H         1 RES1    0.0000
     12 C7         3.8667    4.1534    0.4113 C.ar      1 RES1    0.0000
     13 H6         4.6575    3.9306    0.8895 H         1 RES1    0.0000
     14 C8         2.9970    5.1507    0.9249 C.ar      1 RES1    0.0000
     15 C9         3.2966    5.8639    2.1161 C.ar      1 RES1    0.0000
     16 H7         4.0840    5.6518    2.6042 H         1 RES1    0.0000
     17 C10        2.4598    6.8610    2.5774 C.ar      1 RES1    0.0000
     18 C11        2.8047    7.5888    3.7939 C.2       1 RES1    0.0000
     19 C12        4.0119    7.3143    4.6393 C.3       1 RES1    0.0000
     20 H8         4.8476    7.5487    4.1618 H         1 RES1    0.0000
     21 H9         4.0500    6.3648    4.9185 H         1 RES1    0.0000
     22 C13        3.7742    8.2344    5.8306 C.3       1 RES1    0.0000
     23 C14        3.3811    7.4764    7.0625 C.3       1 RES1    0.0000
     24 H10        3.0073    8.0957    7.7219 H         1 RES1    0.0000
     25 H11        4.1714    7.0349    7.4387 H         1 RES1    0.0000
     26 H12        2.7100    6.8015    6.8302 H         1 RES1    0.0000
     27 C15        4.9678    9.1849    6.0934 C.3       1 RES1    0.0000
     28 H13        4.7404    9.8276    6.8103 H         1 RES1    0.0000
     29 H14        5.7609    8.6652    6.3766 H         1 RES1    0.0000
     30 O1         5.2606    9.9116    4.8329 O.3       1 RES1    0.0000
     31 H15        4.5798   10.3404    4.5933 H         1 RES1    0.0000
     32 N1         2.0797    8.5558    4.2289 N.2       1 RES1    0.0000
     33 O2         2.6493    9.0816    5.3991 O.3       1 RES1    0.0000
     34 C16        4.8504    9.2093    6.0890 Du        2 SUP2    0.0000
     35 C17        3.2393    7.5018    7.0692 Du        2 SUP2    0.0000
     36 H16        5.3928    9.3196    5.2792 Du        2 SUP2    0.0000
     37 H17        5.4200    8.8830    6.8169 Du        2 SUP2    0.0000
     38 H18        4.4601   10.0708    6.3412 Du        2 SUP2    0.0000
     39 H19        3.8503    6.7634    7.3103 Du        2 SUP2    0.0000
     40 H20        3.1967    8.1309    7.8347 Du        2 SUP2    0.0000
     41 H21        1.9804    6.4117    6.1753 Du        2 SUP2    0.0000
     42 O3         1.9288    6.9861    6.7860 Du        2 SUP2    0.0000
@<TRIPOS>BOND
     1    1    2 1
     2    3    1 ar
     3    4    3 1
     4    5    3 ar
     5    6    5 ar
     6    7    6 1
     7    8    6 ar
     8    9    8 1
     9   10    8 ar
    10   11   10 1
    11   12   10 ar
    12   13   12 1
    13   14    5 ar
    14   15   14 ar
    15   16   15 1
    16   17    1 ar
    17   18   17 1
    18   19   18 1
    19   20   19 1
    20   21   19 1
    21   22   19 1
    22   23   22 1
    23   24   23 1
    24   25   23 1
    25   26   23 1
    26   27   22 1
    27   28   27 1
    28   29   27 1
    29   30   27 1
    30   31   30 1
    31   32   18 2
    32   33   22 1
    33   12   14 ar
    34   15   17 ar
    35   32   33 1
@<TRIPOS>SUBSTRUCTURE
     1 RES1 1
     2 SUP2 34

@<TRIPOS>CRYSIN
   5.6730    9.7680   22.1257  90.0000  90.0000  90.0000  19 1

