# MOL2 file generated by ConQuest
# Please check atom types

@<TRIPOS>MOLECULE
PABPEN
    41    41     2
SMALL
NO_CHARGES
****
Generated from CSD

@<TRIPOS>ATOM
      1 O1         9.7193    2.6990   10.9360 O.2       1 RES1    0.0000
      2 O2        10.3463    1.0261    9.7805 O.2       1 RES1    0.0000
      3 N1         7.2609    0.6170   10.4108 N.ar      1 RES1    0.0000
      4 N2         4.0356    0.8414    7.7023 N.3       1 RES1    0.0000
      5 N3         2.7153    2.4535    5.7815 N.3       1 RES1    0.0000
      6 N4         9.5937    1.9294   10.0031 N.pl3     1 RES1    0.0000
      7 C1         6.1479   -0.0851   10.5524 C.ar      1 RES1    0.0000
      8 C2         5.0613   -0.0774    9.6840 C.ar      1 RES1    0.0000
      9 C3         5.0734    0.7541    8.5656 C.ar      1 RES1    0.0000
     10 C4         6.2501    1.5491    8.3589 C.ar      1 RES1    0.0000
     11 C5         6.4446    2.4060    7.2585 C.ar      1 RES1    0.0000
     12 H1         4.0434    1.4927    6.9825 H         1 RES1    0.0000
     13 H2         5.9815   -0.7629   11.3751 H         1 RES1    0.0000
     14 H3         4.3128   -0.7076    9.8770 H         1 RES1    0.0000
     15 H4         5.7692    2.4657    6.5635 H         1 RES1    0.0000
     16 H5         7.6802    3.6267    6.4239 H         1 RES1    0.0000
     17 H6         2.8940   -0.8956    7.8457 H         1 RES1    0.0000
     18 H7         2.4480    0.4202    8.5567 H         1 RES1    0.0000
     19 H8         0.9868   -0.2433    6.8809 H         1 RES1    0.0000
     20 H9         1.5716    0.9996    7.3963 Du        2 SUP2    0.0000
     21 H10        0.7890    1.6364    5.7129 H         1 RES1    0.0000
     22 C6         7.5953    3.1225    7.0967 C.ar      1 RES1    0.0000
     23 C7         8.6660    3.0186    8.0142 C.ar      1 RES1    0.0000
     24 C8         8.4785    2.1484    9.0606 C.ar      1 RES1    0.0000
     25 C9         7.3043    1.4076    9.3039 C.ar      1 RES1    0.0000
     26 C10        2.7965    0.0907    7.8622 C.3       1 RES1    0.0000
     27 C11        1.9051    0.2676    6.6676 C.3       1 RES1    0.0000
     28 C12        1.5611    1.6718    6.3731 C.3       1 RES1    0.0000
     29 C13        2.3629    3.8412    5.9808 C.3       1 RES1    0.0000
     30 C14        2.9631    2.2202    4.3913 C.3       1 RES1    0.0000
     31 C15        9.9304    3.8136    7.8216 C.3       1 RES1    0.0000
     32 H11        1.8824    1.2384    5.7764 H         1 RES1    0.0000
     33 H12        2.2715    4.0579    6.9698 H         1 RES1    0.0000
     34 H13        1.4729    4.0579    5.4336 H         1 RES1    0.0000
     35 H14        3.0920    4.3896    5.7002 H         1 RES1    0.0000
     36 H15        2.8363    1.4042    4.5957 H         1 RES1    0.0000
     37 H16        3.7716    2.7864    4.1895 H         1 RES1    0.0000
     38 H17        2.1772    2.4989    3.8340 H         1 RES1    0.0000
     39 H18        9.9037    4.2791    6.9063 H         1 RES1    0.0000
     40 H19       10.7645    3.4166    8.2012 H         1 RES1    0.0000
     41 H20       10.0400    4.5997    8.2901 H         1 RES1    0.0000
@<TRIPOS>BOND
     1    1    6 2
     2    2    6 2
     3    3    7 ar
     4    4    9 1
     5    5   28 1
     6    6   24 1
     7    7    8 ar
     8    8    9 ar
     9    9   10 ar
    10   10   11 ar
    11   11   15 1
    12   12    4 1
    13   13    7 1
    14   14    8 1
    15   16   22 1
    16   17   26 1
    17   18   26 1
    18   19   27 1
    19   21   28 1
    20   22   11 ar
    21   23   22 ar
    22   24   23 ar
    23   25    3 ar
    24   26    4 1
    25   27   26 1
    26   28   27 1
    27   29    5 1
    28   30    5 1
    29   31   23 1
    30   32   28 1
    31   33   29 1
    32   34   29 1
    33   35   29 1
    34   36   30 1
    35   37   30 1
    36   38   30 1
    37   39   31 1
    38   40   31 1
    39   41   31 1
    40   10   25 ar
    41   24   25 ar
@<TRIPOS>SUBSTRUCTURE
     1 RES1 1
     2 SUP2 20

@<TRIPOS>CRYSIN
  11.2880   11.0570   12.6990  90.0000  91.3700  90.0000  14 1

