# MOL2 file generated by ConQuest
# Please check atom types

@<TRIPOS>MOLECULE
PABRUG
    33    34     1
SMALL
NO_CHARGES
****
Generated from CSD

@<TRIPOS>ATOM
      1 O1         7.6923    1.6009   16.9701 O.2       1 RES1    0.0000
      2 O2         6.8107    4.3710   13.3845 O.3       1 RES1    0.0000
      3 O3         5.0965    2.2182   14.4332 O.2       1 RES1    0.0000
      4 O4         3.9854    0.4536   16.3794 O.2       1 RES1    0.0000
      5 O5         2.1982    1.5155   16.0052 O.2       1 RES1    0.0000
      6 N1         3.3208    1.4550   16.4058 N.pl3     1 RES1    0.0000
      7 C1         8.1221    2.3492   16.1138 C.2       1 RES1    0.0000
      8 C2         9.5660    2.7155   16.0191 C.3       1 RES1    0.0000
      9 H1         9.7236    3.5115   16.5517 H         1 RES1    0.0000
     10 H2        10.0981    1.9979   16.3967 H         1 RES1    0.0000
     11 C3        10.0209    2.9696   14.6342 C.3       1 RES1    0.0000
     12 H3        10.0261    2.1319   14.1447 H         1 RES1    0.0000
     13 H4        10.9296    3.3060   14.6563 H         1 RES1    0.0000
     14 C4         9.1518    3.9561   13.9062 C.3       1 RES1    0.0000
     15 H5         9.3897    4.8533   14.1889 H         1 RES1    0.0000
     16 H6         9.3292    3.8886   12.9547 H         1 RES1    0.0000
     17 C5         7.7048    3.7437   14.1427 C.2       1 RES1    0.0000
     18 C6         7.2249    2.9596   15.1419 C.2       1 RES1    0.0000
     19 C7         5.7694    2.7125   15.3157 C.2       1 RES1    0.0000
     20 C8         5.1205    3.1611   16.5834 C.ar      1 RES1    0.0000
     21 C9         5.6328    4.2300   17.2906 C.ar      1 RES1    0.0000
     22 H7         6.4476    4.5963   17.0341 H         1 RES1    0.0000
     23 C10        4.9557    4.7690   18.3784 C.ar      1 RES1    0.0000
     24 H8         5.3219    5.4855   18.8453 H         1 RES1    0.0000
     25 C11        3.7569    4.2489   18.7605 C.ar      1 RES1    0.0000
     26 H9         3.3010    4.6191   19.4809 H         1 RES1    0.0000
     27 C12        3.2165    3.1800   18.0894 C.ar      1 RES1    0.0000
     28 H10        2.4006    2.8197   18.3528 H         1 RES1    0.0000
     29 C13        3.8988    2.6520   17.0265 C.ar      1 RES1    0.0000
     30 C14        7.2259    5.1997   12.2808 C.3       1 RES1    0.0000
     31 H11        6.4528    5.5699   11.8494 H         1 RES1    0.0000
     32 H12        7.7215    4.6707   11.6512 H         1 RES1    0.0000
     33 H13        7.7820    5.9123   12.6068 H         1 RES1    0.0000
@<TRIPOS>BOND
     1    1    7 2
     2    2   17 1
     3    3   19 2
     4    4    6 2
     5    5    6 2
     6    6   29 1
     7    7    8 1
     8    8    9 1
     9   10    8 1
    10   11    8 1
    11   12   11 1
    12   13   11 1
    13   14   11 1
    14   15   14 1
    15   16   14 1
    16   17   14 1
    17   18    7 1
    18   19   18 1
    19   20   19 1
    20   21   20 ar
    21   22   21 1
    22   23   21 ar
    23   24   23 1
    24   25   23 ar
    25   26   25 1
    26   27   25 ar
    27   28   27 1
    28   29   20 ar
    29   30    2 1
    30   31   30 1
    31   32   30 1
    32   33   30 1
    33   17   18 2
    34   27   29 ar
@<TRIPOS>SUBSTRUCTURE
     1 RES1 1

@<TRIPOS>CRYSIN
  10.4330    9.9250   25.3740  90.0000  90.0000  90.0000  61 1

