# MOL2 file generated by ConQuest
# Please check atom types

@<TRIPOS>MOLECULE
PABSUH
    63    68     1
SMALL
NO_CHARGES
****
Generated from CSD

@<TRIPOS>ATOM
      1 O1         1.0481   10.8232    0.4970 O.3       1 RES1    0.0000
      2 O2         4.5218    9.8530    4.3529 O.2       1 RES1    0.0000
      3 O3         4.5156    8.2511    2.7485 O.3       1 RES1    0.0000
      4 O4         2.9522    8.7190   -3.0446 O.3       1 RES1    0.0000
      5 O5         0.8922   12.4861    3.2876 O.2       1 RES1    0.0000
      6 O6         1.4149   10.4458    4.0418 O.3       1 RES1    0.0000
      7 H1         0.5952   10.4458    4.3897 H         1 RES1    0.0000
      8 N1         0.5136   10.3865   -0.7460 N.2       1 RES1    0.0000
      9 N2         3.4510   10.1371    2.3681 N.am      1 RES1    0.0000
     10 C1         2.5112   10.9462    0.3546 C.3       1 RES1    0.0000
     11 C2         2.9539   12.0947    1.2302 C.3       1 RES1    0.0000
     12 H2         2.3088   12.8450    1.1829 H         1 RES1    0.0000
     13 H3         3.8478   12.4223    0.9582 H         1 RES1    0.0000
     14 C3         2.9970   11.4981    2.6374 C.3       1 RES1    0.0000
     15 H4         3.6801   11.9789    3.1877 H         1 RES1    0.0000
     16 C4         3.1704    9.7149    0.9879 C.3       1 RES1    0.0000
     17 H5         2.5582    8.9369    0.9726 H         1 RES1    0.0000
     18 H6         4.0060    9.4774    0.5138 H         1 RES1    0.0000
     19 C5         2.7170   11.0361   -1.1527 C.3       1 RES1    0.0000
     20 H7         2.8496   11.9719   -1.4481 H         1 RES1    0.0000
     21 H8         3.4851   10.4856   -1.4505 H         1 RES1    0.0000
     22 C6         1.4183   10.4815   -1.6457 C.2       1 RES1    0.0000
     23 C7         4.1800    9.4540    3.2360 C.2       1 RES1    0.0000
     24 C8         5.4266    7.4629    3.5600 C.3       1 RES1    0.0000
     25 H9         5.0445    7.3190    4.4614 H         1 RES1    0.0000
     26 H10        6.2927    7.9322    3.6561 H         1 RES1    0.0000
     27 C9         5.6238    6.1422    2.8615 C.3       1 RES1    0.0000
     28 H11        4.7327    5.7304    2.6716 H         1 RES1    0.0000
     29 C10        6.4435    5.1971    3.7010 C.ar      1 RES1    0.0000
     30 C11        6.2179    4.7325    4.9873 C.ar      1 RES1    0.0000
     31 H12        5.4407    5.0029    5.4626 H         1 RES1    0.0000
     32 C12        7.1237    3.8802    5.5730 C.ar      1 RES1    0.0000
     33 H13        6.9724    3.5703    6.4591 H         1 RES1    0.0000
     34 C13        8.2631    3.4648    4.8820 C.ar      1 RES1    0.0000
     35 H14        8.8753    2.8687    5.2977 H         1 RES1    0.0000
     36 C14        8.5091    3.9188    3.5856 C.ar      1 RES1    0.0000
     37 H15        9.2823    3.6378    3.1113 H         1 RES1    0.0000
     38 C15        7.5988    4.7903    3.0073 C.ar      1 RES1    0.0000
     39 C16        7.5806    5.4247    1.6713 C.ar      1 RES1    0.0000
     40 C17        8.4729    5.3294    0.6206 C.ar      1 RES1    0.0000
     41 H16        9.2506    4.7881    0.6930 H         1 RES1    0.0000
     42 C18        8.2098    6.0433   -0.5472 C.ar      1 RES1    0.0000
     43 H17        8.8135    5.9886   -1.2784 H         1 RES1    0.0000
     44 C19        7.0744    6.8332   -0.6504 C.ar      1 RES1    0.0000
     45 H18        6.9146    7.3207   -1.4505 H         1 RES1    0.0000
     46 C20        6.1623    6.9223    0.4041 C.ar      1 RES1    0.0000
     47 H19        5.3778    7.4506    0.3226 H         1 RES1    0.0000
     48 C21        6.4299    6.2169    1.5790 C.ar      1 RES1    0.0000
     49 C22        1.1116   10.1627   -3.0596 C.ar      1 RES1    0.0000
     50 C23        1.9256    9.2604   -3.7600 C.ar      1 RES1    0.0000
     51 C24        1.6467    8.9517   -5.0860 C.ar      1 RES1    0.0000
     52 H20        2.1960    8.3410   -5.5630 H         1 RES1    0.0000
     53 C25        0.5527    9.5484   -5.7083 C.ar      1 RES1    0.0000
     54 H21        0.3537    9.3319   -6.6120 H         1 RES1    0.0000
     55 C26       -0.2426   10.4440   -5.0354 C.ar      1 RES1    0.0000
     56 H22       -0.9750   10.8563   -5.4770 H         1 RES1    0.0000
     57 C27        0.0266   10.7413   -3.7154 C.ar      1 RES1    0.0000
     58 H23       -0.5345   11.3483   -3.2475 H         1 RES1    0.0000
     59 C28        3.7231    7.6843   -3.6585 C.3       1 RES1    0.0000
     60 H24        3.1563    6.8998   -3.8090 H         1 RES1    0.0000
     61 H25        4.4691    7.4402   -3.0706 H         1 RES1    0.0000
     62 H26        4.0740    8.0032   -4.5163 H         1 RES1    0.0000
     63 C29        1.6445   11.5461    3.3409 C.2       1 RES1    0.0000
@<TRIPOS>BOND
     1    1    8 1
     2    2   23 2
     3    3   23 1
     4    4   50 1
     5    5   63 2
     6    6    7 1
     7    8   22 2
     8    9   14 1
     9   10    1 1
    10   11   10 1
    11   12   11 1
    12   13   11 1
    13   14   11 1
    14   15   14 1
    15   16    9 1
    16   17   16 1
    17   18   16 1
    18   19   10 1
    19   20   19 1
    20   21   19 1
    21   22   19 1
    22   23    9 1
    23   24    3 1
    24   25   24 1
    25   26   24 1
    26   27   24 1
    27   28   27 1
    28   29   27 1
    29   30   29 ar
    30   31   30 1
    31   32   30 ar
    32   33   32 1
    33   34   32 ar
    34   35   34 1
    35   36   34 ar
    36   37   36 1
    37   38   29 ar
    38   39   38 1
    39   40   39 ar
    40   41   40 1
    41   42   40 ar
    42   43   42 1
    43   44   42 ar
    44   45   44 1
    45   46   44 ar
    46   47   46 1
    47   48   27 1
    48   49   22 1
    49   50   49 ar
    50   51   50 ar
    51   52   51 1
    52   53   51 ar
    53   54   53 1
    54   55   53 ar
    55   56   55 1
    56   57   49 ar
    57   58   57 1
    58   59    4 1
    59   60   59 1
    60   61   59 1
    61   62   59 1
    62   63    6 1
    63   10   16 1
    64   14   63 1
    65   36   38 ar
    66   39   48 ar
    67   46   48 ar
    68   55   57 ar
@<TRIPOS>SUBSTRUCTURE
     1 RES1 1

@<TRIPOS>CRYSIN
   5.6686   17.3230   23.8960  90.0000  90.0000  90.0000  19 1

