# MOL2 file generated by ConQuest
# Please check atom types

@<TRIPOS>MOLECULE
PABTUK
    37    37     1
SMALL
NO_CHARGES
****
Generated from CSD

@<TRIPOS>ATOM
      1 O1         7.1080    4.9485   -2.0602 O.3       1 RES1    0.0000
      2 O2        11.0533    7.0380    4.9251 O.2       1 RES1    0.0000
      3 O3         9.4964    6.1754   -2.1600 O.3       1 RES1    0.0000
      4 O4        11.1725    5.0454    5.7443 O.2       1 RES1    0.0000
      5 O5         9.6679    8.9563   -0.0049 O.2       1 RES1    0.0000
      6 N1        10.8024    5.8344    4.8736 N.pl3     1 RES1    0.0000
      7 C1         5.8633    4.2421   -1.9971 C.3       1 RES1    0.0000
      8 H1         5.9932    3.3944   -1.5238 H         1 RES1    0.0000
      9 H2         5.5427    4.0638   -2.9062 H         1 RES1    0.0000
     10 H3         5.2026    4.7856   -1.5189 H         1 RES1    0.0000
     11 C2         7.7011    5.2260   -0.8682 C.ar      1 RES1    0.0000
     12 C3         7.1723    4.8991    0.3785 C.ar      1 RES1    0.0000
     13 H4         6.3172    4.4914    0.4439 H         1 RES1    0.0000
     14 C4         7.9032    5.1734    1.5205 C.ar      1 RES1    0.0000
     15 H5         7.5455    4.9294    2.3658 H         1 RES1    0.0000
     16 C5         9.1489    5.7975    1.4682 C.ar      1 RES1    0.0000
     17 C6         9.8983    6.1033    2.6944 C.2       1 RES1    0.0000
     18 H6        10.3243    6.9509    2.7443 H         1 RES1    0.0000
     19 C7        10.0305    5.2955    3.7376 C.2       1 RES1    0.0000
     20 C8         8.9373    5.8835   -0.9344 C.ar      1 RES1    0.0000
     21 C9         8.8244    7.1874   -2.9217 C.3       1 RES1    0.0000
     22 H7         8.1895    6.7652   -3.5373 H         1 RES1    0.0000
     23 H8         9.4825    7.7027   -3.4335 H         1 RES1    0.0000
     24 H9         8.3410    7.7864   -2.3151 H         1 RES1    0.0000
     25 C10        9.6578    6.1873    0.2101 C.ar      1 RES1    0.0000
     26 C11        9.5639    3.8932    3.9215 C.3       1 RES1    0.0000
     27 H10        8.7760    3.8847    4.5044 H         1 RES1    0.0000
     28 H11       10.2795    3.3617    4.3302 H         1 RES1    0.0000
     29 H12        9.3297    3.5094    3.0501 H         1 RES1    0.0000
     30 C12       10.9537    6.9400    0.0629 C.3       1 RES1    0.0000
     31 H13       11.4494    6.5808   -0.7153 H         1 RES1    0.0000
     32 H14       11.5080    6.7887    0.8698 H         1 RES1    0.0000
     33 C13       10.7516    8.4313   -0.1259 C.2       1 RES1    0.0000
     34 C14       11.9719    9.2179   -0.4831 C.3       1 RES1    0.0000
     35 H15       12.2602    8.9802   -1.3889 H         1 RES1    0.0000
     36 H16       12.6900    9.0142    0.1521 H         1 RES1    0.0000
     37 H17       11.7655   10.1753   -0.4463 H         1 RES1    0.0000
@<TRIPOS>BOND
     1    1    7 1
     2    2    6 2
     3    3   20 1
     4    4    6 2
     5    5   33 2
     6    6   19 1
     7    7    8 1
     8    9    7 1
     9   10    7 1
    10   11    1 1
    11   12   11 ar
    12   13   12 1
    13   14   12 ar
    14   15   14 1
    15   16   14 ar
    16   17   16 1
    17   18   17 1
    18   19   17 2
    19   20   11 ar
    20   21    3 1
    21   22   21 1
    22   23   21 1
    23   24   21 1
    24   25   16 ar
    25   26   19 1
    26   27   26 1
    27   28   26 1
    28   29   26 1
    29   30   25 1
    30   31   30 1
    31   32   30 1
    32   33   30 1
    33   34   33 1
    34   35   34 1
    35   36   34 1
    36   37   34 1
    37   20   25 ar
@<TRIPOS>SUBSTRUCTURE
     1 RES1 1

@<TRIPOS>CRYSIN
  12.9058   13.0754    8.2832  90.0000  99.2750  90.0000  14 1

