# MOL2 file generated by ConQuest
# Please check atom types

@<TRIPOS>MOLECULE
PABTES
    31    32     1
SMALL
NO_CHARGES
****
Generated from CSD

@<TRIPOS>ATOM
      1 O1        15.8964    1.3968    2.8610 O.3       1 RES1    0.0000
      2 O2        11.3168    0.3578    2.5899 O.3       1 RES1    0.0000
      3 O3        10.4307    3.0252    5.6233 O.3       1 RES1    0.0000
      4 O4         8.4704    1.7477    4.2296 O.2       1 RES1    0.0000
      5 O5         9.8624    1.9007    1.6266 O.3       1 RES1    0.0000
      6 O6         8.1970    0.8868    0.3644 O.3       1 RES1    0.0000
      7 N1        10.6801    2.1267    4.5957 N.am      1 RES1    0.0000
      8 C1        14.6404    1.6340    3.3563 C.ar      1 RES1    0.0000
      9 C2        13.6085    0.9439    2.7281 C.ar      1 RES1    0.0000
     10 C3        12.3169    1.1210    3.1579 C.ar      1 RES1    0.0000
     11 C4        12.0312    1.9841    4.2068 C.ar      1 RES1    0.0000
     12 C5        13.0576    2.6617    4.8286 C.ar      1 RES1    0.0000
     13 C6        14.3676    2.4867    4.4073 C.ar      1 RES1    0.0000
     14 C7        16.9641    2.1825    3.3930 C.3       1 RES1    0.0000
     15 C8         9.6547    1.6241    3.9098 C.2       1 RES1    0.0000
     16 C9        10.0192    0.9184    2.6152 C.3       1 RES1    0.0000
     17 C10        9.4797    1.3972    0.3529 C.3       1 RES1    0.0000
     18 C11        7.2136    1.8951    0.5211 C.3       1 RES1    0.0000
     19 H1        10.0491    2.4893    6.2254 H         1 RES1    0.0000
     20 H2        13.7946    0.3155    2.0315 H         1 RES1    0.0000
     21 H3        12.8458    3.2672    5.5324 H         1 RES1    0.0000
     22 H4        15.0446    2.9733    4.8417 H         1 RES1    0.0000
     23 H5         9.4211    0.1772    2.4530 H         1 RES1    0.0000
     24 H6        17.0924    1.9793    4.3511 H         1 RES1    0.0000
     25 H7        17.7193    1.8670    2.9293 H         1 RES1    0.0000
     26 H8        16.7647    3.1678    3.3366 H         1 RES1    0.0000
     27 H9        10.0812    0.6785    0.0834 H         1 RES1    0.0000
     28 H10        9.5476    2.2473   -0.2739 H         1 RES1    0.0000
     29 H11        6.3943    1.5472    0.6502 H         1 RES1    0.0000
     30 H12        7.3397    2.4158    1.4146 H         1 RES1    0.0000
     31 H13        7.1216    2.4893   -0.1548 H         1 RES1    0.0000
@<TRIPOS>BOND
     1    1    8 1
     2    2   10 1
     3    3    7 1
     4    4   15 2
     5    5   16 1
     6    6   17 1
     7    7   11 1
     8    8    9 ar
     9    9   10 ar
    10   10   11 ar
    11   11   12 ar
    12   12   13 ar
    13   13    8 ar
    14   14    1 1
    15   15    7 1
    16   16    2 1
    17   17    5 1
    18   18    6 1
    19   19    3 1
    20   20    9 1
    21   21   12 1
    22   22   13 1
    23   23   16 1
    24   24   14 1
    25   25   14 1
    26   26   14 1
    27   27   17 1
    28   28   17 1
    29   29   18 1
    30   30   18 1
    31   31   18 1
    32   15   16 1
@<TRIPOS>SUBSTRUCTURE
     1 RES1 1

@<TRIPOS>CRYSIN
  22.1100    4.3217   25.2870  90.0000 109.6420  90.0000  15 1

