# MOL2 file generated by ConQuest
# Please check atom types

@<TRIPOS>MOLECULE
PADQUJ
    38    39     1
SMALL
NO_CHARGES
****
Generated from CSD

@<TRIPOS>ATOM
      1 C1         7.4493    1.0141    8.8094 C.ar      1 RES1    0.0000
      2 H1         7.6922    1.7566    9.3149 H         1 RES1    0.0000
      3 C2         8.3609   -0.0021    8.6042 C.ar      1 RES1    0.0000
      4 H2         9.2153    0.0682    8.9660 H         1 RES1    0.0000
      5 C3         8.0328   -1.0915    7.8880 C.ar      1 RES1    0.0000
      6 H3         8.6499   -1.7762    7.7649 H         1 RES1    0.0000
      7 C4         6.7778   -1.1834    7.3404 C.ar      1 RES1    0.0000
      8 H4         6.5474   -1.9321    6.8382 H         1 RES1    0.0000
      9 C5         5.8536   -0.1776    7.5284 C.ar      1 RES1    0.0000
     10 H5         5.0076   -0.2540    7.1514 H         1 RES1    0.0000
     11 C6         6.1691    0.9366    8.2661 C.ar      1 RES1    0.0000
     12 C7         5.1807    2.0870    8.4961 C.3       1 RES1    0.0000
     13 H6         5.5548    2.8822    8.0630 H         1 RES1    0.0000
     14 C8         5.1137    2.3772    9.9921 C.3       1 RES1    0.0000
     15 H7         4.6837    1.6327   10.4414 H         1 RES1    0.0000
     16 H8         6.0155    2.4547   10.3410 H         1 RES1    0.0000
     17 C9         3.7986    1.8495    7.8880 C.2       1 RES1    0.0000
     18 C10        2.9429    0.8974    8.4691 C.2       1 RES1    0.0000
     19 C11        1.2411    1.4282    6.8187 C.2       1 RES1    0.0000
     20 C12        3.3910    2.5166    6.7604 C.2       1 RES1    0.0000
     21 C13        0.7720   -0.2334    8.5037 C.3       1 RES1    0.0000
     22 H9        -0.1145    0.1332    8.5437 H         1 RES1    0.0000
     23 H10        1.0680   -0.4502    9.3916 H         1 RES1    0.0000
     24 H11        0.7650   -1.0285    7.9658 H         1 RES1    0.0000
     25 C14        1.6473    3.0505    5.0711 C.3       1 RES1    0.0000
     26 H12        1.5789    3.9840    5.2807 H         1 RES1    0.0000
     27 H13        0.7860    2.7159    4.8130 H         1 RES1    0.0000
     28 H14        2.2686    2.9287    4.3485 H         1 RES1    0.0000
     29 N1         1.6808    0.7508    7.9107 N.am      1 RES1    0.0000
     30 N2         2.1234    2.3173    6.2528 N.am      1 RES1    0.0000
     31 N3         4.1644    3.3830    6.0897 N.3       1 RES1    0.0000
     32 H15        4.9643    3.5462    6.3618 H         1 RES1    0.0000
     33 H16        3.8601    3.7754    5.3876 H         1 RES1    0.0000
     34 N4         4.3724    3.6143   10.2902 N.pl3     1 RES1    0.0000
     35 O1         3.2514    0.1921    9.4391 O.2       1 RES1    0.0000
     36 O2         0.1233    1.2681    6.3532 O.2       1 RES1    0.0000
     37 O3         4.6055    4.6098    9.6454 O.2       1 RES1    0.0000
     38 O4         3.5473    3.5989   11.0690 O.2       1 RES1    0.0000
@<TRIPOS>BOND
     1    1    2 1
     2    3    1 ar
     3    4    3 1
     4    5    3 ar
     5    6    5 1
     6    7    5 ar
     7    8    7 1
     8    9    7 ar
     9   10    9 1
    10   11    1 ar
    11   12   11 1
    12   13   12 1
    13   14   12 1
    14   15   14 1
    15   16   14 1
    16   17   12 1
    17   18   17 1
    18   19   29 1
    19   20   17 2
    20   21   22 1
    21   23   21 1
    22   24   21 1
    23   25   26 1
    24   27   25 1
    25   28   25 1
    26   29   18 1
    27   30   19 1
    28   31   20 1
    29   32   31 1
    30   33   31 1
    31   34   14 1
    32   35   18 2
    33   36   19 2
    34   37   34 2
    35   38   34 2
    36    9   11 ar
    37   20   30 1
    38   21   29 1
    39   25   30 1
@<TRIPOS>SUBSTRUCTURE
     1 RES1 1

@<TRIPOS>CRYSIN
  13.9604   10.3267   10.8011  90.0000  90.0000  90.0000  33 1

