# MOL2 file generated by ConQuest
# Please check atom types

@<TRIPOS>MOLECULE
PADXUP
    33    34     1
SMALL
NO_CHARGES
****
Generated from CSD

@<TRIPOS>ATOM
      1 O1         4.0272   -0.2815    0.8093 O.3       1 RES1    0.0000
      2 H1         3.6124    0.1407    0.2427 H         1 RES1    0.0000
      3 O2         6.4418   -2.0051    0.3688 O.2       1 RES1    0.0000
      4 O3         2.2165    2.4733    4.5496 O.2       1 RES1    0.0000
      5 N1         2.6279    3.4554    3.9418 N.pl3     1 RES1    0.0000
      6 O4         2.2816    4.5993    4.2117 O.2       1 RES1    0.0000
      7 C1         6.5967   -1.7104    1.5414 C.2       1 RES1    0.0000
      8 C2         4.1341    4.3859    2.2508 C.ar      1 RES1    0.0000
      9 H2         3.8633    5.2423    2.4935 H         1 RES1    0.0000
     10 C3         4.9109    1.7772    1.5164 C.ar      1 RES1    0.0000
     11 C4         7.2247    0.3457    2.7787 C.3       1 RES1    0.0000
     12 H3         7.8562    0.6130    2.0915 H         1 RES1    0.0000
     13 H4         6.8874    1.1486    3.2065 H         1 RES1    0.0000
     14 C5         5.4539    2.8913    0.8965 C.ar      1 RES1    0.0000
     15 H5         6.0887    2.7723    0.2275 H         1 RES1    0.0000
     16 C6         5.2694    0.3757    1.0788 C.3       1 RES1    0.0000
     17 H6         5.7939    0.4222    0.2522 H         1 RES1    0.0000
     18 C7         3.9812    1.9687    2.5390 C.ar      1 RES1    0.0000
     19 H7         3.6131    1.2421    2.9865 H         1 RES1    0.0000
     20 C8         6.0558   -0.4175    2.1291 C.3       1 RES1    0.0000
     21 H8         5.4299   -0.6593    2.8443 H         1 RES1    0.0000
     22 C9         5.0754    4.1816    1.2471 C.ar      1 RES1    0.0000
     23 H9         5.4525    4.9108    0.8097 H         1 RES1    0.0000
     24 C10        3.6172    3.2633    2.8739 C.ar      1 RES1    0.0000
     25 C11        8.4890   -1.7881    3.1680 C.3       1 RES1    0.0000
     26 H10        9.1629   -1.5538    2.5106 H         1 RES1    0.0000
     27 H11        8.9099   -2.3387    3.8474 H         1 RES1    0.0000
     28 C12        7.9364   -0.5148    3.8112 C.3       1 RES1    0.0000
     29 H12        7.3152   -0.7519    4.5168 H         1 RES1    0.0000
     30 H13        8.6638   -0.0104    4.2077 H         1 RES1    0.0000
     31 C13        7.3674   -2.5789    2.4916 C.3       1 RES1    0.0000
     32 H14        7.7465   -3.3296    2.0081 H         1 RES1    0.0000
     33 H15        6.7668   -2.9300    3.1667 H         1 RES1    0.0000
@<TRIPOS>BOND
     1    1    2 1
     2    3    7 2
     3    4    5 2
     4    5    6 2
     5    7   20 1
     6    8    9 1
     7   10   14 ar
     8   11   12 1
     9   13   11 1
    10   14   15 1
    11   16    1 1
    12   17   16 1
    13   18   10 ar
    14   19   18 1
    15   20   11 1
    16   21   20 1
    17   22    8 ar
    18   23   22 1
    19   24    5 1
    20   25   26 1
    21   27   25 1
    22   28   11 1
    23   29   28 1
    24   30   28 1
    25   31    7 1
    26   32   31 1
    27   33   31 1
    28    8   24 ar
    29   10   16 1
    30   14   22 ar
    31   16   20 1
    32   18   24 ar
    33   25   28 1
    34   25   31 1
@<TRIPOS>SUBSTRUCTURE
     1 RES1 1

@<TRIPOS>CRYSIN
   6.8559    9.4456   18.9621  90.0000  90.0000  90.0000  19 1

