# MOL2 file generated by ConQuest
# Please check atom types

@<TRIPOS>MOLECULE
PADXOJ
    33    34     1
SMALL
NO_CHARGES
****
Generated from CSD

@<TRIPOS>ATOM
      1 O1         1.5607    2.4930    0.4016 O.3       1 RES1    0.0000
      2 H1         2.0307    3.1495    0.1694 H         1 RES1    0.0000
      3 C1         1.5478    3.2103    2.7182 C.ar      1 RES1    0.0000
      4 C2         1.8974    2.1164    1.7348 C.3       1 RES1    0.0000
      5 C3         0.3098    3.8523    2.6340 C.ar      1 RES1    0.0000
      6 C4         2.4305    3.5615    3.7363 C.ar      1 RES1    0.0000
      7 C5         0.8394    5.1052    4.5857 C.ar      1 RES1    0.0000
      8 N1         0.4326    6.0800    5.6026 N.pl3     1 RES1    0.0000
      9 O2        -0.6810    6.5766    5.5315 O.2       1 RES1    0.0000
     10 C6         1.2509   -0.1323    0.8871 C.2       1 RES1    0.0000
     11 C7         2.0827    4.5140    4.6821 C.ar      1 RES1    0.0000
     12 C8         2.5433   -0.8776    0.7914 C.3       1 RES1    0.0000
     13 C9        -0.0497    4.8067    3.5664 C.ar      1 RES1    0.0000
     14 C10        1.1018    0.8380    2.0476 C.3       1 RES1    0.0000
     15 O3         1.2135    6.3375    6.4994 O.2       1 RES1    0.0000
     16 C11        2.9191   -1.5327    2.1242 C.3       1 RES1    0.0000
     17 C12        1.5361    0.1559    3.3612 C.3       1 RES1    0.0000
     18 C13        2.8852   -0.5202    3.2655 C.3       1 RES1    0.0000
     19 O4         0.3443   -0.2852    0.0785 O.2       1 RES1    0.0000
     20 H2         2.9226    1.9619    1.8185 H         1 RES1    0.0000
     21 H3         0.0994    1.1123    2.0739 H         1 RES1    0.0000
     22 H4         1.5081    0.7795    4.1024 H         1 RES1    0.0000
     23 H5        -0.2747    3.5909    1.8949 H         1 RES1    0.0000
     24 H6         2.2504   -2.2684    2.3054 H         1 RES1    0.0000
     25 H7         2.5135   -1.5327    0.0549 H         1 RES1    0.0000
     26 H8         2.6596    4.7207    5.4579 H         1 RES1    0.0000
     27 H9         0.7716   -0.5518    3.5798 H         1 RES1    0.0000
     28 H10        3.3844    3.1180    3.8136 H         1 RES1    0.0000
     29 H11        3.2851   -0.1839    0.5036 H         1 RES1    0.0000
     30 H12        3.5715    0.1401    3.1502 H         1 RES1    0.0000
     31 H13        3.1389   -0.9634    4.1263 H         1 RES1    0.0000
     32 H14        3.7936   -1.9531    2.0261 H         1 RES1    0.0000
     33 H15       -0.9469    5.2375    3.5822 H         1 RES1    0.0000
@<TRIPOS>BOND
     1    1    2 1
     2    3    4 1
     3    4    1 1
     4    5    3 ar
     5    6    3 ar
     6    7    8 1
     7    8    9 2
     8   10   12 1
     9   11    6 ar
    10   12   16 1
    11   13    5 ar
    12   14    4 1
    13   15    8 2
    14   16   18 1
    15   17   14 1
    16   18   17 1
    17   19   10 2
    18   20    4 1
    19   21   14 1
    20   22   17 1
    21   23    5 1
    22   24   16 1
    23   25   12 1
    24   26   11 1
    25   27   17 1
    26   28    6 1
    27   29   12 1
    28   30   18 1
    29   31   18 1
    30   32   16 1
    31   33   13 1
    32    7   11 ar
    33    7   13 ar
    34   10   14 1
@<TRIPOS>SUBSTRUCTURE
     1 RES1 1

@<TRIPOS>CRYSIN
   5.8453    8.7583   23.8651  90.0000  90.0000  90.0000  19 1

