# MOL2 file generated by ConQuest
# Please check atom types

@<TRIPOS>MOLECULE
PADZAX
    35    38     1
SMALL
NO_CHARGES
****
Generated from CSD

@<TRIPOS>ATOM
      1 C1         3.1378    4.4528    6.1524 C.ar      1 RES1    0.0000
      2 H1         3.6339    5.2343    6.2446 H         1 RES1    0.0000
      3 C2         2.3120    4.3518    5.0677 C.ar      1 RES1    0.0000
      4 H2         2.2676    5.0470    4.4521 H         1 RES1    0.0000
      5 C3         1.5434    3.2182    4.8846 C.ar      1 RES1    0.0000
      6 H3         0.9657    3.1379    4.1603 H         1 RES1    0.0000
      7 C4         1.6688    2.2086    5.8202 C.ar      1 RES1    0.0000
      8 C5         2.5613    2.4129    6.8856 C.ar      1 RES1    0.0000
      9 C6         2.5920    1.1835    7.7121 C.ar      1 RES1    0.0000
     10 C7         1.7514    0.2432    7.1298 C.ar      1 RES1    0.0000
     11 C8         1.6559   -1.0078    7.6979 C.ar      1 RES1    0.0000
     12 H4         1.1109   -1.6666    7.3328 H         1 RES1    0.0000
     13 C9         2.4041   -1.2382    8.8334 C.ar      1 RES1    0.0000
     14 H5         2.3839   -2.0721    9.2458 H         1 RES1    0.0000
     15 C10        3.1759   -0.2317    9.3497 C.ar      1 RES1    0.0000
     16 H6         3.6482   -0.4109   10.1307 H         1 RES1    0.0000
     17 C11        1.1287    0.8303    5.9479 C.2       1 RES1    0.0000
     18 C12       -1.2358   -0.1610    3.4762 C.ar      1 RES1    0.0000
     19 C13       -1.8520    0.3779    2.3939 C.ar      1 RES1    0.0000
     20 H7        -1.6786    1.2611    2.1575 H         1 RES1    0.0000
     21 C14       -2.7164   -0.3545    1.6566 C.ar      1 RES1    0.0000
     22 H8        -3.1248    0.0189    0.9086 H         1 RES1    0.0000
     23 C15       -2.9911   -1.6684    2.0200 C.ar      1 RES1    0.0000
     24 C16       -2.4135   -2.2356    3.1217 C.ar      1 RES1    0.0000
     25 H9        -2.6239   -3.1069    3.3675 H         1 RES1    0.0000
     26 C17       -1.4991   -1.4847    3.8755 C.ar      1 RES1    0.0000
     27 H10       -1.0789   -1.8512    4.6199 H         1 RES1    0.0000
     28 N1         3.2842    3.5084    7.0942 N.ar      1 RES1    0.0000
     29 N2         3.3055    1.0012    8.8139 N.ar      1 RES1    0.0000
     30 N3         0.2809    0.1054    5.2616 N.2       1 RES1    0.0000
     31 N4        -0.3282    0.6183    4.2039 N.pl3     1 RES1    0.0000
     32 N5        -3.9202   -2.4276    1.2117 N.pl3     1 RES1    0.0000
     33 O1        -4.4009   -1.9378    0.2175 O.2       1 RES1    0.0000
     34 O2        -4.1983   -3.5690    1.5774 O.2       1 RES1    0.0000
     35 H11       -0.2865    1.5494    4.1000 H         1 RES1    0.0000
@<TRIPOS>BOND
     1    1    2 1
     2    3    1 ar
     3    4    3 1
     4    5    3 ar
     5    6    5 1
     6    7    5 ar
     7    8    7 ar
     8    9    8 1
     9   10    9 ar
    10   11   10 ar
    11   12   11 1
    12   13   11 ar
    13   14   13 1
    14   15   13 ar
    15   16   15 1
    16   17    7 1
    17   18   19 ar
    18   19   20 1
    19   21   19 ar
    20   22   21 1
    21   23   21 ar
    22   24   23 ar
    23   25   24 1
    24   26   18 ar
    25   27   26 1
    26   28    1 ar
    27   29    9 ar
    28   30   17 2
    29   31   18 1
    30   32   23 1
    31   33   32 2
    32   34   32 2
    33   35   31 1
    34    8   28 ar
    35   10   17 1
    36   15   29 ar
    37   24   26 ar
    38   30   31 1
@<TRIPOS>SUBSTRUCTURE
     1 RES1 1

@<TRIPOS>CRYSIN
   9.0630   13.4730   12.2150  90.0000 104.6910  90.0000 231 1

