# MOL2 file generated by ConQuest
# Please check atom types

@<TRIPOS>MOLECULE
PAFCOR
    38    41     1
SMALL
NO_CHARGES
****
Generated from CSD

@<TRIPOS>ATOM
      1 C1         1.7328   -1.4602    4.2831 C.ar      1 RES1    0.0000
      2 C2         2.5392   -2.4028    4.9335 C.ar      1 RES1    0.0000
      3 H1         2.4563   -3.3300    4.7480 H         1 RES1    0.0000
      4 C3         3.4421   -1.9474    5.8386 C.ar      1 RES1    0.0000
      5 H2         4.0160   -2.5665    6.2744 H         1 RES1    0.0000
      6 C4         3.5471   -0.5645    6.1470 C.ar      1 RES1    0.0000
      7 C5         2.6656    0.3623    5.5286 C.ar      1 RES1    0.0000
      8 C6         1.7755   -0.1170    4.5435 C.ar      1 RES1    0.0000
      9 H3         1.2137    0.4834    4.0684 H         1 RES1    0.0000
     10 C7         2.7540    1.7467    5.9120 C.ar      1 RES1    0.0000
     11 C8         3.7281    2.0862    6.8404 C.ar      1 RES1    0.0000
     12 C9         3.8527    3.4603    7.4341 C.2       1 RES1    0.0000
     13 C10        5.1622    3.8601    8.0452 C.3       1 RES1    0.0000
     14 H4         5.0106    4.0707    9.0005 H         1 RES1    0.0000
     15 H5         5.4731    4.6910    7.6036 H         1 RES1    0.0000
     16 C11        6.2683    2.8277    7.9513 C.3       1 RES1    0.0000
     17 H6         6.9993    3.0603    8.5770 H         1 RES1    0.0000
     18 H7         6.6375    2.8134    7.0332 H         1 RES1    0.0000
     19 C12        5.7073    1.4617    8.3020 C.3       1 RES1    0.0000
     20 H8         6.4299    0.7863    8.2584 H         1 RES1    0.0000
     21 H9         5.3562    1.4751    9.2275 H         1 RES1    0.0000
     22 C13        4.6063    1.0807    7.3533 C.ar      1 RES1    0.0000
     23 C14        1.8573    2.7470    5.2652 C.ar      1 RES1    0.0000
     24 C15        2.4147    3.8514    4.6141 C.ar      1 RES1    0.0000
     25 H10        3.3551    3.9814    4.6323 H         1 RES1    0.0000
     26 C16        1.6126    4.7568    3.9455 C.ar      1 RES1    0.0000
     27 H11        2.0043    5.4939    3.4937 H         1 RES1    0.0000
     28 C17        0.2367    4.5883    3.9338 C.ar      1 RES1    0.0000
     29 H12       -0.3150    5.2118    3.4762 H         1 RES1    0.0000
     30 C18       -0.3329    3.5067    4.5923 C.ar      1 RES1    0.0000
     31 H13       -1.2759    3.3964    4.5930 H         1 RES1    0.0000
     32 C19        0.4716    2.5880    5.2478 C.ar      1 RES1    0.0000
     33 H14        0.0759    1.8445    5.6880 H         1 RES1    0.0000
     34 N1         4.5114   -0.1977    7.0397 N.ar      1 RES1    0.0000
     35 N2         0.8114   -1.9426    3.2449 N.pl3     1 RES1    0.0000
     36 O1         2.9170    4.2205    7.4819 O.2       1 RES1    0.0000
     37 O2         0.0451   -1.1486    2.7196 O.2       1 RES1    0.0000
     38 O3         0.8502   -3.1343    2.9531 O.2       1 RES1    0.0000
@<TRIPOS>BOND
     1    1    2 ar
     2    2    3 1
     3    4    2 ar
     4    5    4 1
     5    6    4 ar
     6    7    6 ar
     7    8    1 ar
     8    9    8 1
     9   10    7 ar
    10   11   10 ar
    11   12   11 1
    12   13   12 1
    13   14   13 1
    14   15   13 1
    15   16   13 1
    16   17   16 1
    17   18   16 1
    18   19   16 1
    19   20   19 1
    20   21   19 1
    21   22   11 ar
    22   23   10 1
    23   24   23 ar
    24   25   24 1
    25   26   24 ar
    26   27   26 1
    27   28   26 ar
    28   29   28 1
    29   30   28 ar
    30   31   30 1
    31   32   23 ar
    32   33   32 1
    33   34    6 ar
    34   35    1 1
    35   36   12 2
    36   37   35 2
    37   38   35 2
    38    7    8 ar
    39   19   22 1
    40   22   34 ar
    41   30   32 ar
@<TRIPOS>SUBSTRUCTURE
     1 RES1 1

@<TRIPOS>CRYSIN
   9.7295   20.7475    7.8417  90.0000 111.9070  90.0000  14 1

