# MOL2 file generated by ConQuest
# Please check atom types

@<TRIPOS>MOLECULE
PAFHEL
    72    74     2
SMALL
NO_CHARGES
****
Generated from CSD

@<TRIPOS>ATOM
      1 O1         0.9346    3.2008    9.5783 O.2       1 RES1    0.0000
      2 O2        -2.7643    2.1697   10.9130 O.3       1 RES1    0.0000
      3 N1        -3.2250    3.3225    7.6443 N.am      1 RES1    0.0000
      4 C1        -0.1087    4.2561   12.4193 C.3       1 RES1    0.0000
      5 O3        -3.6608    4.6363    7.7990 O.3       1 RES1    0.0000
      6 O4        -1.6462    1.7982    8.1255 O.2       1 RES1    0.0000
      7 C2         0.7803    5.5184   12.4208 C.ar      1 RES1    0.0000
      8 C3         0.7274    2.9992   12.7348 C.ar      1 RES1    0.0000
      9 C4         2.5740    6.7874   11.4002 C.ar      1 RES1    0.0000
     10 H1         3.2305    6.8729   10.7183 H         1 RES1    0.0000
     11 C5         0.2945    1.7412   12.3469 C.ar      1 RES1    0.0000
     12 H2        -0.4678    1.6612   11.7866 H         1 RES1    0.0000
     13 C6         1.8637    3.0978   13.5353 C.ar      1 RES1    0.0000
     14 H3         2.1831    3.9504   13.8047 H         1 RES1    0.0000
     15 C7         1.7369    5.6795   11.4126 C.ar      1 RES1    0.0000
     16 H4         2.3164    4.8774   11.4280 Du        2 SUP2    0.0000
     17 H5         1.2548    5.6686   10.5475 Du        2 SUP2    0.0000
     18 C8        -3.7791    1.2383   10.5705 C.3       1 RES1    0.0000
     19 H6        -4.1414    1.4432    9.6716 H         1 RES1    0.0000
     20 H7        -4.5201    1.2854   11.2248 H         1 RES1    0.0000
     21 C9        -3.2425    4.7886   15.3933 C.ar      1 RES1    0.0000
     22 H8        -3.9158    4.9223   16.0505 H         1 RES1    0.0000
     23 N2        -0.7098    4.0797   11.0531 N.am      1 RES1    0.0000
     24 C10       -2.1533    5.4593   13.3675 C.ar      1 RES1    0.0000
     25 H9        -2.0861    6.0674   12.6409 H         1 RES1    0.0000
     26 C11        2.4622    7.7670   12.3685 C.ar      1 RES1    0.0000
     27 H10        3.0227    8.5330   12.3392 H         1 RES1    0.0000
     28 C12       -2.0767    2.9346    8.2492 C.2       1 RES1    0.0000
     29 C13        2.5353    1.9374   13.9432 C.ar      1 RES1    0.0000
     30 H11        3.3153    2.0097   14.4820 H         1 RES1    0.0000
     31 C14       -3.1438    5.6423   14.3142 C.ar      1 RES1    0.0000
     32 H12       -3.7597    6.3600   14.2203 H         1 RES1    0.0000
     33 C15       -2.0369    4.3854   10.4551 C.3       1 RES1    0.0000
     34 H13       -2.2524    5.3607   10.5090 H         1 RES1    0.0000
     35 C16       -1.2488    4.3974   13.4568 C.ar      1 RES1    0.0000
     36 C17       -2.3528    3.7356   15.5102 C.ar      1 RES1    0.0000
     37 H14       -2.4102    3.1439   16.2522 H         1 RES1    0.0000
     38 C18       -3.3136   -0.9928    9.5023 C.ar      1 RES1    0.0000
     39 H15       -3.8607   -0.7353    8.7695 H         1 RES1    0.0000
     40 C19        1.5389    7.6279   13.3721 C.ar      1 RES1    0.0000
     41 H16        1.4566    8.2985   14.0402 H         1 RES1    0.0000
     42 C20       -3.1647   -0.1293   10.5813 C.ar      1 RES1    0.0000
     43 C21        0.7148    6.4926   13.4091 C.ar      1 RES1    0.0000
     44 H17        0.0991    6.3874   14.1249 H         1 RES1    0.0000
     45 C22       -2.6760   -2.2256    9.4761 C.ar      1 RES1    0.0000
     46 H18       -2.7833   -2.8063    8.7311 H         1 RES1    0.0000
     47 C23       -3.3741    5.3924    6.5852 C.3       1 RES1    0.0000
     48 H19       -3.6318    6.3293    6.7145 H         1 RES1    0.0000
     49 H20       -3.8813    5.0144    5.8371 H         1 RES1    0.0000
     50 H21       -2.4152    5.3420    6.3882 H         1 RES1    0.0000
     51 C24       -3.1951    3.5285   10.9138 C.3       1 RES1    0.0000
     52 H22       -3.4771    3.7969   11.8236 H         1 RES1    0.0000
     53 H23       -3.9642    3.6424   10.3012 H         1 RES1    0.0000
     54 C25       -1.4125    4.0084    9.0882 C.3       1 RES1    0.0000
     55 H24       -1.2535    4.8292    8.5402 H         1 RES1    0.0000
     56 C26        2.0768    0.6991   13.5738 C.ar      1 RES1    0.0000
     57 H25        2.5250   -0.0833   13.8709 H         1 RES1    0.0000
     58 C27        0.9607    0.5928   12.7641 C.ar      1 RES1    0.0000
     59 H26        0.6486   -0.2630   12.4932 H         1 RES1    0.0000
     60 C28       -2.4049   -0.5534   11.6681 C.ar      1 RES1    0.0000
     61 H27       -2.3294    0.0011   12.4362 H         1 RES1    0.0000
     62 C29       -1.7595   -1.7741   11.6373 C.ar      1 RES1    0.0000
     63 H28       -1.2269   -2.0426   12.3777 H         1 RES1    0.0000
     64 C30       -4.1057    2.4546    6.9070 C.3       1 RES1    0.0000
     65 H29       -3.7793    1.5319    6.9639 H         1 RES1    0.0000
     66 H30       -4.1300    2.7351    5.9680 H         1 RES1    0.0000
     67 H31       -5.0078    2.5061    7.2872 H         1 RES1    0.0000
     68 C31       -1.8786   -2.6014   10.5521 C.ar      1 RES1    0.0000
     69 H32       -1.4161   -3.4320   10.5336 H         1 RES1    0.0000
     70 C32       -1.3690    3.5438   14.5343 C.ar      1 RES1    0.0000
     71 H33       -0.7704    2.8107   14.6159 H         1 RES1    0.0000
     72 C33       -0.1598    3.6413    9.8702 C.2       1 RES1    0.0000
@<TRIPOS>BOND
     1    1   72 2
     2    2   18 1
     3    3    5 1
     4    4    7 1
     5    5   47 1
     6    6   28 2
     7    7   15 ar
     8    8    4 1
     9    9   10 1
    10   11    8 ar
    11   12   11 1
    12   13    8 ar
    13   14   13 1
    14   15    9 ar
    15   18   19 1
    16   20   18 1
    17   21   22 1
    18   23    4 1
    19   24   25 1
    20   26    9 ar
    21   27   26 1
    22   28    3 1
    23   29   13 ar
    24   30   29 1
    25   31   21 ar
    26   32   31 1
    27   33   23 1
    28   34   33 1
    29   35    4 1
    30   36   21 ar
    31   37   36 1
    32   38   39 1
    33   40   26 ar
    34   41   40 1
    35   42   18 1
    36   43    7 ar
    37   44   43 1
    38   45   38 ar
    39   46   45 1
    40   47   48 1
    41   49   47 1
    42   50   47 1
    43   51    2 1
    44   52   51 1
    45   53   51 1
    46   54   28 1
    47   55   54 1
    48   56   29 ar
    49   57   56 1
    50   58   11 ar
    51   59   58 1
    52   60   42 ar
    53   61   60 1
    54   62   60 ar
    55   63   62 1
    56   64    3 1
    57   65   64 1
    58   66   64 1
    59   67   64 1
    60   68   45 ar
    61   69   68 1
    62   70   35 ar
    63   71   70 1
    64   72   23 1
    65   24   31 ar
    66   24   35 ar
    67   33   51 1
    68   33   54 1
    69   36   70 ar
    70   38   42 ar
    71   40   43 ar
    72   54   72 1
    73   56   58 ar
    74   62   68 ar
@<TRIPOS>SUBSTRUCTURE
     1 RES1 1
     2 SUP2 16

@<TRIPOS>CRYSIN
   7.7600   10.9580   15.6100  90.0000  99.5590  90.0000   4 1

