# MOL2 file generated by ConQuest
# Please check atom types

@<TRIPOS>MOLECULE
PAFTEV
    59    60     1
SMALL
NO_CHARGES
****
Generated from CSD

@<TRIPOS>ATOM
      1 O1        10.1309   -7.0974    3.4412 O.2       1 RES1    0.0000
      2 O2        10.8390   -6.7738    1.5021 O.2       1 RES1    0.0000
      3 O3         7.7501   -0.7362    1.2689 O.3       1 RES1    0.0000
      4 O4         7.6089   -0.6277    3.5008 O.2       1 RES1    0.0000
      5 O5         4.8951   -1.4171    0.5956 O.3       1 RES1    0.0000
      6 O6         3.9675    1.9785    0.4997 O.2       1 RES1    0.0000
      7 N1        10.2880   -6.3786    2.4742 N.pl3     1 RES1    0.0000
      8 N2         3.3213    0.2107    1.7090 N.am      1 RES1    0.0000
      9 C1         8.6000   -2.5388    2.4691 C.ar      1 RES1    0.0000
     10 C2         9.0121   -3.1100    1.2790 C.ar      1 RES1    0.0000
     11 C3         9.5832   -4.3686    1.2961 C.ar      1 RES1    0.0000
     12 C4         9.7306   -5.0288    2.4823 C.ar      1 RES1    0.0000
     13 C5         9.3410   -4.4739    3.6845 C.ar      1 RES1    0.0000
     14 C6         8.7903   -3.2088    3.6684 C.ar      1 RES1    0.0000
     15 C7         7.9520   -1.1999    2.4863 C.2       1 RES1    0.0000
     16 C8         7.0715    0.5419    1.0963 C.3       1 RES1    0.0000
     17 C9         8.0971    1.6191    1.0842 C.3       1 RES1    0.0000
     18 C10        6.3016    0.4387   -0.2029 C.3       1 RES1    0.0000
     19 C11        4.8839   -0.1596   -0.0909 C.3       1 RES1    0.0000
     20 C12        4.1994   -0.2671   -1.4667 C.3       1 RES1    0.0000
     21 C13        4.8727   -1.1901   -2.4691 C.3       1 RES1    0.0000
     22 C14        4.0678   -1.3443   -3.7350 C.3       1 RES1    0.0000
     23 C15        4.0191    0.7721    0.7490 C.2       1 RES1    0.0000
     24 C16        2.4444    0.9360    2.6417 C.3       1 RES1    0.0000
     25 C17        1.1697    0.1325    2.8325 C.3       1 RES1    0.0000
     26 C18        3.1342    1.2607    3.9571 C.ar      1 RES1    0.0000
     27 C19        2.5028    2.1132    4.8636 C.ar      1 RES1    0.0000
     28 C20        3.0805    2.3901    6.0890 C.ar      1 RES1    0.0000
     29 C21        4.2902    1.7830    6.4363 C.ar      1 RES1    0.0000
     30 C22        4.8894    0.9741    5.5601 C.ar      1 RES1    0.0000
     31 C23        4.3219    0.6787    4.3275 C.ar      1 RES1    0.0000
     32 H1         5.1485   -2.1827    0.1110 H         1 RES1    0.0000
     33 H2         3.5253   -0.8470    2.0593 H         1 RES1    0.0000
     34 H3         8.9604   -2.3781    0.5249 H         1 RES1    0.0000
     35 H4         9.7206   -4.6585    0.5855 H         1 RES1    0.0000
     36 H5         9.4423   -4.7562    4.4618 H         1 RES1    0.0000
     37 H6         8.5045   -2.7365    4.4820 H         1 RES1    0.0000
     38 H7         6.4720    0.7927    1.9281 H         1 RES1    0.0000
     39 H8         7.5367    2.7473    0.9186 H         1 RES1    0.0000
     40 H9         8.4889    1.8135    2.0896 H         1 RES1    0.0000
     41 H10        8.3831    1.7700    0.5148 H         1 RES1    0.0000
     42 H11        6.1767    1.5203   -0.4644 H         1 RES1    0.0000
     43 H12        6.7046   -0.1412   -0.7268 H         1 RES1    0.0000
     44 H13        4.2422    0.8470   -1.8675 H         1 RES1    0.0000
     45 H14        3.4060   -0.7276   -1.3123 H         1 RES1    0.0000
     46 H15        5.7188   -0.9882   -2.6044 H         1 RES1    0.0000
     47 H16        5.0059   -2.2261   -1.8574 H         1 RES1    0.0000
     48 H17        4.4809   -2.0741   -4.4315 H         1 RES1    0.0000
     49 H18        3.8258   -0.3258   -4.0075 H         1 RES1    0.0000
     50 H19        3.2181   -2.0306   -3.4927 H         1 RES1    0.0000
     51 H20        2.2129    1.7830    2.2329 H         1 RES1    0.0000
     52 H21        1.4731   -1.0207    3.1192 H         1 RES1    0.0000
     53 H22        0.7178   -0.1955    1.9483 H         1 RES1    0.0000
     54 H23        0.6219    0.9013    3.5028 H         1 RES1    0.0000
     55 H24        2.7889    2.7148    4.5123 H         1 RES1    0.0000
     56 H25        2.5369    3.0405    6.6725 H         1 RES1    0.0000
     57 H26        4.5610    2.3238    7.1470 H         1 RES1    0.0000
     58 H27        5.8021    0.4561    5.8347 H         1 RES1    0.0000
     59 H28        4.6253   -0.1412    3.7855 H         1 RES1    0.0000
@<TRIPOS>BOND
     1    1    7 2
     2    2    7 2
     3    3   15 1
     4    4   15 2
     5    5   19 1
     6    6   23 2
     7    7   12 1
     8    8   23 1
     9    9   10 ar
    10   10   11 ar
    11   11   12 ar
    12   12   13 ar
    13   13   14 ar
    14   14    9 ar
    15   15    9 1
    16   16    3 1
    17   17   16 1
    18   18   16 1
    19   19   18 1
    20   20   19 1
    21   21   20 1
    22   22   21 1
    23   23   19 1
    24   24    8 1
    25   25   24 1
    26   26   24 1
    27   27   26 ar
    28   28   27 ar
    29   29   28 ar
    30   30   29 ar
    31   31   26 ar
    32   32    5 1
    33   33    8 1
    34   34   10 1
    35   35   11 1
    36   36   13 1
    37   37   14 1
    38   38   16 1
    39   39   17 1
    40   40   17 1
    41   41   17 1
    42   42   18 1
    43   43   18 1
    44   44   20 1
    45   45   20 1
    46   46   21 1
    47   47   21 1
    48   48   22 1
    49   49   22 1
    50   50   22 1
    51   51   24 1
    52   52   25 1
    53   53   25 1
    54   54   25 1
    55   55   27 1
    56   56   28 1
    57   57   29 1
    58   58   30 1
    59   59   31 1
    60   30   31 ar
@<TRIPOS>SUBSTRUCTURE
     1 RES1 1

@<TRIPOS>CRYSIN
  10.3580   10.8590   10.4690  90.0000 105.3700  90.0000   4 1

