# MOL2 file generated by ConQuest
# Please check atom types

@<TRIPOS>MOLECULE
PAGQAS
    29    30     1
SMALL
USER_CHARGES
****
Generated from CSD

@<TRIPOS>ATOM
      1 N1         3.5554    9.8642    6.0196 N.pl3     1 RES1    0.0000
      2 C1         3.7051    9.1094    7.2754 C.ar      1 RES1    0.0000
      3 O1         2.4184   10.1041    5.6445 O.2       1 RES1    0.0000
      4 C2         4.7693    9.4622    8.0981 C.ar      1 RES1    0.0000
      5 H1         5.3822   10.1106    7.8366 H         1 RES1    0.0000
      6 N2         6.0422    9.1730   10.1546 N.pl3     1 RES1    0.0000
      7 O2         4.5843   10.2559    5.4907 O.2       1 RES1    0.0000
      8 N3         2.0911    6.3963    9.3278 N.pl3     1 RES1    0.0000
      9 O3         6.6775   10.1573    9.8637 O.2       1 RES1    0.0000
     10 C3         4.8849    8.8293    9.2951 C.ar      1 RES1    0.0000
     11 N4         0.7241    6.1668    3.6518 N.pl3     1 RES1    0.0000
     12 C4         4.0163    7.8618    9.7294 C.ar      1 RES1    0.0000
     13 H2         4.1169    7.4611   10.5632 H         1 RES1    0.0000
     14 O4         6.2946    8.4402   11.0989 O.2       1 RES1    0.0000
     15 N5         1.8590    7.6478    6.6735 N.pl3     1 RES1    0.0000
     16 C5         2.9820    7.5013    8.8791 C.ar      1 RES1    0.0000
     17 O5         2.0087    6.2316   10.5069 O.2       1 RES1    0.0000
     18 N6        -1.2931    8.6335    7.6675 N.1       1 RES1    1.0000
     19 C6         2.8270    8.0862    7.6248 C.ar      1 RES1    0.0000
     20 O6         1.5242    5.7349    8.4952 O.2       1 RES1    0.0000
     21 O7         1.6932    5.7894    3.0186 O.2       1 RES1    0.0000
     22 N7        -2.4002    8.8293    7.6967 N.2       1 RES1   -1.0000
     23 C7         2.1574    6.9812    5.5018 C.2       1 RES1    0.0000
     24 H3         2.9917    6.7244    5.1819 H         1 RES1    0.0000
     25 O8        -0.4556    6.0085    3.2886 O.2       1 RES1    0.0000
     26 C8         0.9412    6.7906    4.9265 C.2       1 RES1    0.0000
     27 N8        -0.0952    7.3067    5.6552 N.2       1 RES1    0.0000
     28 C9         0.4813    7.8073    6.6891 C.2       1 RES1    0.0000
     29 N9        -0.0610    8.4752    7.7880 N.2       1 RES1    0.0000
@<TRIPOS>BOND
     1    1    2 1
     2    2    4 ar
     3    3    1 2
     4    4    5 1
     5    6    9 2
     6    7    1 2
     7    8   16 1
     8   10    4 ar
     9   11   21 2
    10   12   10 ar
    11   13   12 1
    12   14    6 2
    13   15   19 1
    14   16   12 ar
    15   17    8 2
    16   18   22 2
    17   19    2 ar
    18   20    8 2
    19   23   15 1
    20   24   23 1
    21   25   11 2
    22   26   11 1
    23   27   26 1
    24   28   15 1
    25   29   18 2
    26    6   10 1
    27   16   19 ar
    28   23   26 2
    29   27   28 2
    30   28   29 1
@<TRIPOS>SUBSTRUCTURE
     1 RES1 1

@<TRIPOS>CRYSIN
  10.6960   12.9690   20.5630  90.0000  90.0000  90.0000  61 1

