# MOL2 file generated by ConQuest
# Please check atom types

@<TRIPOS>MOLECULE
PAHBEG01
    38    39     1
SMALL
NO_CHARGES
****
Generated from CSD

@<TRIPOS>ATOM
      1 C1         4.7426    4.4448    9.6379 C.ar      1 RES1    0.0000
      2 C2         5.6169    3.9803   10.6208 C.ar      1 RES1    0.0000
      3 C3         5.3705    4.2302   11.9631 C.ar      1 RES1    0.0000
      4 C4         4.2427    4.9558   12.2943 C.ar      1 RES1    0.0000
      5 C5         3.3681    5.4538   11.3454 C.ar      1 RES1    0.0000
      6 C6         3.6280    5.1947   10.0118 C.ar      1 RES1    0.0000
      7 N1         3.9369    5.1883   13.7163 N.pl3     1 RES1    0.0000
      8 O1         4.6337    4.6377   14.5548 O.2       1 RES1    0.0000
      9 O2         2.9753    5.9009   13.9929 O.2       1 RES1    0.0000
     10 C7         4.9644    4.0999    8.2180 C.2       1 RES1    0.0000
     11 N2         4.1654    4.4761    7.3150 N.2       1 RES1    0.0000
     12 C8         4.4127    4.0315    5.9501 C.3       1 RES1    0.0000
     13 H1         6.3722    3.4976   10.3738 H         1 RES1    0.0000
     14 H2         5.9484    3.9177   12.6215 H         1 RES1    0.0000
     15 H3         2.6234    5.9506   11.5982 H         1 RES1    0.0000
     16 H4         3.0535    5.5233    9.3585 H         1 RES1    0.0000
     17 H5         5.7090    3.5945    7.9845 H         1 RES1    0.0000
     18 H6         5.2259    3.5034    5.9184 H         1 RES1    0.0000
     19 H7         4.5278    4.8004    5.3702 H         1 RES1    0.0000
     20 C8B        3.2412    3.1980    5.4711 C.3       1 RES1    0.0000
     21 N2B        3.4885    2.7534    4.1061 N.2       1 RES1    0.0000
     22 C7B        2.6896    3.1296    3.2032 C.2       1 RES1    0.0000
     23 C1B        2.9113    2.7847    1.7833 C.ar      1 RES1    0.0000
     24 C2B        2.0371    3.2492    0.8004 C.ar      1 RES1    0.0000
     25 C3B        2.2834    2.9993   -0.5419 C.ar      1 RES1    0.0000
     26 C4B        3.4113    2.2737   -0.8731 C.ar      1 RES1    0.0000
     27 C5B        4.2859    1.7757    0.0757 C.ar      1 RES1    0.0000
     28 C6B        4.0259    2.0348    1.4094 C.ar      1 RES1    0.0000
     29 H4B        4.6004    1.7062    2.0627 H         1 RES1    0.0000
     30 H3B        5.0305    1.2789   -0.1770 H         1 RES1    0.0000
     31 N1B        3.7170    2.0412   -2.2952 N.pl3     1 RES1    0.0000
     32 O1B        3.0202    2.5918   -3.1336 O.2       1 RES1    0.0000
     33 O2B        4.6786    1.3286   -2.5717 O.2       1 RES1    0.0000
     34 H2B        1.7056    3.3118   -1.2004 H         1 RES1    0.0000
     35 H1B        1.2817    3.7319    1.0473 H         1 RES1    0.0000
     36 H5B        1.9449    3.6350    3.4366 H         1 RES1    0.0000
     37 H6B        2.4281    3.7261    5.5027 H         1 RES1    0.0000
     38 H7B        3.1262    2.4291    6.0509 H         1 RES1    0.0000
@<TRIPOS>BOND
     1    1    2 ar
     2    2    3 ar
     3    3    4 ar
     4    4    5 ar
     5    5    6 ar
     6    6    1 ar
     7    7    4 1
     8    8    7 2
     9    9    7 2
    10   10    1 1
    11   11   10 2
    12   12   11 1
    13   13    2 1
    14   14    3 1
    15   15    5 1
    16   16    6 1
    17   17   10 1
    18   18   12 1
    19   19   12 1
    20   20   12 1
    21   21   20 1
    22   22   21 2
    23   23   22 1
    24   24   23 ar
    25   25   24 ar
    26   26   25 ar
    27   27   26 ar
    28   28   23 ar
    29   29   28 1
    30   30   27 1
    31   31   26 1
    32   32   31 2
    33   33   31 2
    34   34   25 1
    35   35   24 1
    36   36   22 1
    37   37   20 1
    38   38   20 1
    39   27   28 ar
@<TRIPOS>SUBSTRUCTURE
     1 RES1 1

@<TRIPOS>CRYSIN
   9.1606    7.2295   11.5201  90.0000  97.5150  90.0000 231 1

