# MOL2 file generated by ConQuest
# Please check atom types

@<TRIPOS>MOLECULE
PAHKAL
    31    31     1
SMALL
NO_CHARGES
****
Generated from CSD

@<TRIPOS>ATOM
      1 O1        -0.9889    2.9051    6.2577 O.3       1 RES1    0.0000
      2 O2        -1.4286    6.8309    7.7955 O.2       1 RES1    0.0000
      3 N1         0.1651    3.1445    5.4581 N.2       1 RES1    0.0000
      4 N2         0.3652    7.3071    6.4828 N.am      1 RES1    0.0000
      5 H1         0.9272    7.0543    5.8961 H         1 RES1    0.0000
      6 N3         0.1700    9.1356    9.4345 N.1       1 RES1    0.0000
      7 C1        -2.5594    3.9780    7.7580 C.3       1 RES1    0.0000
      8 H2        -3.1833    3.3394    7.4053 H         1 RES1    0.0000
      9 H3        -2.9790    4.8394    7.8121 H         1 RES1    0.0000
     10 H4        -2.2797    3.7022    8.6343 H         1 RES1    0.0000
     11 C2        -1.3717    4.0590    6.8610 C.2       1 RES1    0.0000
     12 C3        -0.5193    5.0586    6.4885 C.2       1 RES1    0.0000
     13 C4         0.4107    4.4154    5.6201 C.2       1 RES1    0.0000
     14 H5         1.1189    4.8563    5.2113 H         1 RES1    0.0000
     15 C5        -0.5842    6.4590    6.9720 C.2       1 RES1    0.0000
     16 C6         0.4238    8.7359    6.8333 C.3       1 RES1    0.0000
     17 C7         0.2550    8.8887    8.3187 C.1       1 RES1    0.0000
     18 C8        -0.7047    9.5207    6.1114 C.3       1 RES1    0.0000
     19 H6        -0.5289    9.5419    5.1691 H         1 RES1    0.0000
     20 H7        -0.7382   10.4181    6.4511 H         1 RES1    0.0000
     21 H8        -1.5478    9.0879    6.2704 H         1 RES1    0.0000
     22 C9         1.8343    9.2755    6.4601 C.3       1 RES1    0.0000
     23 H9         1.9237    9.2109    5.4861 H         1 RES1    0.0000
     24 C10        2.9622    8.4408    7.0797 C.3       1 RES1    0.0000
     25 H10        3.8103    8.8089    6.8233 H         1 RES1    0.0000
     26 H11        2.8992    7.5349    6.7670 H         1 RES1    0.0000
     27 H12        2.8819    8.4556    8.0360 H         1 RES1    0.0000
     28 C11        1.9885   10.7597    6.8384 C.3       1 RES1    0.0000
     29 H13        1.8467   10.8668    7.7818 H         1 RES1    0.0000
     30 H14        1.3437   11.2816    6.3559 H         1 RES1    0.0000
     31 H15        2.8730   11.0578    6.6123 H         1 RES1    0.0000
@<TRIPOS>BOND
     1    1    3 1
     2    2   15 2
     3    3   13 2
     4    4    5 1
     5    6   17 3
     6    7    8 1
     7    9    7 1
     8   10    7 1
     9   11    1 1
    10   12   11 2
    11   13   12 1
    12   14   13 1
    13   15    4 1
    14   16    4 1
    15   17   16 1
    16   18   16 1
    17   19   18 1
    18   20   18 1
    19   21   18 1
    20   22   16 1
    21   23   22 1
    22   24   22 1
    23   25   24 1
    24   26   24 1
    25   27   24 1
    26   28   22 1
    27   29   28 1
    28   30   28 1
    29   31   28 1
    30    7   11 1
    31   12   15 1
@<TRIPOS>SUBSTRUCTURE
     1 RES1 1

@<TRIPOS>CRYSIN
  10.7380   10.6080   11.6230  90.0000 111.4420  90.0000  14 1

