# MOL2 file generated by ConQuest
# Please check atom types

@<TRIPOS>MOLECULE
PAJXEG
    30    32     1
SMALL
NO_CHARGES
****
Generated from CSD

@<TRIPOS>ATOM
      1 N1        -3.0286    2.2120   -1.6896 N.pl3     1 RES1    0.0000
      2 O1        -3.9081    1.4044   -1.3746 O.2       1 RES1    0.0000
      3 C1        -1.6897    1.3558    0.1714 C.ar      1 RES1    0.0000
      4 H1        -2.5036    0.7649    0.3737 H         1 RES1    0.0000
      5 O2         3.8924    1.7360    2.8162 O.2       1 RES1    0.0000
      6 C2        -0.5078    1.3737    0.8934 C.ar      1 RES1    0.0000
      7 C3        -0.0330    0.6295    2.0357 C.ar      1 RES1    0.0000
      8 N2         1.6017    2.0533    1.3852 N.pl3     1 RES1    0.0000
      9 H2         2.3331    2.5196    1.3911 H         1 RES1    0.0000
     10 N3         1.4510    4.0202   -0.9478 N.pl3     1 RES1    0.0000
     11 N4         3.3838    0.9295    3.6028 N.pl3     1 RES1    0.0000
     12 O3         2.4260    4.1126   -0.2031 O.2       1 RES1    0.0000
     13 C4         0.3942    3.0884   -0.5728 C.ar      1 RES1    0.0000
     14 C5         0.5470    2.2512    0.5296 C.ar      1 RES1    0.0000
     15 C6        -1.7896    2.2093   -0.9121 C.ar      1 RES1    0.0000
     16 C7         0.1715   -0.9114    3.8159 C.ar      1 RES1    0.0000
     17 C8        -0.6054   -0.3636    2.8076 C.ar      1 RES1    0.0000
     18 H3        -1.4492   -0.7634    2.6160 H         1 RES1    0.0000
     19 C9         1.4686   -0.5069    4.0907 C.ar      1 RES1    0.0000
     20 H4         2.0195   -0.7665    4.8983 H         1 RES1    0.0000
     21 C10       -0.7710    3.0742   -1.2968 C.ar      1 RES1    0.0000
     22 H5        -0.8728    3.6572   -2.0524 H         1 RES1    0.0000
     23 C11        2.0173    0.5054    3.3340 C.ar      1 RES1    0.0000
     24 O4         1.3174    4.6517   -1.9746 O.2       1 RES1    0.0000
     25 C12        1.2844    1.0785    2.2946 C.ar      1 RES1    0.0000
     26 O5         3.9693    0.4510    4.5552 O.2       1 RES1    0.0000
     27 N5        -0.3779   -2.0293    4.5800 N.pl3     1 RES1    0.0000
     28 O6        -1.5694   -2.2557    4.4798 O.2       1 RES1    0.0000
     29 O7        -3.1361    2.9946   -2.6196 O.2       1 RES1    0.0000
     30 O8         0.3791   -2.6675    5.2767 O.2       1 RES1    0.0000
@<TRIPOS>BOND
     1    1    2 2
     2    3    4 1
     3    5   11 2
     4    6    3 ar
     5    7    6 1
     6    8    9 1
     7   10   12 2
     8   11   23 1
     9   13   10 1
    10   14    6 ar
    11   15    1 1
    12   16   17 ar
    13   17    7 ar
    14   18   17 1
    15   19   16 ar
    16   20   19 1
    17   21   13 ar
    18   22   21 1
    19   23   19 ar
    20   24   10 2
    21   25    7 ar
    22   26   11 2
    23   27   16 1
    24   28   27 2
    25   29    1 2
    26   30   27 2
    27    3   15 ar
    28    8   14 1
    29    8   25 1
    30   13   14 ar
    31   15   21 ar
    32   23   25 ar
@<TRIPOS>SUBSTRUCTURE
     1 RES1 1

@<TRIPOS>CRYSIN
   7.3465   15.0876   12.3372  90.0000 107.1460  90.0000  14 1

