# MOL2 file generated by ConQuest
# Please check atom types

@<TRIPOS>MOLECULE
PAKNUN
    54    57     1
SMALL
NO_CHARGES
****
Generated from CSD

@<TRIPOS>ATOM
      1 O1         7.1375    3.3173    8.4408 O.2       1 RES1    0.0000
      2 O2         3.3495    5.8161    9.2620 O.2       1 RES1    0.0000
      3 O3         2.7938    3.6834   12.8290 O.3       1 RES1    0.0000
      4 O4         6.9931   -1.6154    9.4117 O.3       1 RES1    0.0000
      5 O5         0.1768    2.3907   10.4830 O.3       1 RES1    0.0000
      6 N1         3.8022    2.8973   12.1633 N.3       1 RES1    0.0000
      7 N2         5.4417    4.9044    8.7155 N.am      1 RES1    0.0000
      8 N3         5.0135    2.8095    9.2140 N.am      1 RES1    0.0000
      9 N4         3.8588    3.5821    9.4234 N.am      1 RES1    0.0000
     10 N5         0.5819    1.9801    9.1922 N.2       1 RES1    0.0000
     11 C1         6.1425    6.0944    8.3594 C.ar      1 RES1    0.0000
     12 C2         5.6094    6.9534    7.4334 C.ar      1 RES1    0.0000
     13 C3         6.2794    8.1272    7.1224 C.ar      1 RES1    0.0000
     14 C4         7.4921    8.4000    7.7300 C.ar      1 RES1    0.0000
     15 C5         8.0078    7.5342    8.6486 C.ar      1 RES1    0.0000
     16 C6         7.3504    6.3645    8.9757 C.ar      1 RES1    0.0000
     17 C7         4.1071    4.8855    9.1559 C.2       1 RES1    0.0000
     18 C8         6.0035    3.6307    8.7518 C.2       1 RES1    0.0000
     19 C9         2.6578    3.0148   10.0280 C.3       1 RES1    0.0000
     20 C10        3.0914    2.0774   11.1269 C.3       1 RES1    0.0000
     21 C11        4.0879    1.0819   10.5993 C.ar      1 RES1    0.0000
     22 C12        4.0948   -0.2431   11.0019 C.ar      1 RES1    0.0000
     23 C13        5.0605   -1.1170   10.5847 C.ar      1 RES1    0.0000
     24 C14        6.0595   -0.6699    9.7431 C.ar      1 RES1    0.0000
     25 C15        6.0772    0.6308    9.2765 C.ar      1 RES1    0.0000
     26 C16        5.0756    1.4912    9.7082 C.ar      1 RES1    0.0000
     27 C17        1.7976    2.3002    8.9786 C.2       1 RES1    0.0000
     28 C18        2.3507    1.9666    7.6398 C.3       1 RES1    0.0000
     29 C19       -1.1197    1.8815   10.7417 C.3       1 RES1    0.0000
     30 C20        3.2630    5.0179   12.8552 C.3       1 RES1    0.0000
     31 C21        7.9953   -1.2670    8.5192 C.3       1 RES1    0.0000
     32 H1         2.2976    1.0117    7.4756 H         1 RES1    0.0000
     33 H2         1.8395    2.3934    6.9392 H         1 RES1    0.0000
     34 H3         3.2539    2.2314    7.5555 H         1 RES1    0.0000
     35 H4         8.5973   -2.0004    8.3521 H         1 RES1    0.0000
     36 H5         7.6225   -1.0103    7.6646 H         1 RES1    0.0000
     37 H6         8.5179   -0.5295    8.8361 H         1 RES1    0.0000
     38 H7        -1.4313    2.1422   11.6139 H         1 RES1    0.0000
     39 H8        -1.7581    2.1962   10.0993 H         1 RES1    0.0000
     40 H9        -1.1302    0.9171   10.7112 H         1 RES1    0.0000
     41 H10        4.1021    5.0948   13.3276 H         1 RES1    0.0000
     42 H11        3.4133    5.3555   11.9627 H         1 RES1    0.0000
     43 H12        2.6403    5.6122   13.2811 H         1 RES1    0.0000
     44 H13        6.7585    0.9293    8.6544 H         1 RES1    0.0000
     45 H14        4.7549    6.7508    7.0090 H         1 RES1    0.0000
     46 H15        3.3862   -0.5592   11.5877 H         1 RES1    0.0000
     47 H16        5.0567   -2.0517   10.8813 H         1 RES1    0.0000
     48 H17        7.7304    5.7364    9.6210 H         1 RES1    0.0000
     49 H18        7.9741    9.1969    7.4989 H         1 RES1    0.0000
     50 H19        5.9227    8.7404    6.4756 H         1 RES1    0.0000
     51 H20        8.8560    7.7773    9.0905 H         1 RES1    0.0000
     52 H21        2.1426    3.7360   10.4103 H         1 RES1    0.0000
     53 H22        2.3265    1.6262   11.5194 H         1 RES1    0.0000
     54 H23        3.8256    2.2327   12.5180 H         1 RES1    0.0000
@<TRIPOS>BOND
     1    1   18 2
     2    2   17 2
     3    3    6 1
     4    4   24 1
     5    5   10 1
     6    6   20 1
     7    7   11 1
     8    8    9 1
     9    9   17 1
    10   10   27 2
    11   11   12 ar
    12   12   13 ar
    13   13   14 ar
    14   14   15 ar
    15   15   16 ar
    16   16   11 ar
    17   17    7 1
    18   18    7 1
    19   19    9 1
    20   20   19 1
    21   21   20 1
    22   22   21 ar
    23   23   22 ar
    24   24   23 ar
    25   25   24 ar
    26   26    8 1
    27   27   19 1
    28   28   27 1
    29   29    5 1
    30   30    3 1
    31   31    4 1
    32   32   28 1
    33   33   28 1
    34   34   28 1
    35   35   31 1
    36   36   31 1
    37   37   31 1
    38   38   29 1
    39   39   29 1
    40   40   29 1
    41   41   30 1
    42   42   30 1
    43   43   30 1
    44   44   25 1
    45   45   12 1
    46   46   22 1
    47   47   23 1
    48   48   16 1
    49   49   14 1
    50   50   13 1
    51   51   15 1
    52   52   19 1
    53   53   20 1
    54   54    6 1
    55    8   18 1
    56   21   26 ar
    57   25   26 ar
@<TRIPOS>SUBSTRUCTURE
     1 RES1 1

@<TRIPOS>CRYSIN
  10.8670   13.5070   15.1700  90.0000 106.6300  90.0000  14 1

