# MOL2 file generated by ConQuest
# Please check atom types

@<TRIPOS>MOLECULE
PAKQOJ
    47    48     1
SMALL
NO_CHARGES
****
Generated from CSD

@<TRIPOS>ATOM
      1 C1         3.9975    0.5645    9.4486 C.3       1 RES1    0.0000
      2 H1         4.5073    1.4146    9.5792 H         1 RES1    0.0000
      3 C2         2.7296    0.5594   10.2937 C.3       1 RES1    0.0000
      4 H2         2.1745   -0.2420   10.0698 H         1 RES1    0.0000
      5 O1         1.9921    1.7564   10.0172 O.3       1 RES1    0.0000
      6 C3         0.7364    1.6192    9.4898 C.2       1 RES1    0.0000
      7 O2         0.2098    0.5599    9.3289 O.2       1 RES1    0.0000
      8 C4         0.1476    2.9625    9.2016 C.3       1 RES1    0.0000
      9 H3        -0.3724    3.2646    9.9753 H         1 RES1    0.0000
     10 H4        -0.4374    2.9015    8.4182 H         1 RES1    0.0000
     11 H5         0.8679    3.6032    9.0216 H         1 RES1    0.0000
     12 C5         3.0533    0.5673   11.7824 C.3       1 RES1    0.0000
     13 H6         3.3282    1.4895   12.0546 H         1 RES1    0.0000
     14 O3         1.7945    0.2330   12.4265 O.3       1 RES1    0.0000
     15 C6         1.4432    0.9101   13.5420 C.2       1 RES1    0.0000
     16 O4         2.1695    1.6719   14.1086 O.2       1 RES1    0.0000
     17 C7         0.0325    0.5841   13.9379 C.3       1 RES1    0.0000
     18 H7        -0.1138   -0.3822   13.8624 H         1 RES1    0.0000
     19 H8        -0.5903    1.0560   13.3468 H         1 RES1    0.0000
     20 H9        -0.1202    0.8653   14.8646 H         1 RES1    0.0000
     21 C8         4.1543   -0.4156   12.1555 C.3       1 RES1    0.0000
     22 H10        3.7898   -1.3450   12.2186 H         1 RES1    0.0000
     23 O5         4.7462   -0.0143   13.4155 O.3       1 RES1    0.0000
     24 C9         4.2666   -0.5911   14.5439 C.2       1 RES1    0.0000
     25 O6         3.4278   -1.4526   14.5429 O.2       1 RES1    0.0000
     26 C10        4.9473   -0.0305   15.7575 C.3       1 RES1    0.0000
     27 H11        5.0235    0.9428   15.6688 H         1 RES1    0.0000
     28 H12        5.8420   -0.4213   15.8406 H         1 RES1    0.0000
     29 H13        4.4218   -0.2455   16.5556 H         1 RES1    0.0000
     30 C11        5.3023   -0.3543   11.1452 C.3       1 RES1    0.0000
     31 H14        5.7519    0.5258   11.2019 H         1 RES1    0.0000
     32 H15        5.9688   -1.0568   11.3515 H         1 RES1    0.0000
     33 O7         4.7818   -0.5518    9.8197 O.3       1 RES1    0.0000
     34 O8         3.5970    0.4268    8.1132 O.3       1 RES1    0.0000
     35 C12        4.4687    0.9001    7.1563 C.ar      1 RES1    0.0000
     36 C13        3.9507    1.4747    6.0002 C.ar      1 RES1    0.0000
     37 N1         2.5015    1.6547    5.8368 N.pl3     1 RES1    0.0000
     38 O9         1.8618    2.1180    6.7769 O.2       1 RES1    0.0000
     39 O10        2.0163    1.3579    4.7577 O.2       1 RES1    0.0000
     40 C14        4.7631    1.9022    4.9618 C.ar      1 RES1    0.0000
     41 H16        4.3821    2.2695    4.1730 H         1 RES1    0.0000
     42 C15        6.1380    1.7864    5.0900 C.ar      1 RES1    0.0000
     43 H17        6.7103    2.0884    4.3947 H         1 RES1    0.0000
     44 C16        6.6710    1.2266    6.2404 C.ar      1 RES1    0.0000
     45 H18        7.6146    1.1543    6.3297 H         1 RES1    0.0000
     46 C17        5.8514    0.7704    7.2641 C.ar      1 RES1    0.0000
     47 H19        6.2325    0.3700    8.0364 H         1 RES1    0.0000
@<TRIPOS>BOND
     1    1    2 1
     2    3    1 1
     3    4    3 1
     4    5    3 1
     5    6    5 1
     6    7    6 2
     7    8    6 1
     8    9    8 1
     9   10    8 1
    10   11    8 1
    11   12    3 1
    12   13   12 1
    13   14   12 1
    14   15   14 1
    15   16   15 2
    16   17   15 1
    17   18   17 1
    18   19   17 1
    19   20   17 1
    20   21   12 1
    21   22   21 1
    22   23   21 1
    23   24   23 1
    24   25   24 2
    25   26   24 1
    26   27   26 1
    27   28   26 1
    28   29   26 1
    29   30   21 1
    30   31   30 1
    31   32   30 1
    32   33    1 1
    33   34    1 1
    34   35   34 1
    35   36   35 ar
    36   37   36 1
    37   38   37 2
    38   39   37 2
    39   40   36 ar
    40   41   40 1
    41   42   40 ar
    42   43   42 1
    43   44   42 ar
    44   45   44 1
    45   46   35 ar
    46   47   46 1
    47   30   33 1
    48   44   46 ar
@<TRIPOS>SUBSTRUCTURE
     1 RES1 1

@<TRIPOS>CRYSIN
   8.1735    8.7055   13.5548  90.0000 104.5760  90.0000   4 1

