# MOL2 file generated by ConQuest
# Please check atom types

@<TRIPOS>MOLECULE
PALBIO
    53    55     1
SMALL
NO_CHARGES
****
Generated from CSD

@<TRIPOS>ATOM
      1 O1         2.5374   16.5046   11.8888 O.3       1 RES1    0.0000
      2 O2         5.0011   13.5551   10.5101 O.3       1 RES1    0.0000
      3 O3         2.2141   13.5782    9.5517 O.3       1 RES1    0.0000
      4 O4         0.9117   11.7985   10.1049 O.3       1 RES1    0.0000
      5 O5         1.4626   11.0923   13.9408 O.3       1 RES1    0.0000
      6 O6        -0.3978   14.5032   12.7923 O.3       1 RES1    0.0000
      7 N1         4.2069   13.2805   11.6818 N.3       1 RES1    0.0000
      8 N2         0.2455   11.0352   13.1635 N.3       1 RES1    0.0000
      9 C1         2.8301   17.8948   11.7474 C.3       1 RES1    0.0000
     10 H1         2.0979   18.4120   12.0904 H         1 RES1    0.0000
     11 H2         2.9603   18.1012   10.8185 H         1 RES1    0.0000
     12 H3         3.6282   18.1056   12.2376 H         1 RES1    0.0000
     13 C2         3.5006   15.6342   11.4591 C.2       1 RES1    0.0000
     14 C3         4.6622   15.9278   10.9215 C.2       1 RES1    0.0000
     15 H4         4.8990   16.8185   10.7949 H         1 RES1    0.0000
     16 C4         5.6030   14.8515   10.5134 C.3       1 RES1    0.0000
     17 H5         5.9382   15.0462    9.6246 H         1 RES1    0.0000
     18 H6         6.3598   14.8468   11.1202 H         1 RES1    0.0000
     19 C5         5.0406   13.3481   12.8759 C.3       1 RES1    0.0000
     20 H7         4.5487   13.0130   13.6287 H         1 RES1    0.0000
     21 H8         5.2932   14.2605   13.0384 H         1 RES1    0.0000
     22 H9         5.8291   12.8165   12.7454 H         1 RES1    0.0000
     23 C6         3.0835   14.2152   11.7431 C.3       1 RES1    0.0000
     24 H10        2.7887   14.2106   12.6777 H         1 RES1    0.0000
     25 C7         1.8753   13.7508   10.9305 C.3       1 RES1    0.0000
     26 H11        1.1493   14.4041   11.0143 H         1 RES1    0.0000
     27 C8         1.3904   12.5615    9.0278 C.3       1 RES1    0.0000
     28 C9         2.2079   11.6731    8.1378 C.3       1 RES1    0.0000
     29 H12        2.5423   12.1833    7.3973 H         1 RES1    0.0000
     30 H13        1.6597   10.9563    7.8110 H         1 RES1    0.0000
     31 H14        2.9445   11.3110    8.6368 H         1 RES1    0.0000
     32 C10        0.2429   13.1581    8.3041 C.3       1 RES1    0.0000
     33 H15        0.5667   13.6844    7.5695 H         1 RES1    0.0000
     34 H16       -0.2561   13.7181    8.9033 H         1 RES1    0.0000
     35 H17       -0.3247   12.4589    7.9729 H         1 RES1    0.0000
     36 C11        1.3728   12.3659   11.3372 C.3       1 RES1    0.0000
     37 H18        2.1340   11.8388   11.6576 H         1 RES1    0.0000
     38 C12        0.2429   12.2693   12.3692 C.3       1 RES1    0.0000
     39 H19       -0.6010   12.2873   11.8710 H         1 RES1    0.0000
     40 C13        0.3546    9.8167   12.3671 C.3       1 RES1    0.0000
     41 H20        1.1572    9.8495   11.8416 H         1 RES1    0.0000
     42 H21       -0.4066    9.7454   11.7871 H         1 RES1    0.0000
     43 H22        0.3854    9.0550   12.9501 H         1 RES1    0.0000
     44 C14        1.2241   11.9854   15.0343 C.3       1 RES1    0.0000
     45 H23        2.0574   12.1437   15.5056 H         1 RES1    0.0000
     46 H24        0.6046   11.5720   15.6558 H         1 RES1    0.0000
     47 C15        0.6653   13.2856   14.5770 C.2       1 RES1    0.0000
     48 H25        0.6477   14.0127   15.1567 H         1 RES1    0.0000
     49 C16        0.1954   13.4091   13.3556 C.2       1 RES1    0.0000
     50 C17       -0.5166   15.6676   13.5831 C.3       1 RES1    0.0000
     51 H26       -1.0710   15.4830   14.3441 H         1 RES1    0.0000
     52 H27       -0.9126   16.3699   13.0605 H         1 RES1    0.0000
     53 H28        0.3546   15.9419   13.8804 H         1 RES1    0.0000
@<TRIPOS>BOND
     1    1    9 1
     2    2    7 1
     3    3   25 1
     4    4   27 1
     5    5    8 1
     6    6   49 1
     7    7   19 1
     8    8   38 1
     9    9   10 1
    10   11    9 1
    11   12    9 1
    12   13    1 1
    13   14   13 2
    14   15   14 1
    15   16    2 1
    16   17   16 1
    17   18   16 1
    18   19   20 1
    19   21   19 1
    20   22   19 1
    21   23    7 1
    22   24   23 1
    23   25   23 1
    24   26   25 1
    25   27    3 1
    26   28   27 1
    27   29   28 1
    28   30   28 1
    29   31   28 1
    30   32   27 1
    31   33   32 1
    32   34   32 1
    33   35   32 1
    34   36    4 1
    35   37   36 1
    36   38   36 1
    37   39   38 1
    38   40    8 1
    39   41   40 1
    40   42   40 1
    41   43   40 1
    42   44    5 1
    43   45   44 1
    44   46   44 1
    45   47   44 1
    46   48   47 1
    47   49   38 1
    48   50    6 1
    49   51   50 1
    50   52   50 1
    51   53   50 1
    52   13   23 1
    53   14   16 1
    54   25   36 1
    55   47   49 2
@<TRIPOS>SUBSTRUCTURE
     1 RES1 1

@<TRIPOS>CRYSIN
   8.8000   14.6592   14.7210  90.0000  90.0000  90.0000  19 1

