# MOL2 file generated by ConQuest
# Please check atom types

@<TRIPOS>MOLECULE
PALQOL
    37    40     1
SMALL
NO_CHARGES
****
Generated from CSD

@<TRIPOS>ATOM
      1 N1         4.7313    4.2402    4.9391 N.2       1 RES1    0.0000
      2 O1         4.7943    4.8231    6.2013 O.3       1 RES1    0.0000
      3 O2         8.5305   -0.5351    5.4745 O.2       1 RES1    0.0000
      4 C1         5.7323    2.9269    6.4681 C.2       1 RES1    0.0000
      5 N2         5.4023    4.0200    7.1320 N.2       1 RES1    0.0000
      6 O3         7.4455   -0.8755    7.3222 O.2       1 RES1    0.0000
      7 N3         6.8595    1.9337   10.6036 N.3       1 RES1    0.0000
      8 C2         6.4848    1.8101    6.9863 C.2       1 RES1    0.0000
      9 N4         7.6567   -0.2558    6.2985 N.pl3     1 RES1    0.0000
     10 O4         5.4462    1.0885    2.0946 O.2       1 RES1    0.0000
     11 C3         6.8298    0.9142    5.9919 C.2       1 RES1    0.0000
     12 O5         4.3342    2.9064    2.5390 O.2       1 RES1    0.0000
     13 N5         5.1118    2.0068    2.8395 N.pl3     1 RES1    0.0000
     14 C4         6.4238    0.9955    4.6294 C.2       1 RES1    0.0000
     15 H1         6.6984    0.3229    4.0180 H         1 RES1    0.0000
     16 C5         5.3237    3.0684    5.1048 C.2       1 RES1    0.0000
     17 C6         5.6512    2.0200    4.1925 C.2       1 RES1    0.0000
     18 C7         6.0987    2.0042    9.4768 C.2       1 RES1    0.0000
     19 C8         6.9144    1.7873    8.3651 C.2       1 RES1    0.0000
     20 C9         8.2539    1.5821    8.8549 C.ar      1 RES1    0.0000
     21 C10        9.5090    1.4298    8.2459 C.ar      1 RES1    0.0000
     22 H2         9.5857    1.3748    7.3001 H         1 RES1    0.0000
     23 C11       10.6348    1.3600    9.0525 C.ar      1 RES1    0.0000
     24 H3        11.4915    1.2761    8.6518 H         1 RES1    0.0000
     25 C12       10.5308    1.4122   10.4512 C.ar      1 RES1    0.0000
     26 H4        11.3180    1.3347   10.9775 H         1 RES1    0.0000
     27 C13        8.1797    1.6769   10.2627 C.ar      1 RES1    0.0000
     28 C14        9.3069    1.5730   11.0816 C.ar      1 RES1    0.0000
     29 H5         9.2371    1.6110   12.0278 H         1 RES1    0.0000
     30 C15        4.6155    2.1617    9.5581 C.3       1 RES1    0.0000
     31 H6         4.2515    1.5032   10.1870 H         1 RES1    0.0000
     32 H7         4.2232    2.0186    8.6715 H         1 RES1    0.0000
     33 H8         4.3996    3.0649    9.8703 H         1 RES1    0.0000
     34 C16        6.3714    2.0496   11.9743 C.3       1 RES1    0.0000
     35 H9         5.5725    2.6164   11.9885 H         1 RES1    0.0000
     36 H10        7.0673    2.4508   12.5366 H         1 RES1    0.0000
     37 H11        6.1475    1.1598   12.3183 H         1 RES1    0.0000
@<TRIPOS>BOND
     1    1    2 1
     2    2    5 1
     3    3    9 2
     4    4    5 2
     5    6    9 2
     6    7   18 1
     7    8    4 1
     8    9   11 1
     9   10   13 2
    10   11    8 2
    11   12   13 2
    12   13   17 1
    13   14   11 1
    14   15   14 1
    15   16    1 2
    16   17   14 2
    17   18   19 2
    18   19    8 1
    19   20   19 1
    20   21   20 ar
    21   22   21 1
    22   23   21 ar
    23   24   23 1
    24   25   23 ar
    25   26   25 1
    26   27    7 1
    27   28   25 ar
    28   29   28 1
    29   30   18 1
    30   31   30 1
    31   32   30 1
    32   33   30 1
    33   34    7 1
    34   35   34 1
    35   36   34 1
    36   37   34 1
    37    4   16 1
    38   16   17 1
    39   20   27 ar
    40   27   28 ar
@<TRIPOS>SUBSTRUCTURE
     1 RES1 1

@<TRIPOS>CRYSIN
   9.8327    7.0505   22.2720  90.0000 101.3423  90.0000  14 1

