# MOL2 file generated by ConQuest
# Please check atom types

@<TRIPOS>MOLECULE
PALQIF
    38    41     1
SMALL
NO_CHARGES
****
Generated from CSD

@<TRIPOS>ATOM
      1 N1         5.2666    1.9960    1.1080 N.2       1 RES1    0.0000
      2 O1         6.3371    1.2460    0.6558 O.3       1 RES1    0.0000
      3 C1         4.6942    0.5308   -0.4983 C.2       1 RES1    0.0000
      4 N2         5.9857    0.3516   -0.3218 N.2       1 RES1    0.0000
      5 O2         0.8070   -1.0954   -1.9444 O.2       1 RES1    0.0000
      6 C2         3.8338   -0.1348   -1.4610 C.2       1 RES1    0.0000
      7 N3         5.7661   -2.5806   -3.3001 N.3       1 RES1    0.0000
      8 O3         1.4069    0.3931   -3.3895 O.2       1 RES1    0.0000
      9 N4         1.5056   -0.1701   -2.3138 N.pl3     1 RES1    0.0000
     10 O4         1.1701    3.2124    1.2667 O.2       1 RES1    0.0000
     11 C3         2.5332    0.3264   -1.3747 C.2       1 RES1    0.0000
     12 N5         2.3795    3.0009    1.2353 N.pl3     1 RES1    0.0000
     13 O5         3.2170    3.6617    1.8418 O.2       1 RES1    0.0000
     14 C4         2.0360    1.2994   -0.4744 C.2       1 RES1    0.0000
     15 H1         1.1126    1.5162   -0.4795 H         1 RES1    0.0000
     16 C5         2.8709    1.9250    0.3951 C.2       1 RES1    0.0000
     17 C6         4.2485    1.5543    0.3993 C.2       1 RES1    0.0000
     18 C7         5.6486   -1.6386   -2.3433 C.2       1 RES1    0.0000
     19 H2         6.3373   -1.3613   -1.7524 H         1 RES1    0.0000
     20 C8         4.3440   -1.1369   -2.3653 C.2       1 RES1    0.0000
     21 C9         3.6737   -1.8411   -3.4220 C.2       1 RES1    0.0000
     22 H3         2.7705   -1.7268   -3.6891 H         1 RES1    0.0000
     23 C10        4.5755   -2.7045   -3.9711 C.2       1 RES1    0.0000
     24 H4         4.4091   -3.2934   -4.6983 H         1 RES1    0.0000
     25 C11        7.0317   -3.2320   -3.6822 C.3       1 RES1    0.0000
     26 H5         6.8422   -4.0101   -4.2649 H         1 RES1    0.0000
     27 H6         7.4939   -3.5584   -2.8705 H         1 RES1    0.0000
     28 C12        7.9160   -2.2552   -4.4133 C.ar      1 RES1    0.0000
     29 C13        8.9320   -1.5771   -3.7459 C.ar      1 RES1    0.0000
     30 H7         9.1083   -1.7706   -2.8328 H         1 RES1    0.0000
     31 C14        9.6890   -0.6218   -4.4064 C.ar      1 RES1    0.0000
     32 H8        10.3827   -0.1625   -3.9466 H         1 RES1    0.0000
     33 C15        9.4340   -0.3378   -5.7393 C.ar      1 RES1    0.0000
     34 H9         9.9549    0.3145   -6.1932 H         1 RES1    0.0000
     35 C16        8.4198   -1.0044   -6.4105 C.ar      1 RES1    0.0000
     36 H10        8.2407   -0.8033   -7.3217 H         1 RES1    0.0000
     37 C17        7.6648   -1.9650   -5.7518 C.ar      1 RES1    0.0000
     38 H11        6.9733   -2.4253   -6.2141 H         1 RES1    0.0000
@<TRIPOS>BOND
     1    1    2 1
     2    2    4 1
     3    3    4 2
     4    5    9 2
     5    6    3 1
     6    7   18 1
     7    8    9 2
     8    9   11 1
     9   10   12 2
    10   11    6 2
    11   12   13 2
    12   14   11 1
    13   15   14 1
    14   16   12 1
    15   17    1 2
    16   18   19 1
    17   20    6 1
    18   21   20 1
    19   22   21 1
    20   23    7 1
    21   24   23 1
    22   25    7 1
    23   26   25 1
    24   27   25 1
    25   28   25 1
    26   29   28 ar
    27   30   29 1
    28   31   29 ar
    29   32   31 1
    30   33   31 ar
    31   34   33 1
    32   35   33 ar
    33   36   35 1
    34   37   28 ar
    35   38   37 1
    36    3   17 1
    37   14   16 2
    38   16   17 1
    39   18   20 2
    40   21   23 2
    41   35   37 ar
@<TRIPOS>SUBSTRUCTURE
     1 RES1 1

@<TRIPOS>CRYSIN
  30.9050    4.7648   24.6937  90.0000 122.0190  90.0000  15 1

