# MOL2 file generated by ConQuest
# Please check atom types

@<TRIPOS>MOLECULE
PAMHUH
    79    84     1
SMALL
NO_CHARGES
****
Generated from CSD

@<TRIPOS>ATOM
      1 O1         7.8009    3.5065   13.6022 O.3       1 RES1    0.0000
      2 O2         9.2521    1.6833   13.8105 O.3       1 RES1    0.0000
      3 O3         9.8159    3.8964   15.3995 O.3       1 RES1    0.0000
      4 O4        11.3669    3.3603   13.8553 O.3       1 RES1    0.0000
      5 O5         8.7322   -0.6804   14.7405 O.3       1 RES1    0.0000
      6 O6        10.4280   -1.1737   13.3320 O.2       1 RES1    0.0000
      7 O7         5.6150   -3.2209    8.8480 O.2       1 RES1    0.0000
      8 O8         4.1601   -3.2688   10.4309 O.2       1 RES1    0.0000
      9 O9         8.0844    0.0558   17.3870 O.3       1 RES1    0.0000
     10 O10        8.8178   -0.0155   19.5041 O.2       1 RES1    0.0000
     11 O11        1.6064    0.0776   19.5734 O.2       1 RES1    0.0000
     12 O12        2.3036   -0.3675   21.5753 O.2       1 RES1    0.0000
     13 O13        8.8241   -2.5014   17.5500 O.2       1 RES1    0.0000
     14 O14       10.9067   -2.0362   16.8661 O.3       1 RES1    0.0000
     15 N1         5.2942   -3.0760   10.0183 N.pl3     1 RES1    0.0000
     16 N2         2.4955   -0.0945   20.3907 N.pl3     1 RES1    0.0000
     17 C1         6.7125    2.7473   13.0090 C.3       1 RES1    0.0000
     18 H1         5.8499    3.1692   13.2477 H         1 RES1    0.0000
     19 H2         6.7150    1.8285   13.3767 H         1 RES1    0.0000
     20 C2         6.8426    2.6852   11.5120 C.3       1 RES1    0.0000
     21 H3         6.7693    3.5962   11.1325 H         1 RES1    0.0000
     22 H4         6.1113    2.1339   11.1363 H         1 RES1    0.0000
     23 C3         8.1762    2.0847   11.1427 C.3       1 RES1    0.0000
     24 H5         8.2873    2.0964   10.1586 H         1 RES1    0.0000
     25 H6         8.2141    1.1427   11.4462 H         1 RES1    0.0000
     26 C4         9.3040    2.8832   11.7990 C.3       1 RES1    0.0000
     27 H7        10.1678    2.4303   11.6329 H         1 RES1    0.0000
     28 H8         9.3469    3.7852   11.3942 H         1 RES1    0.0000
     29 C5         9.0767    3.0100   13.2901 C.3       1 RES1    0.0000
     30 C6        10.0794    3.9340   14.0028 C.3       1 RES1    0.0000
     31 C7        11.6076    2.5351   14.9973 C.3       1 RES1    0.0000
     32 H9        12.3489    2.8948   15.5458 H         1 RES1    0.0000
     33 H10       11.8273    1.6085   14.7259 H         1 RES1    0.0000
     34 C8        10.3005    2.5856   15.7512 C.3       1 RES1    0.0000
     35 H11       10.4381    2.4937   16.7372 H         1 RES1    0.0000
     36 C9         9.2649    1.5969   15.2309 C.3       1 RES1    0.0000
     37 H12        8.3619    1.8208   15.5978 H         1 RES1    0.0000
     38 C10        9.6122    0.1385   15.5429 C.3       1 RES1    0.0000
     39 H13       10.5606   -0.0388   15.2783 H         1 RES1    0.0000
     40 C11        9.2585   -1.1685   13.5807 C.2       1 RES1    0.0000
     41 C12        8.2065   -1.7017   12.6997 C.ar      1 RES1    0.0000
     42 C13        8.5829   -2.1546   11.4560 C.ar      1 RES1    0.0000
     43 H14        9.5010   -2.1520   11.2114 H         1 RES1    0.0000
     44 C14        7.6420   -2.6114   10.5647 C.ar      1 RES1    0.0000
     45 H15        7.8958   -2.9078    9.6986 H         1 RES1    0.0000
     46 C15        6.3235   -2.6296   10.9598 C.ar      1 RES1    0.0000
     47 C16        5.9055   -2.2180   12.2124 C.ar      1 RES1    0.0000
     48 H16        4.9911   -2.2607   12.4663 H         1 RES1    0.0000
     49 C17        6.8741   -1.7418   13.0841 C.ar      1 RES1    0.0000
     50 H17        6.6228   -1.4403   13.9502 H         1 RES1    0.0000
     51 C18        9.4189   -0.2459   16.9780 C.3       1 RES1    0.0000
     52 H18       10.0618    0.2692   17.5456 H         1 RES1    0.0000
     53 C19        7.9009    0.0492   18.7310 C.2       1 RES1    0.0000
     54 C20        6.4864    0.1100   19.1177 C.ar      1 RES1    0.0000
     55 C21        5.4634   -0.0104   18.1863 C.ar      1 RES1    0.0000
     56 H19        5.6718   -0.0789   17.2626 H         1 RES1    0.0000
     57 C22        4.1399   -0.0298   18.5972 C.ar      1 RES1    0.0000
     58 H20        3.4339   -0.1009   17.9671 H         1 RES1    0.0000
     59 C23        3.8785    0.0569   19.9486 C.ar      1 RES1    0.0000
     60 C24        4.8724    0.2187   20.8945 C.ar      1 RES1    0.0000
     61 H21        4.6564    0.2989   21.8165 H         1 RES1    0.0000
     62 C25        6.1884    0.2601   20.4738 C.ar      1 RES1    0.0000
     63 H22        6.8868    0.3908   21.1043 H         1 RES1    0.0000
     64 C26        9.6500   -1.7302   17.1810 C.2       1 RES1    0.0000
     65 C27       11.2489   -3.4513   16.9855 C.3       1 RES1    0.0000
     66 H23       10.6718   -3.9793   16.3965 H         1 RES1    0.0000
     67 H24       11.1201   -3.7412   17.9132 H         1 RES1    0.0000
     68 H25       12.1860   -3.5846   16.7314 H         1 RES1    0.0000
     69 C28       10.1123    5.3704   13.5647 C.ar      1 RES1    0.0000
     70 C29        9.1234    6.2491   13.9622 C.ar      1 RES1    0.0000
     71 H26        8.3821    5.9346   14.4660 H         1 RES1    0.0000
     72 C30        9.2181    7.5910   13.6230 C.ar      1 RES1    0.0000
     73 H27        8.5475    8.2018   13.9079 H         1 RES1    0.0000
     74 C31       10.2916    8.0426   12.8666 C.ar      1 RES1    0.0000
     75 H28       10.3636    8.9640   12.6453 H         1 RES1    0.0000
     76 C32       11.2413    7.1627   12.4413 C.ar      1 RES1    0.0000
     77 H29       11.9574    7.4707   11.8985 H         1 RES1    0.0000
     78 C33       11.1769    5.8259   12.7908 C.ar      1 RES1    0.0000
     79 H30       11.8539    5.2229   12.5048 H         1 RES1    0.0000
@<TRIPOS>BOND
     1    1   17 1
     2    2   29 1
     3    3   30 1
     4    4   30 1
     5    5   38 1
     6    6   40 2
     7    7   15 2
     8    8   15 2
     9    9   51 1
    10   10   53 2
    11   11   16 2
    12   12   16 2
    13   13   64 2
    14   14   64 1
    15   15   46 1
    16   16   59 1
    17   17   18 1
    18   19   17 1
    19   20   17 1
    20   21   20 1
    21   22   20 1
    22   23   20 1
    23   24   23 1
    24   25   23 1
    25   26   23 1
    26   27   26 1
    27   28   26 1
    28   29    1 1
    29   30   29 1
    30   31    4 1
    31   32   31 1
    32   33   31 1
    33   34    3 1
    34   35   34 1
    35   36    2 1
    36   37   36 1
    37   38   36 1
    38   39   38 1
    39   40    5 1
    40   41   40 1
    41   42   41 ar
    42   43   42 1
    43   44   42 ar
    44   45   44 1
    45   46   44 ar
    46   47   46 ar
    47   48   47 1
    48   49   41 ar
    49   50   49 1
    50   51   38 1
    51   52   51 1
    52   53    9 1
    53   54   53 1
    54   55   54 ar
    55   56   55 1
    56   57   55 ar
    57   58   57 1
    58   59   57 ar
    59   60   59 ar
    60   61   60 1
    61   62   54 ar
    62   63   62 1
    63   64   51 1
    64   65   14 1
    65   66   65 1
    66   67   65 1
    67   68   65 1
    68   69   30 1
    69   70   69 ar
    70   71   70 1
    71   72   70 ar
    72   73   72 1
    73   74   72 ar
    74   75   74 1
    75   76   74 ar
    76   77   76 1
    77   78   69 ar
    78   79   78 1
    79   26   29 1
    80   31   34 1
    81   34   36 1
    82   47   49 ar
    83   60   62 ar
    84   76   78 ar
@<TRIPOS>SUBSTRUCTURE
     1 RES1 1

@<TRIPOS>CRYSIN
  12.6293   12.9407   19.2470  90.0000  90.0000  90.0000  19 1

