# MOL2 file generated by ConQuest
# Please check atom types

@<TRIPOS>MOLECULE
PANDEO
    61    64     1
SMALL
NO_CHARGES
****
Generated from CSD

@<TRIPOS>ATOM
      1 O1         6.0279    1.2217   13.2162 O.3       1 RES1    0.0000
      2 O2         8.4697    0.1743   10.6929 O.3       1 RES1    0.0000
      3 H1         8.0083    0.4725   10.0840 H         1 RES1    0.0000
      4 O3         7.7267   -0.0055   14.2350 O.3       1 RES1    0.0000
      5 O4         2.0573    1.3194   10.2380 O.3       1 RES1    0.0000
      6 H2         1.4143    0.8092   10.2457 H         1 RES1    0.0000
      7 O5         5.4274    1.2315    9.0174 O.3       1 RES1    0.0000
      8 O6         3.3354    3.9682    9.0562 O.3       1 RES1    0.0000
      9 C1         6.7150    3.1534    6.4187 C.ar      1 RES1    0.0000
     10 H3         5.8507    3.4893    6.4955 H         1 RES1    0.0000
     11 N1         6.5648    1.8717    9.6487 N.3       1 RES1    0.0000
     12 C2         3.6417   -0.5377   10.4508 C.ar      1 RES1    0.0000
     13 C3         6.1234    2.1240   11.0364 C.3       1 RES1    0.0000
     14 H4         6.5699    2.9250   11.3826 H         1 RES1    0.0000
     15 C4         6.8739    3.1232    8.9184 C.3       1 RES1    0.0000
     16 H5         7.5123    3.6425    9.4321 H         1 RES1    0.0000
     17 H6         6.0635    3.6498    8.8326 H         1 RES1    0.0000
     18 C5         4.6209   -2.7378   11.8594 C.ar      1 RES1    0.0000
     19 H7         4.9615   -3.4626   12.3323 H         1 RES1    0.0000
     20 O7         3.4731    2.4782    7.3919 O.2       1 RES1    0.0000
     21 C6         7.2559    2.9544    5.1592 C.ar      1 RES1    0.0000
     22 H8         6.7570    3.1534    4.4008 H         1 RES1    0.0000
     23 C7         4.6141    2.3818   10.9300 C.3       1 RES1    0.0000
     24 H9         4.1376    1.9396   11.6493 H         1 RES1    0.0000
     25 H10        4.4245    3.3324   10.9637 H         1 RES1    0.0000
     26 C8         6.4887    0.9294   11.8910 C.3       1 RES1    0.0000
     27 H11        6.0255    0.1340   11.5537 H         1 RES1    0.0000
     28 C9         9.2597    2.1525    6.1641 C.ar      1 RES1    0.0000
     29 H12       10.1176    1.8038    6.0806 H         1 RES1    0.0000
     30 C10        7.4351    2.8635    7.5615 C.ar      1 RES1    0.0000
     31 C11        8.2609   -0.4028   12.9783 C.3       1 RES1    0.0000
     32 H13        7.8599   -1.2414   12.7040 H         1 RES1    0.0000
     33 H14        9.2188   -0.5367   13.0583 H         1 RES1    0.0000
     34 C12        4.9251   -2.5672   10.5259 C.ar      1 RES1    0.0000
     35 H15        5.4665   -3.1901   10.0975 H         1 RES1    0.0000
     36 C13        7.9813    0.6588   11.9408 C.3       1 RES1    0.0000
     37 H16        8.4551    1.4827   12.1800 H         1 RES1    0.0000
     38 C14        3.1746    0.6606    9.6718 C.3       1 RES1    0.0000
     39 H17        2.9412    0.3725    8.7639 H         1 RES1    0.0000
     40 C15        5.7864    0.5652   15.4730 C.3       1 RES1    0.0000
     41 H18        4.8406    0.7175   15.4076 H         1 RES1    0.0000
     42 H19        6.2201    1.3689   15.7699 H         1 RES1    0.0000
     43 H20        5.9550   -0.1404   16.1013 H         1 RES1    0.0000
     44 C16        8.7166    2.3607    7.4196 C.ar      1 RES1    0.0000
     45 H21        9.2191    2.1607    8.1766 H         1 RES1    0.0000
     46 C17        4.4398   -1.4891    9.8173 C.ar      1 RES1    0.0000
     47 H22        4.6460   -1.3964    8.9161 H         1 RES1    0.0000
     48 C18        6.3247    0.1752   14.1252 C.3       1 RES1    0.0000
     49 H23        5.9037   -0.6569   13.8248 H         1 RES1    0.0000
     50 C19        3.3178   -0.7230   11.7773 C.ar      1 RES1    0.0000
     51 H24        2.7675   -0.1083   12.2056 H         1 RES1    0.0000
     52 C20        3.6377    2.7791    8.5511 C.2       1 RES1    0.0000
     53 C21        4.2133    1.7965    9.5755 C.3       1 RES1    0.0000
     54 C22        3.8033   -1.8166   12.4818 C.ar      1 RES1    0.0000
     55 H25        3.5764   -1.9286   13.3776 H         1 RES1    0.0000
     56 C23        8.5268    2.4644    5.0380 C.ar      1 RES1    0.0000
     57 H26        8.8975    2.3405    4.1934 H         1 RES1    0.0000
     58 C24        2.7110    4.9068    8.1200 C.3       1 RES1    0.0000
     59 H27        1.8942    4.5297    7.7860 H         1 RES1    0.0000
     60 H28        3.3090    5.0738    7.3886 H         1 RES1    0.0000
     61 H29        2.5209    5.7316    8.5740 H         1 RES1    0.0000
@<TRIPOS>BOND
     1    1   26 1
     2    2    3 1
     3    4   31 1
     4    5    6 1
     5    7   11 1
     6    8   52 1
     7    9   10 1
     8   11   13 1
     9   12   38 1
    10   13   14 1
    11   15   11 1
    12   16   15 1
    13   17   15 1
    14   18   19 1
    15   20   52 2
    16   21    9 ar
    17   22   21 1
    18   23   13 1
    19   24   23 1
    20   25   23 1
    21   26   13 1
    22   27   26 1
    23   28   29 1
    24   30    9 ar
    25   31   32 1
    26   33   31 1
    27   34   18 ar
    28   35   34 1
    29   36    2 1
    30   37   36 1
    31   38    5 1
    32   39   38 1
    33   40   41 1
    34   42   40 1
    35   43   40 1
    36   44   28 ar
    37   45   44 1
    38   46   12 ar
    39   47   46 1
    40   48    1 1
    41   49   48 1
    42   50   12 ar
    43   51   50 1
    44   52   53 1
    45   53    7 1
    46   54   18 ar
    47   55   54 1
    48   56   21 ar
    49   57   56 1
    50   58    8 1
    51   59   58 1
    52   60   58 1
    53   61   58 1
    54    4   48 1
    55   15   30 1
    56   23   53 1
    57   26   36 1
    58   28   56 ar
    59   30   44 ar
    60   31   36 1
    61   34   46 ar
    62   38   53 1
    63   40   48 1
    64   50   54 ar
@<TRIPOS>SUBSTRUCTURE
     1 RES1 1

@<TRIPOS>CRYSIN
   8.8560    9.1750   13.5150  90.0000  94.6500  90.0000   4 1

