# MOL2 file generated by ConQuest
# Please check atom types

@<TRIPOS>MOLECULE
PANJUK
    28    29     1
SMALL
NO_CHARGES
****
Generated from CSD

@<TRIPOS>ATOM
      1 O1         4.4267   -0.3204    1.5829 O.2       1 RES1    0.0000
      2 O2         3.8039    1.2235    2.9083 O.2       1 RES1    0.0000
      3 O3         9.1295   -0.9827    0.5340 O.2       1 RES1    0.0000
      4 N1        12.9332    0.6458   -0.0038 N.pl3     1 RES1    0.0000
      5 N2        14.5364    1.8325   -0.8556 N.2       1 RES1    0.0000
      6 N3        13.7751    0.8880    1.0249 N.2       1 RES1    0.0000
      7 N4         4.6609    0.5754    2.3523 N.pl3     1 RES1    0.0000
      8 C1         7.0446    0.2850    1.8776 C.ar      1 RES1    0.0000
      9 H1         6.8126   -0.3452    1.2336 H         1 RES1    0.0000
     10 C2         6.0726    0.8999    2.6270 C.ar      1 RES1    0.0000
     11 C3         6.3620    1.8141    3.6108 C.ar      1 RES1    0.0000
     12 H2         5.6855    2.2218    4.1007 H         1 RES1    0.0000
     13 C4         7.6956    2.1106    3.8500 C.ar      1 RES1    0.0000
     14 H3         7.9213    2.7012    4.5324 H         1 RES1    0.0000
     15 C5         8.6855    1.5379    3.0863 C.ar      1 RES1    0.0000
     16 H4         9.5724    1.7714    3.2366 H         1 RES1    0.0000
     17 C6         8.3774    0.6131    2.0910 C.ar      1 RES1    0.0000
     18 C7         9.4110   -0.0106    1.2087 C.2       1 RES1    0.0000
     19 C8        10.7606    0.6168    1.1312 C.3       1 RES1    0.0000
     20 H5        11.1472    0.6403    2.0202 H         1 RES1    0.0000
     21 H6        10.6653    1.5328    0.8268 H         1 RES1    0.0000
     22 C9        11.7044   -0.1108    0.2048 C.3       1 RES1    0.0000
     23 H7        11.9214   -0.9776    0.5828 H         1 RES1    0.0000
     24 H8        11.2683   -0.2569   -0.6488 H         1 RES1    0.0000
     25 C10       14.7144    1.6009    0.4393 C.2       1 RES1    0.0000
     26 H9        15.4554    1.9217    0.9025 H         1 RES1    0.0000
     27 C11       13.4006    1.2226   -1.0833 C.2       1 RES1    0.0000
     28 H10       12.9774    1.2014   -1.9111 H         1 RES1    0.0000
@<TRIPOS>BOND
     1    1    7 2
     2    2    7 2
     3    3   18 2
     4    4    6 1
     5    5   25 1
     6    6   25 2
     7    7   10 1
     8    8    9 1
     9   10    8 ar
    10   11   10 ar
    11   12   11 1
    12   13   11 ar
    13   14   13 1
    14   15   13 ar
    15   16   15 1
    16   17    8 ar
    17   18   17 1
    18   19   18 1
    19   20   19 1
    20   21   19 1
    21   22    4 1
    22   23   22 1
    23   24   22 1
    24   25   26 1
    25   27    4 1
    26   28   27 1
    27    5   27 2
    28   15   17 ar
    29   19   22 1
@<TRIPOS>SUBSTRUCTURE
     1 RES1 1

@<TRIPOS>CRYSIN
  26.3340    4.5962    9.5700  90.0000  90.0000  90.0000  29 1

