# MOL2 file generated by ConQuest
# Please check atom types

@<TRIPOS>MOLECULE
PAPBUG
    37    39     1
SMALL
NO_CHARGES
****
Generated from CSD

@<TRIPOS>ATOM
      1 C1         4.8477    4.2222   10.8421 C.ar      1 RES1    0.0000
      2 C2         4.8567    2.8557   10.4572 C.ar      1 RES1    0.0000
      3 C3         3.8122    2.0351   10.7475 C.ar      1 RES1    0.0000
      4 H1         3.8340    1.1527   10.4782 H         1 RES1    0.0000
      5 C4         2.7432    2.5230   11.4345 C.ar      1 RES1    0.0000
      6 C5         2.7018    3.8140   11.8811 C.ar      1 RES1    0.0000
      7 H2         1.9819    4.1205   12.3737 H         1 RES1    0.0000
      8 C6         3.7326    4.6445   11.5934 C.ar      1 RES1    0.0000
      9 C7         3.7742    5.9791   12.2292 C.2       1 RES1    0.0000
     10 C8         5.6288    6.5250   10.7318 C.3       1 RES1    0.0000
     11 C9         6.9556    7.1222   10.9879 C.3       1 RES1    0.0000
     12 H3         6.8478    8.0613   11.1403 H         1 RES1    0.0000
     13 H4         7.5236    6.9912   10.2326 H         1 RES1    0.0000
     14 H5         7.3377    6.6940   11.7524 H         1 RES1    0.0000
     15 C10        4.8819    7.1544    9.4471 C.ar      1 RES1    0.0000
     16 C11        3.7264    7.8837    9.6665 C.ar      1 RES1    0.0000
     17 H6         3.3714    7.9398   10.5163 H         1 RES1    0.0000
     18 C12        3.1016    8.5290    8.6130 C.ar      1 RES1    0.0000
     19 H7         2.3284    9.0167    8.7588 H         1 RES1    0.0000
     20 C13        3.6317    8.4453    7.3415 C.ar      1 RES1    0.0000
     21 C14        4.7873    7.7159    7.1221 C.ar      1 RES1    0.0000
     22 C15        5.4120    7.0706    8.1756 C.ar      1 RES1    0.0000
     23 H8         6.1852    6.5830    8.0298 H         1 RES1    0.0000
     24 N1         4.7966    6.7256   11.8719 N.am      1 RES1    0.0000
     25 H9         4.9724    7.3858   12.3671 H         1 RES1    0.0000
     26 N2         5.8057    5.0804   10.5584 N.3       1 RES1    0.0000
     27 H10        6.5487    4.7782   10.2641 H         1 RES1    0.0000
     28 N3         5.9585    2.2607    9.7387 N.pl3     1 RES1    0.0000
     29 N4         1.6525    1.6346   11.7458 N.pl3     1 RES1    0.0000
     30 O1         6.9342    2.9485    9.5246 O.2       1 RES1    0.0000
     31 O2         5.8895    1.1277    9.3893 O.2       1 RES1    0.0000
     32 O3         1.7083    0.5090   11.3163 O.2       1 RES1    0.0000
     33 O4         0.7543    2.0371   12.4302 O.2       1 RES1    0.0000
     34 O5         2.9577    6.2939   13.0778 O.2       1 RES1    0.0000
     35 O6         6.6228    7.6188    6.0056 O.2       1 RES1    0.0000
     36 O7         4.7513    7.7556    4.9574 O.2       1 RES1    0.0000
     37 N5         5.1995    7.6838    5.8847 N.pl3     1 RES1    0.0000
@<TRIPOS>BOND
     1    1    2 ar
     2    2    3 ar
     3    3    4 1
     4    5    3 ar
     5    6    5 ar
     6    7    6 1
     7    8    1 ar
     8    9    8 1
     9   10   11 1
    10   11   12 1
    11   13   11 1
    12   14   11 1
    13   15   10 1
    14   16   15 ar
    15   17   16 1
    16   18   16 ar
    17   19   18 1
    18   20   18 ar
    19   21   20 ar
    20   22   15 ar
    21   23   22 1
    22   24    9 1
    23   25   24 1
    24   26    1 1
    25   27   26 1
    26   28    2 1
    27   29    5 1
    28   30   28 2
    29   31   28 2
    30   32   29 2
    31   33   29 2
    32   34    9 2
    33   35   37 2
    34   36   37 2
    35   37   21 1
    36    6    8 ar
    37   10   24 1
    38   10   26 1
    39   21   22 ar
@<TRIPOS>SUBSTRUCTURE
     1 RES1 1

@<TRIPOS>CRYSIN
   6.7524    9.2286   13.5144  76.4240  88.5860  87.2310   2 1

