# MOL2 file generated by ConQuest
# Please check atom types

@<TRIPOS>MOLECULE
PAQJEZ
    33    34     1
SMALL
NO_CHARGES
****
Generated from CSD

@<TRIPOS>ATOM
      1 O1         1.8814   13.4578    0.5907 O.2       1 RES1    0.0000
      2 O2         7.8147   16.5511    2.1164 O.2       1 RES1    0.0000
      3 O3         8.3222   14.9322    3.4305 O.2       1 RES1    0.0000
      4 N1         7.5664   15.4921    2.6439 N.pl3     1 RES1    0.0000
      5 C1         3.9357   13.5476    1.7342 C.ar      1 RES1    0.0000
      6 C2         4.1145   14.8882    1.4246 C.ar      1 RES1    0.0000
      7 H1         3.4216   15.3580    1.0195 H         1 RES1    0.0000
      8 C3         5.2971   15.5381    1.7066 C.ar      1 RES1    0.0000
      9 H2         5.4161   16.4341    1.4870 H         1 RES1    0.0000
     10 C4         6.2953   14.8184    2.3217 C.ar      1 RES1    0.0000
     11 C5         6.1601   13.5110    2.6321 C.ar      1 RES1    0.0000
     12 H3         6.8600   13.0498    3.0364 H         1 RES1    0.0000
     13 C6         4.9692   12.8588    2.3438 C.ar      1 RES1    0.0000
     14 H4         4.8659   11.9613    2.5602 H         1 RES1    0.0000
     15 C7         2.6447   12.8799    1.3559 C.2       1 RES1    0.0000
     16 C8         2.3356   11.5553    1.8874 C.2       1 RES1    0.0000
     17 H5         2.9054   11.1870    2.5231 H         1 RES1    0.0000
     18 C9         1.2742   10.8560    1.5004 C.2       1 RES1    0.0000
     19 H6         0.7222   11.2637    0.8718 H         1 RES1    0.0000
     20 C10        0.8746    9.5347    1.9419 C.ar      1 RES1    0.0000
     21 C11       -0.3929    9.0540    1.5913 C.ar      1 RES1    0.0000
     22 H7        -0.9486    9.5641    1.0479 H         1 RES1    0.0000
     23 C12       -0.8168    7.8393    2.0445 C.ar      1 RES1    0.0000
     24 H8        -1.6623    7.5330    1.8076 H         1 RES1    0.0000
     25 C13       -0.0074    7.0553    2.8508 C.ar      1 RES1    0.0000
     26 H9        -0.3181    6.2392    3.1691 H         1 RES1    0.0000
     27 C14        1.2714    7.4927    3.1833 C.ar      1 RES1    0.0000
     28 C15        1.6802    8.7250    2.7348 C.ar      1 RES1    0.0000
     29 H10        2.5267    9.0297    2.9693 H         1 RES1    0.0000
     30 C16        2.1820    6.6073    3.9999 C.3       1 RES1    0.0000
     31 H11        3.0172    7.0580    4.1483 H         1 RES1    0.0000
     32 H12        2.3397    5.7865    3.5268 H         1 RES1    0.0000
     33 H13        1.7678    6.4148    4.8448 H         1 RES1    0.0000
@<TRIPOS>BOND
     1    1   15 2
     2    2    4 2
     3    3    4 2
     4    4   10 1
     5    5    6 ar
     6    6    7 1
     7    8    6 ar
     8    9    8 1
     9   10    8 ar
    10   11   10 ar
    11   12   11 1
    12   13    5 ar
    13   14   13 1
    14   15    5 1
    15   16   15 1
    16   17   16 1
    17   18   16 2
    18   19   18 1
    19   20   18 1
    20   21   20 ar
    21   22   21 1
    22   23   21 ar
    23   24   23 1
    24   25   23 ar
    25   26   25 1
    26   27   25 ar
    27   28   20 ar
    28   29   28 1
    29   30   27 1
    30   31   30 1
    31   32   30 1
    32   33   30 1
    33   11   13 ar
    34   27   28 ar
@<TRIPOS>SUBSTRUCTURE
     1 RES1 1

@<TRIPOS>CRYSIN
   6.9246   24.7390    7.9590  90.0000  97.1530  90.0000  14 1

