# MOL2 file generated by ConQuest
# Please check atom types

@<TRIPOS>MOLECULE
PAQWEL
    41    42     1
SMALL
NO_CHARGES
****
Generated from CSD

@<TRIPOS>ATOM
      1 N1        12.9933    1.3198    8.2137 N.pl3     1 RES1    0.0000
      2 O1        12.2953    2.3399    8.5366 O.2       1 RES1    0.0000
      3 O2        13.9858   -1.9633    8.4087 O.2       1 RES1    0.0000
      4 N2        10.1822   -3.1480   11.2626 N.am      1 RES1    0.0000
      5 O3         9.5662   -3.4681    9.1112 O.2       1 RES1    0.0000
      6 C1        13.8337    1.3081    6.9589 C.3       1 RES1    0.0000
      7 C2        10.5720   -0.9505   12.1529 C.ar      1 RES1    0.0000
      8 C3        12.9300    0.1008    8.7807 C.2       1 RES1    0.0000
      9 C4        11.5555   -1.5466   10.0233 C.ar      1 RES1    0.0000
     10 C5         9.5556   -3.8285   10.2766 C.2       1 RES1    0.0000
     11 C6        14.6530    0.0062    7.1620 C.3       1 RES1    0.0000
     12 C7        10.7765   -1.8732   11.1307 C.ar      1 RES1    0.0000
     13 C8        12.0944   -0.2562    9.9298 C.ar      1 RES1    0.0000
     14 C9        11.8683    0.6773   10.9398 C.ar      1 RES1    0.0000
     15 N3        13.7744   -0.7333    8.1406 N.3       1 RES1    0.0000
     16 C10       12.8532    1.2168    5.7928 C.3       1 RES1    0.0000
     17 C11       14.6390    2.5830    6.8821 C.3       1 RES1    0.0000
     18 H1        14.0439    3.3362    6.8439 H         1 RES1    0.0000
     19 H2        15.1867    2.5683    6.0941 H         1 RES1    0.0000
     20 H3        15.1967    2.6565    7.6596 H         1 RES1    0.0000
     21 C12       11.1261    0.3143   12.0609 C.ar      1 RES1    0.0000
     22 C13       15.9867    0.2043    7.8787 C.3       1 RES1    0.0000
     23 C14        8.7823   -5.0375   10.7315 C.3       1 RES1    0.0000
     24 H4         7.9020   -5.0158   10.3509 H         1 RES1    0.0000
     25 H5         8.7182   -5.0344   11.6889 H         1 RES1    0.0000
     26 H6         9.2359   -5.8340   10.4446 H         1 RES1    0.0000
     27 C15       14.8537   -0.8352    5.9200 C.3       1 RES1    0.0000
     28 H7        14.0081   -0.9707    5.4858 H         1 RES1    0.0000
     29 H8        15.2266   -1.6851    6.1667 H         1 RES1    0.0000
     30 H9        15.4535   -0.3847    5.3213 H         1 RES1    0.0000
     31 H10       13.3730    1.1533    4.8584 H         1 RES1    0.0000
     32 H11       11.7146   -2.1519    9.2960 H         1 RES1    0.0000
     33 H12       12.1844    1.5791   10.8932 H         1 RES1    0.0000
     34 H13       15.8776    0.7276    8.7700 H         1 RES1    0.0000
     35 H14       10.0741   -1.2153   12.9207 H         1 RES1    0.0000
     36 H15       11.0078    0.9830   12.7772 H         1 RES1    0.0000
     37 H16       12.2720    0.4025    5.8626 H         1 RES1    0.0000
     38 H17       16.5426    0.6889    7.3546 H         1 RES1    0.0000
     39 H18       16.3693   -0.7199    8.1101 H         1 RES1    0.0000
     40 H19       10.0741   -3.3981   12.0695 H         1 RES1    0.0000
     41 H20       12.2661    1.9816    5.8052 H         1 RES1    0.0000
@<TRIPOS>BOND
     1    1    2 1
     2    3   15 1
     3    4   10 1
     4    5   10 2
     5    6    1 1
     6    7   12 ar
     7    8    1 2
     8    9   12 ar
     9   10   23 1
    10   11    6 1
    11   12    4 1
    12   13    8 1
    13   14   13 ar
    14   15    8 1
    15   16    6 1
    16   17    6 1
    17   18   17 1
    18   19   17 1
    19   20   17 1
    20   21    7 ar
    21   22   11 1
    22   23   24 1
    23   25   23 1
    24   26   23 1
    25   27   11 1
    26   28   27 1
    27   29   27 1
    28   30   27 1
    29   31   16 1
    30   32    9 1
    31   33   14 1
    32   34   22 1
    33   35    7 1
    34   36   21 1
    35   37   16 1
    36   38   22 1
    37   39   22 1
    38   40    4 1
    39   41   16 1
    40    9   13 ar
    41   11   15 1
    42   14   21 ar
@<TRIPOS>SUBSTRUCTURE
     1 RES1 1

@<TRIPOS>CRYSIN
  19.9092    7.7405    9.5638  90.0000  90.0000  90.0000  33 1

