# MOL2 file generated by ConQuest
# Please check atom types

@<TRIPOS>MOLECULE
PAQXEL
    53    53     1
SMALL
USER_CHARGES
****
Generated from CSD

@<TRIPOS>ATOM
      1 C1         0.9905    3.6461    4.3942 C.2       1 RES1    0.0000
      2 C2         0.8800    2.2242    3.9407 C.3       1 RES1    0.0000
      3 H1         0.5581    1.6657    4.5926 H         1 RES1    0.0000
      4 H2         0.2844    2.0943    3.0969 H         1 RES1    0.0000
      5 C3         2.3095    1.9180    3.5063 C.3       1 RES1    0.0000
      6 H3         2.6886    1.0900    3.8064 H         1 RES1    0.0000
      7 C4         2.6270    2.2168    2.0394 C.3       1 RES1    0.0000
      8 H4         2.5676    3.2579    1.8121 H         1 RES1    0.0000
      9 C5         1.8953    1.3877    0.9991 C.3       1 RES1    0.0000
     10 H5         1.0291    1.7269    1.0739 H         1 RES1    0.0000
     11 C6         2.4908    1.4893   -0.3749 C.3       1 RES1    0.0000
     12 H6         3.3989    1.2982   -0.3931 H         1 RES1    0.0000
     13 C7         1.7916    0.6528   -1.4526 C.3       1 RES1    0.0000
     14 H7         2.0444   -0.2327   -1.2560 H         1 RES1    0.0000
     15 H8         2.1268    0.8328   -2.2819 H         1 RES1    0.0000
     16 C8        -0.0865    4.6039    4.6377 C.2       1 RES1    0.0000
     17 C9        -2.4678    4.7668    4.8141 C.3       1 RES1    0.0000
     18 H9        -3.2802    3.9192    4.8323 H         1 RES1    0.0000
     19 H10       -2.4013    5.6094    4.3050 H         1 RES1    0.0000
     20 H11       -2.4963    5.2297    5.6857 H         1 RES1    0.0000
     21 C10        4.9279    2.9786    1.7642 C.2       1 RES1    0.0000
     22 C11        6.3171    2.4838    1.7613 C.3       1 RES1    0.0000
     23 H12        6.3905    2.1311    2.6655 H         1 RES1    0.0000
     24 H13        6.8697    3.1109    1.8313 H         1 RES1    0.0000
     25 H14        6.5259    1.6657    1.3327 H         1 RES1    0.0000
     26 C12        0.7776   -0.6454    1.6386 C.2       1 RES1    0.0000
     27 C13        0.9568   -2.1470    1.6999 C.3       1 RES1    0.0000
     28 H15        0.2707   -2.5230    2.3970 H         1 RES1    0.0000
     29 H16        1.8751   -2.3760    1.8025 H         1 RES1    0.0000
     30 H17        0.6886   -2.2168    0.8725 H         1 RES1    0.0000
     31 C14        3.5121    3.4073   -1.3749 C.2       1 RES1    0.0000
     32 C15        3.4390    4.9064   -1.4401 C.3       1 RES1    0.0000
     33 H18        3.7145    5.3277   -0.4794 H         1 RES1    0.0000
     34 H19        2.5143    5.1317   -1.4382 H         1 RES1    0.0000
     35 H20        4.1595    5.2297   -1.9655 H         1 RES1    0.0000
     36 C16       -0.4743   -0.0698   -1.6616 C.2       1 RES1    0.0000
     37 C17       -1.8526    0.3993   -1.8955 C.3       1 RES1    0.0000
     38 H21       -1.9432    0.6834   -2.8083 H         1 RES1    0.0000
     39 H22       -2.0431    1.1354   -1.3107 H         1 RES1    0.0000
     40 H23       -2.4685   -0.3160   -1.7201 H         1 RES1    0.0000
     41 O1         3.1252    2.8488    4.3079 O.3       1 RES1    0.0000
     42 O2         2.8273    4.9970    4.9829 O.2       1 RES1   -1.0000
     43 O3         4.0509    1.9388    1.8965 O.3       1 RES1    0.0000
     44 O4         1.9472   -0.0318    1.3394 O.3       1 RES1    0.0000
     45 O5         2.4529    2.9002   -0.7133 O.3       1 RES1    0.0000
     46 O6         0.3876    0.9529   -1.4986 O.3       1 RES1    0.0000
     47 O7         0.0337    5.7882    4.8247 O.2       1 RES1    0.0000
     48 O8        -1.2635    3.9462    4.6291 O.3       1 RES1    0.0000
     49 O9         4.5669    4.1470    1.6635 O.2       1 RES1    0.0000
     50 O10       -0.2534   -0.0710    1.8073 O.2       1 RES1    0.0000
     51 O11        4.3743    2.7251   -1.8409 O.2       1 RES1    0.0000
     52 O12       -0.1154   -1.2248   -1.6395 O.2       1 RES1    0.0000
     53 N1         2.2341    3.9817    4.5869 N.pl3     1 RES1    1.0000
@<TRIPOS>BOND
     1    1    2 1
     2    2    3 1
     3    4    2 1
     4    5    2 1
     5    6    5 1
     6    7    5 1
     7    8    7 1
     8    9    7 1
     9   10    9 1
    10   11    9 1
    11   12   11 1
    12   13   11 1
    13   14   13 1
    14   15   13 1
    15   16    1 1
    16   17   18 1
    17   19   17 1
    18   20   17 1
    19   21   22 1
    20   22   23 1
    21   24   22 1
    22   25   22 1
    23   26   27 1
    24   27   28 1
    25   29   27 1
    26   30   27 1
    27   31   32 1
    28   32   33 1
    29   34   32 1
    30   35   32 1
    31   36   37 1
    32   37   38 1
    33   39   37 1
    34   40   37 1
    35   41    5 1
    36   42   53 1
    37   43    7 1
    38   44    9 1
    39   45   11 1
    40   46   13 1
    41   47   16 2
    42   48   16 1
    43   49   21 2
    44   50   26 2
    45   51   31 2
    46   52   36 2
    47   53    1 2
    48   17   48 1
    49   21   43 1
    50   26   44 1
    51   31   45 1
    52   36   46 1
    53   41   53 1
@<TRIPOS>SUBSTRUCTURE
     1 RES1 1

@<TRIPOS>CRYSIN
   8.7077   12.2476   10.4305  90.0000 113.1870  90.0000   4 1

