# MOL2 file generated by ConQuest
# Please check atom types

@<TRIPOS>MOLECULE
PARGOH
    37    38     1
SMALL
NO_CHARGES
****
Generated from CSD

@<TRIPOS>ATOM
      1 N1         0.8248   10.9849    2.4468 N.pl3     1 RES1    0.0000
      2 N2         4.1871    2.1620    2.4034 N.pl3     1 RES1    0.0000
      3 O1         4.1251    7.5660    1.1061 O.3       1 RES1    0.0000
      4 O2         0.7518    5.5523    3.5758 O.3       1 RES1    0.0000
      5 C1         1.2294    8.6477    1.8053 C.ar      1 RES1    0.0000
      6 H1         1.5128    8.9468    0.9492 H         1 RES1    0.0000
      7 C2         1.2325    7.3011    2.1053 C.ar      1 RES1    0.0000
      8 C3         2.9787    5.5601    1.4668 C.ar      1 RES1    0.0000
      9 C4         4.2013    6.2622    1.4638 C.ar      1 RES1    0.0000
     10 C5         0.7681    6.8872    3.3753 C.ar      1 RES1    0.0000
     11 C6         4.1920    3.5912    2.1035 C.ar      1 RES1    0.0000
     12 C7         2.9932    4.2160    1.7754 C.ar      1 RES1    0.0000
     13 H2         2.1848    3.7175    1.7641 H         1 RES1    0.0000
     14 C8         0.8088    9.5673    2.7654 C.ar      1 RES1    0.0000
     15 C9         5.3936    5.6239    1.8131 C.ar      1 RES1    0.0000
     16 H3         6.2080    6.1135    1.8231 H         1 RES1    0.0000
     17 C10        5.3916    4.2796    2.1444 C.ar      1 RES1    0.0000
     18 H4         6.1961    3.8400    2.3944 H         1 RES1    0.0000
     19 C11        1.6956    6.2689    1.0910 C.3       1 RES1    0.0000
     20 H5         0.9808    5.5936    0.9777 H         1 RES1    0.0000
     21 H6         1.8247    6.7181    0.2180 H         1 RES1    0.0000
     22 C12        0.3867    9.1720    4.0191 C.ar      1 RES1    0.0000
     23 H7         0.1283    9.8181    4.6659 H         1 RES1    0.0000
     24 C13        0.3472    7.8220    4.3200 C.ar      1 RES1    0.0000
     25 H8         0.0338    7.5324    5.1686 H         1 RES1    0.0000
     26 C14        5.3397    8.3370    1.1169 C.3       1 RES1    0.0000
     27 H9         5.7271    8.3230    2.0164 H         1 RES1    0.0000
     28 H10        5.1413    9.2616    0.8606 H         1 RES1    0.0000
     29 H11        5.9768    7.9517    0.4798 H         1 RES1    0.0000
     30 C15        0.2855    5.0669    4.8483 C.3       1 RES1    0.0000
     31 H12        0.8112    5.4770    5.5665 H         1 RES1    0.0000
     32 H13        0.3874    4.0929    4.8839 H         1 RES1    0.0000
     33 H14       -0.6598    5.3009    4.9610 H         1 RES1    0.0000
     34 O3         0.7862   11.3192    1.2604 O.2       1 RES1    0.0000
     35 O4         3.1688    1.5212    2.1811 O.2       1 RES1    0.0000
     36 O5         0.8767   11.7890    3.3709 O.2       1 RES1    0.0000
     37 O6         5.2073    1.6572    2.8585 O.2       1 RES1    0.0000
@<TRIPOS>BOND
     1    1   14 1
     2    2   11 1
     3    3    9 1
     4    4   10 1
     5    5    6 1
     6    7    5 ar
     7    8    9 ar
     8    9   15 ar
     9   10    7 ar
    10   11   12 ar
    11   12    8 ar
    12   13   12 1
    13   14    5 ar
    14   15   16 1
    15   17   11 ar
    16   18   17 1
    17   19    7 1
    18   20   19 1
    19   21   19 1
    20   22   14 ar
    21   23   22 1
    22   24   10 ar
    23   25   24 1
    24   26    3 1
    25   27   26 1
    26   28   26 1
    27   29   26 1
    28   30    4 1
    29   31   30 1
    30   32   30 1
    31   33   30 1
    32   34    1 2
    33   35    2 2
    34   36    1 2
    35   37    2 2
    36    8   19 1
    37   15   17 ar
    38   22   24 ar
@<TRIPOS>SUBSTRUCTURE
     1 RES1 1

@<TRIPOS>CRYSIN
   7.6504    9.6220   11.1741  65.3170  70.4020  87.2530   2 1

