# MOL2 file generated by ConQuest
# Please check atom types

@<TRIPOS>MOLECULE
PARMEB
    24    25     1
SMALL
NO_CHARGES
****
Generated from CSD

@<TRIPOS>ATOM
      1 O1         4.0567   -0.3845    1.7016 O.2       1 RES1    0.0000
      2 O2         8.4253    0.2596    0.7208 O.3       1 RES1    0.0000
      3 N1         5.2390    0.1780    1.6926 N.pl3     1 RES1    0.0000
      4 C1         6.3887   -0.4018    1.8594 C.2       1 RES1    0.0000
      5 C2         7.5126    0.6071    1.7490 C.3       1 RES1    0.0000
      6 C3         6.7414    1.8843    1.4766 C.ar      1 RES1    0.0000
      7 C4         7.1491    3.1763    1.2400 C.ar      1 RES1    0.0000
      8 C5         6.1708    4.1419    1.0314 C.ar      1 RES1    0.0000
      9 C6         4.8270    3.8192    1.0752 C.ar      1 RES1    0.0000
     10 C7         4.4060    2.5222    1.3065 C.ar      1 RES1    0.0000
     11 C8         5.3968    1.5888    1.4819 C.ar      1 RES1    0.0000
     12 C9         6.5085   -1.8360    2.1411 C.3       1 RES1    0.0000
     13 C10        8.3157    0.6850    3.0436 C.3       1 RES1    0.0000
     14 H1         8.1143    3.4124    1.1829 H         1 RES1    0.0000
     15 H2         6.4584    5.0321    0.8107 H         1 RES1    0.0000
     16 H3         4.1681    4.5376    0.9303 H         1 RES1    0.0000
     17 H4         3.4494    2.3120    1.3158 H         1 RES1    0.0000
     18 H5         6.3550   -2.0153    3.1233 H         1 RES1    0.0000
     19 H6         7.4374   -2.1884    1.9936 H         1 RES1    0.0000
     20 H7         5.9030   -2.3244    1.6746 H         1 RES1    0.0000
     21 H8         7.7152    0.8531    3.8277 H         1 RES1    0.0000
     22 H9         9.0304    1.3724    2.9239 H         1 RES1    0.0000
     23 H10        8.7907   -0.1113    3.1765 H         1 RES1    0.0000
     24 H11        7.9928    0.3215   -0.1063 H         1 RES1    0.0000
@<TRIPOS>BOND
     1    1    3 1
     2    2    5 1
     3    3    4 2
     4    4    5 1
     5    5    6 1
     6    6    7 ar
     7    7    8 ar
     8    8    9 ar
     9    9   10 ar
    10   10   11 ar
    11   11    3 1
    12   12    4 1
    13   13    5 1
    14   14    7 1
    15   15    8 1
    16   16    9 1
    17   17   10 1
    18   18   12 1
    19   19   12 1
    20   20   12 1
    21   21   13 1
    22   22   13 1
    23   23   13 1
    24   24    2 1
    25    6   11 ar
@<TRIPOS>SUBSTRUCTURE
     1 RES1 1

@<TRIPOS>CRYSIN
  11.3440   12.3639   13.7850  90.0000 105.3910  90.0000  15 1

