# MOL2 file generated by ConQuest
# Please check atom types

@<TRIPOS>MOLECULE
PASJUP
    30    29     1
SMALL
NO_CHARGES
****
Generated from CSD

@<TRIPOS>ATOM
      1 O1         2.5650    3.4313    3.8119 O.2       1 RES1    0.0000
      2 O2         1.1798    5.0514    3.6347 O.2       1 RES1    0.0000
      3 O3         3.1810    3.2083    6.5300 O.2       1 RES1    0.0000
      4 O4         2.0944    1.4051    6.9208 O.2       1 RES1    0.0000
      5 N1         1.4682    3.9523    4.0211 N.pl3     1 RES1    0.0000
      6 N2         2.1476    2.5944    6.6200 N.pl3     1 RES1    0.0000
      7 C1         0.4509    3.1347    4.8332 C.3       1 RES1    0.0000
      8 C2         0.7923    3.3331    6.3731 C.3       1 RES1    0.0000
      9 C3        -0.9315    3.7293    4.5659 C.3       1 RES1    0.0000
     10 H1        -1.1674    3.5906    3.6463 H         1 RES1    0.0000
     11 H2        -0.9175    4.6705    4.7547 H         1 RES1    0.0000
     12 H3        -1.5791    3.3006    5.1310 H         1 RES1    0.0000
     13 C4         0.5394    1.6924    4.3378 C.3       1 RES1    0.0000
     14 H4         1.4429    1.3685    4.4802 H         1 RES1    0.0000
     15 H5        -0.0573    1.1422    4.8710 H         1 RES1    0.0000
     16 C5         0.1804    1.5199    2.8662 C.3       1 RES1    0.0000
     17 H6         0.2449    0.5920    2.6280 H         1 RES1    0.0000
     18 H7         0.7878    2.0316    2.3273 H         1 RES1    0.0000
     19 H8        -0.7162    1.8272    2.7166 H         1 RES1    0.0000
     20 C6        -0.2409    2.6787    7.2549 C.3       1 RES1    0.0000
     21 H9        -0.0066    2.8141    8.1759 H         1 RES1    0.0000
     22 H10       -0.2725    1.7382    7.0675 H         1 RES1    0.0000
     23 H11       -1.1021    3.0689    7.0835 H         1 RES1    0.0000
     24 C7         1.0344    4.8025    6.7450 C.3       1 RES1    0.0000
     25 H12        1.7769    5.1350    6.2176 H         1 RES1    0.0000
     26 H13        0.2491    5.3149    6.4980 H         1 RES1    0.0000
     27 C8         1.3355    5.0600    8.2166 C.3       1 RES1    0.0000
     28 H14        1.4467    6.0032    8.3604 H         1 RES1    0.0000
     29 H15        2.1412    4.6014    8.4635 H         1 RES1    0.0000
     30 H16        0.6066    4.7388    8.7541 H         1 RES1    0.0000
@<TRIPOS>BOND
     1    1    5 2
     2    2    5 2
     3    3    6 2
     4    4    6 2
     5    5    7 1
     6    6    8 1
     7    7    8 1
     8    8   20 1
     9    9    7 1
    10   10    9 1
    11   11    9 1
    12   12    9 1
    13   13    7 1
    14   14   13 1
    15   15   13 1
    16   16   13 1
    17   17   16 1
    18   18   16 1
    19   19   16 1
    20   20   21 1
    21   22   20 1
    22   23   20 1
    23   24    8 1
    24   25   24 1
    25   26   24 1
    26   27   24 1
    27   28   27 1
    28   29   27 1
    29   30   27 1
@<TRIPOS>SUBSTRUCTURE
     1 RES1 1

@<TRIPOS>CRYSIN
  10.7140    6.6370   15.3990  90.0000 109.3720  90.0000   9 1

