# MOL2 file generated by ConQuest
# Please check atom types

@<TRIPOS>MOLECULE
PATSUB
    55    56     1
SMALL
NO_CHARGES
****
Generated from CSD

@<TRIPOS>ATOM
      1 O1        -4.8688   -2.2018   -3.1493 O.3       1 RES1    0.0000
      2 H1        -4.5922   -1.4718   -2.8402 H         1 RES1    0.0000
      3 O2        -3.7142   -6.7203   -2.2827 O.2       1 RES1    0.0000
      4 O3        -2.5042   -5.8591   -5.4304 O.3       1 RES1    0.0000
      5 N1        -2.4875   -6.3689   -4.1155 N.am      1 RES1    0.0000
      6 C1       -10.0452   -3.2490   -2.8834 C.3       1 RES1    0.0000
      7 H2        -9.8140   -2.3356   -2.6129 H         1 RES1    0.0000
      8 H3        -9.7665   -3.3954   -3.8110 H         1 RES1    0.0000
      9 H4       -11.0140   -3.3765   -2.8094 H         1 RES1    0.0000
     10 C2        -1.7183   -7.5925   -3.9873 C.3       1 RES1    0.0000
     11 H5        -2.1723   -8.3155   -4.4681 H         1 RES1    0.0000
     12 H6        -0.8243   -7.4586   -4.3675 H         1 RES1    0.0000
     13 H7        -1.6380   -7.8303   -3.0399 H         1 RES1    0.0000
     14 C3        -5.4500   -4.4969   -2.6965 C.3       1 RES1    0.0000
     15 H8        -5.3906   -5.1725   -1.9619 H         1 RES1    0.0000
     16 C4        -7.3565   -2.6515   -1.4485 C.3       1 RES1    0.0000
     17 H9        -7.9293   -2.3593   -0.6959 H         1 RES1    0.0000
     18 H10       -7.4715   -2.0086   -2.1923 H         1 RES1    0.0000
     19 C5        -6.9488   -4.4948   -3.1481 C.3       1 RES1    0.0000
     20 C6        -5.8964   -2.6696   -1.0060 C.3       1 RES1    0.0000
     21 H11       -5.6284   -1.7528   -0.7462 H         1 RES1    0.0000
     22 H12       -5.8105   -3.2469   -0.2062 H         1 RES1    0.0000
     23 C7        -4.9423   -3.1771   -2.0885 C.3       1 RES1    0.0000
     24 C8        -7.1479   -3.6136   -4.3969 C.3       1 RES1    0.0000
     25 H13       -7.1677   -2.6703   -4.1314 H         1 RES1    0.0000
     26 H14       -6.4084   -3.7607   -5.0222 H         1 RES1    0.0000
     27 H15       -7.9945   -3.8485   -4.8316 H         1 RES1    0.0000
     28 C9        -7.3463   -5.9436   -3.4817 C.3       1 RES1    0.0000
     29 H16       -6.8854   -6.2190   -4.3134 H         1 RES1    0.0000
     30 H17       -7.0347   -6.5376   -2.7534 H         1 RES1    0.0000
     31 C10       -3.5570   -6.0831   -3.3218 C.2       1 RES1    0.0000
     32 C11       -7.7796   -4.0479   -1.9053 C.3       1 RES1    0.0000
     33 H18       -7.4787   -4.6552   -1.1699 H         1 RES1    0.0000
     34 C12       -9.6078   -5.6940   -2.4041 C.3       1 RES1    0.0000
     35 H19       -9.3608   -6.3006   -1.6615 H         1 RES1    0.0000
     36 H20      -10.5800   -5.7951   -2.5621 H         1 RES1    0.0000
     37 C13       -3.5407   -3.3473   -1.4878 C.3       1 RES1    0.0000
     38 H21       -2.9052   -3.5697   -2.1997 H         1 RES1    0.0000
     39 H22       -3.2676   -2.5127   -1.0537 H         1 RES1    0.0000
     40 H23       -3.5544   -4.0703   -0.8264 H         1 RES1    0.0000
     41 C14       -9.3274   -4.2480   -1.9716 C.3       1 RES1    0.0000
     42 C15       -8.8583   -6.1326   -3.6650 C.3       1 RES1    0.0000
     43 H24       -9.1681   -5.5978   -4.4381 H         1 RES1    0.0000
     44 H25       -9.0530   -7.0849   -3.8522 H         1 RES1    0.0000
     45 C16       -9.9189   -4.0912   -0.5598 C.3       1 RES1    0.0000
     46 H26       -9.4433   -4.6810    0.0616 H         1 RES1    0.0000
     47 H27       -9.8215   -3.1611   -0.2664 H         1 RES1    0.0000
     48 H28      -10.8693   -4.3296   -0.5754 H         1 RES1    0.0000
     49 C17       -1.5183   -4.8281   -5.5626 C.3       1 RES1    0.0000
     50 H29       -1.4194   -4.5904   -6.5081 H         1 RES1    0.0000
     51 H30       -1.8009   -4.0389   -5.0553 H         1 RES1    0.0000
     52 H31       -0.6608   -5.1502   -5.2151 H         1 RES1    0.0000
     53 C18       -4.4819   -4.9892   -3.7956 C.3       1 RES1    0.0000
     54 H32       -5.0101   -5.3245   -4.5630 H         1 RES1    0.0000
     55 H33       -3.9394   -4.2243   -4.1132 H         1 RES1    0.0000
@<TRIPOS>BOND
     1    1    2 1
     2    3   31 2
     3    4    5 1
     4    5   10 1
     5    6    7 1
     6    8    6 1
     7    9    6 1
     8   10   11 1
     9   12   10 1
    10   13   10 1
    11   14   15 1
    12   16   17 1
    13   18   16 1
    14   19   14 1
    15   20   16 1
    16   21   20 1
    17   22   20 1
    18   23    1 1
    19   24   19 1
    20   25   24 1
    21   26   24 1
    22   27   24 1
    23   28   19 1
    24   29   28 1
    25   30   28 1
    26   31    5 1
    27   32   16 1
    28   33   32 1
    29   34   35 1
    30   36   34 1
    31   37   23 1
    32   38   37 1
    33   39   37 1
    34   40   37 1
    35   41    6 1
    36   42   28 1
    37   43   42 1
    38   44   42 1
    39   45   41 1
    40   46   45 1
    41   47   45 1
    42   48   45 1
    43   49    4 1
    44   50   49 1
    45   51   49 1
    46   52   49 1
    47   53   14 1
    48   54   53 1
    49   55   53 1
    50   14   23 1
    51   19   32 1
    52   20   23 1
    53   31   53 1
    54   32   41 1
    55   34   41 1
    56   34   42 1
@<TRIPOS>SUBSTRUCTURE
     1 RES1 1

@<TRIPOS>CRYSIN
  10.7535    6.9720   12.6570  90.0000 110.7100  90.0000   4 1

