# MOL2 file generated by ConQuest
# Please check atom types

@<TRIPOS>MOLECULE
PATTIQ
    43    44     1
SMALL
NO_CHARGES
****
Generated from CSD

@<TRIPOS>ATOM
      1 O1         3.1889    6.1446   11.8767 O.3       1 RES1    0.0000
      2 O2         1.3761    6.8297   13.0132 O.2       1 RES1    0.0000
      3 O3         5.3192    4.4775   10.2963 O.2       1 RES1    0.0000
      4 O4         3.2972    3.6412   10.0057 O.3       1 RES1    0.0000
      5 O5         6.4815    3.3870   14.0211 O.2       1 RES1    0.0000
      6 O6         6.6241    3.3178   16.1652 O.2       1 RES1    0.0000
      7 O7         3.0270    5.1185   18.8227 O.2       1 RES1    0.0000
      8 O8         1.4149    6.1719   17.8476 O.2       1 RES1    0.0000
      9 N1         6.0848    3.6789   15.1304 N.pl3     1 RES1    0.0000
     10 N2         2.4986    5.6083   17.8401 N.pl3     1 RES1    0.0000
     11 C1         2.5767    6.4742   10.5897 C.3       1 RES1    0.0000
     12 H1         1.6805    6.0875   10.5035 H         1 RES1    0.0000
     13 C2         3.5452    5.9132    9.5406 C.3       1 RES1    0.0000
     14 H2         3.0464    5.7517    8.7119 H         1 RES1    0.0000
     15 C3         4.5445    7.0456    9.2921 C.3       1 RES1    0.0000
     16 H3         5.1550    7.0922   10.0572 H         1 RES1    0.0000
     17 C4         3.6449    8.2663    9.3230 C.3       1 RES1    0.0000
     18 H4         3.2436    8.4120    8.4528 H         1 RES1    0.0000
     19 H5         4.1540    9.0550    9.5671 H         1 RES1    0.0000
     20 C5         2.5675    7.9879   10.3646 C.3       1 RES1    0.0000
     21 H6         1.6999    8.2782   10.0416 H         1 RES1    0.0000
     22 H7         2.7648    8.4556   11.1903 H         1 RES1    0.0000
     23 C6         4.1797    4.6162    9.9763 C.2       1 RES1    0.0000
     24 C7         3.7128    2.3631   10.5310 C.3       1 RES1    0.0000
     25 H8         4.4493    1.8875   10.2195 H         1 RES1    0.0000
     26 C8         2.9062    1.9370   11.5299 C.3       1 RES1    0.0000
     27 H9         1.9889    2.0480   11.2683 H         1 RES1    0.0000
     28 H10        3.0783    2.4503   12.3233 H         1 RES1    0.0000
     29 H11        3.0783    1.0086   11.7053 H         1 RES1    0.0000
     30 C9         5.3756    6.8960    8.0223 C.3       1 RES1    0.0000
     31 H12        5.8722    6.0747    8.0595 H         1 RES1    0.0000
     32 H13        5.9845    7.6342    7.9502 H         1 RES1    0.0000
     33 H14        4.7942    6.8841    7.2573 H         1 RES1    0.0000
     34 C10        2.4718    6.3338   12.9745 C.2       1 RES1    0.0000
     35 C11        3.1838    5.8131   14.1818 C.ar      1 RES1    0.0000
     36 C12        4.3547    5.0644   14.0804 C.ar      1 RES1    0.0000
     37 H15        4.7645    4.9283   13.2566 H         1 RES1    0.0000
     38 C13        4.8905    4.5309   15.2356 C.ar      1 RES1    0.0000
     39 C14        4.3353    4.7108   16.4851 C.ar      1 RES1    0.0000
     40 H16        4.7201    4.3447   17.2489 H         1 RES1    0.0000
     41 C15        3.1775    5.4629   16.5435 C.ar      1 RES1    0.0000
     42 C16        2.5915    6.0180   15.4235 C.ar      1 RES1    0.0000
     43 H17        1.8128    6.5215   15.4978 H         1 RES1    0.0000
@<TRIPOS>BOND
     1    1   11 1
     2    2   34 2
     3    3   23 2
     4    4   23 1
     5    5    9 2
     6    6    9 2
     7    7   10 2
     8    8   10 2
     9    9   38 1
    10   10   41 1
    11   11   12 1
    12   13   11 1
    13   14   13 1
    14   15   13 1
    15   16   15 1
    16   17   15 1
    17   18   17 1
    18   19   17 1
    19   20   11 1
    20   21   20 1
    21   22   20 1
    22   23   13 1
    23   24    4 1
    24   25   24 1
    25   26   24 1
    26   27   26 1
    27   28   26 1
    28   29   26 1
    29   30   15 1
    30   31   30 1
    31   32   30 1
    32   33   30 1
    33   34    1 1
    34   35   34 1
    35   36   35 ar
    36   37   36 1
    37   38   36 ar
    38   39   38 ar
    39   40   39 1
    40   41   39 ar
    41   42   35 ar
    42   43   42 1
    43   17   20 1
    44   41   42 ar
@<TRIPOS>SUBSTRUCTURE
     1 RES1 1

@<TRIPOS>CRYSIN
   5.7006    9.9081   31.2141  90.0000  90.0000  90.0000  19 1

