# MOL2 file generated by ConQuest
# Please check atom types

@<TRIPOS>MOLECULE
PATXOY
    39    38     2
SMALL
NO_CHARGES
****
Generated from CSD

@<TRIPOS>ATOM
      1 N1         4.6966    3.1329    4.3741 N.3       1 RES1    0.0000
      2 H1         4.5515    2.8040    5.1790 H         1 RES1    0.0000
      3 C1         4.0951    2.5562    3.3393 C.2       1 RES1    0.0000
      4 H2         3.4768    1.8526    3.5002 H         1 RES1    0.0000
      5 C2         4.3401    2.9471    2.0396 C.2       1 RES1    0.0000
      6 C3         5.4288    3.8522    1.8378 C.2       1 RES1    0.0000
      7 H3         5.7511    4.0028    0.9566 H         1 RES1    0.0000
      8 C4         6.0099    4.4992    2.8740 C.2       1 RES1    0.0000
      9 C5         5.4201    4.4126    4.2641 C.3       1 RES1    0.0000
     10 H4         6.1676    4.4154    4.9281 H         1 RES1    0.0000
     11 C6         3.7597    2.2716    0.8804 C.2       1 RES1    0.0000
     12 O1         4.1415    2.4227   -0.2619 O.2       1 RES1    0.0000
     13 O2         2.7408    1.4447    1.2102 O.3       1 RES1    0.0000
     14 C7         2.1554    0.7230    0.0991 C.3       1 RES1    0.0000
     15 H5         1.9777    1.3449   -0.6364 H         1 RES1    0.0000
     16 H6         1.3153    0.3070    0.3855 H         1 RES1    0.0000
     17 H7         2.7771    0.0285   -0.2040 H         1 RES1    0.0000
     18 C8         7.2373    5.2713    2.7161 C.2       1 RES1    0.0000
     19 O3         7.7969    5.8728    3.6210 O.2       1 RES1    0.0000
     20 O4         7.7207    5.2452    1.4664 O.3       1 RES1    0.0000
     21 C9         8.9385    5.9903    1.2404 C.3       1 RES1    0.0000
     22 H8         8.8711    6.8657    1.6746 H         1 RES1    0.0000
     23 H9         9.0728    6.1132    0.2774 H         1 RES1    0.0000
     24 H10        9.6974    5.4974    1.6155 H         1 RES1    0.0000
     25 C10        4.4544    5.5614    4.6062 C.ar      1 RES1    0.0000
     26 C11        3.9811    5.8573    5.9006 C.ar      1 RES1    0.0000
     27 C12        3.0583    6.8622    6.1515 C.ar      1 RES1    0.0000
     28 H11        2.7550    7.0213    7.0372 H         1 RES1    0.0000
     29 C13        2.5804    7.6341    5.1027 C.ar      1 RES1    0.0000
     30 H12        1.9500    8.3265    5.2626 H         1 RES1    0.0000
     31 C14        3.0358    7.3808    3.8182 C.ar      1 RES1    0.0000
     32 H13        2.7185    7.9087    3.0943 H         1 RES1    0.0000
     33 C15        3.9519    6.3627    3.5771 C.ar      1 RES1    0.0000
     34 H14        4.2446    6.2075    2.6864 H         1 RES1    0.0000
     35 N2         4.4672    5.1319    7.0980 N.pl3     1 RES1    0.0000
     36 O5         4.1763    5.6055    8.2076 O.2       1 RES1    0.0000
     37 O6         5.1913    4.1741    6.9807 O.2       1 RES1    0.0000
     38 O7         3.6337    4.9447    7.9877 Du        2 SUP2    0.0000
     39 O8         5.5060    4.5261    7.0453 Du        2 SUP2    0.0000
@<TRIPOS>BOND
     1    1    2 1
     2    3    1 1
     3    4    3 1
     4    5    3 2
     5    6    5 1
     6    7    6 1
     7    8    6 2
     8    9    1 1
     9   10    9 1
    10   11    5 1
    11   12   11 2
    12   13   11 1
    13   14   13 1
    14   15   14 1
    15   16   14 1
    16   17   14 1
    17   18    8 1
    18   19   18 2
    19   20   18 1
    20   21   20 1
    21   22   21 1
    22   23   21 1
    23   24   21 1
    24   25    9 1
    25   26   25 ar
    26   27   26 ar
    27   28   27 1
    28   29   27 ar
    29   30   29 1
    30   31   29 ar
    31   32   31 1
    32   33   25 ar
    33   34   33 1
    34   35   26 1
    35   36   35 2
    36   37   35 2
    37    8    9 1
    38   31   33 ar
@<TRIPOS>SUBSTRUCTURE
     1 RES1 1
     2 SUP2 38

@<TRIPOS>CRYSIN
   8.1524    8.6491   20.4230  90.0000  92.8560  90.0000 231 1

