# MOL2 file generated by ConQuest
# Please check atom types

@<TRIPOS>MOLECULE
PAVCIZ
    56    59     1
SMALL
NO_CHARGES
****
Generated from CSD

@<TRIPOS>ATOM
      1 O1         1.3726   14.4909    3.4392 O.3       1 RES1    0.0000
      2 O2         1.3712   15.3884    6.4514 O.3       1 RES1    0.0000
      3 C1         1.9245   15.7226    3.5358 C.2       1 RES1    0.0000
      4 O3         3.0138   15.9487    3.9987 O.2       1 RES1    0.0000
      5 O4        -0.5123   16.1007    7.4470 O.2       1 RES1    0.0000
      6 C2         1.4124   18.0888    3.1981 C.ar      1 RES1    0.0000
      7 H1         2.2007   18.2900    3.6495 H         1 RES1    0.0000
      8 C3         2.4902   17.9054    6.5415 C.ar      1 RES1    0.0000
      9 H2         2.9110   17.2668    6.0114 H         1 RES1    0.0000
     10 C4         0.7015   18.5746    8.0111 C.ar      1 RES1    0.0000
     11 H3        -0.1051   18.3977    8.4397 H         1 RES1    0.0000
     12 C5         0.6010   16.2959    7.0541 C.2       1 RES1    0.0000
     13 N1        -2.1385   17.2085    1.0865 N.pl3     1 RES1    0.0000
     14 O5        -2.3817   16.0347    0.8765 O.2       1 RES1    0.0000
     15 C6        -0.9060   17.5197    1.8283 C.ar      1 RES1    0.0000
     16 C7         0.7920   14.0627    6.2913 C.3       1 RES1    0.0000
     17 H4        -0.0772   14.0984    5.8399 H         1 RES1    0.0000
     18 C8         1.2965   17.6189    7.1877 C.ar      1 RES1    0.0000
     19 C9         3.0390   19.1616    6.7059 C.ar      1 RES1    0.0000
     20 O6        -2.8390   18.1379    0.7261 O.2       1 RES1    0.0000
     21 N2         4.2486   19.5069    5.9449 N.pl3     1 RES1    0.0000
     22 C10       -0.1551   16.4801    2.3321 C.ar      1 RES1    0.0000
     23 H5        -0.4349   15.5996    2.2254 H         1 RES1    0.0000
     24 C11        1.0263   16.7698    3.0003 C.ar      1 RES1    0.0000
     25 C12        1.1999   12.2901    4.4735 C.3       1 RES1    0.0000
     26 H6         1.5568   11.3900    4.4175 H         1 RES1    0.0000
     27 H7         0.2539   12.3684    4.2741 H         1 RES1    0.0000
     28 C13       -0.5656   18.8485    2.0120 C.ar      1 RES1    0.0000
     29 H8        -1.0945   19.5376    1.6813 H         1 RES1    0.0000
     30 C14        1.3402   19.7923    8.1773 C.ar      1 RES1    0.0000
     31 O7         4.6601   18.6715    5.1436 O.2       1 RES1    0.0000
     32 N3         0.7152   20.7626    9.0958 N.pl3     1 RES1    0.0000
     33 C15        2.4993   20.1264    7.5317 C.ar      1 RES1    0.0000
     34 H9         2.9011   20.9580    7.6437 H         1 RES1    0.0000
     35 C16        1.7851   13.2211    5.5250 C.3       1 RES1    0.0000
     36 O8         4.7869   20.5696    6.1548 O.2       1 RES1    0.0000
     37 O9        -0.3534   20.4850    9.5996 O.2       1 RES1    0.0000
     38 C17        0.5994   19.0976    2.7118 C.ar      1 RES1    0.0000
     39 C18        2.0872   13.4129    4.0764 C.3       1 RES1    0.0000
     40 C19        0.7020   13.3288    7.6454 C.3       1 RES1    0.0000
     41 H10        0.6279   13.9683    8.3715 H         1 RES1    0.0000
     42 H11       -0.0753   12.7498    7.6647 H         1 RES1    0.0000
     43 O10        1.3235   21.8013    9.3215 O.2       1 RES1    0.0000
     44 O11        0.3759   21.3648    2.4318 O.2       1 RES1    0.0000
     45 N4         1.0227   20.4886    2.9374 N.pl3     1 RES1    0.0000
     46 C20        2.7958   12.7521    6.5590 C.3       1 RES1    0.0000
     47 H12        3.4708   13.4297    6.7199 H         1 RES1    0.0000
     48 H13        3.2310   11.9331    6.2755 H         1 RES1    0.0000
     49 C21        3.4282   13.0932    3.4588 C.3       1 RES1    0.0000
     50 H14        3.3633   13.1537    2.5036 H         1 RES1    0.0000
     51 H15        3.6900   12.2023    3.7055 H         1 RES1    0.0000
     52 H16        4.0839   13.7192    3.7755 H         1 RES1    0.0000
     53 O12        2.0213   20.6811    3.6198 O.2       1 RES1    0.0000
     54 C22        1.9591   12.5210    7.7889 C.3       1 RES1    0.0000
     55 H17        2.4461   12.7970    8.5814 H         1 RES1    0.0000
     56 H18        1.7435   11.5785    7.8746 H         1 RES1    0.0000
@<TRIPOS>BOND
     1    1    3 1
     2    2   12 1
     3    3    4 2
     4    5   12 2
     5    6    7 1
     6    8    9 1
     7   10   11 1
     8   12   18 1
     9   13   14 2
    10   15   13 1
    11   16    2 1
    12   17   16 1
    13   18    8 ar
    14   19    8 ar
    15   20   13 2
    16   21   19 1
    17   22   15 ar
    18   23   22 1
    19   24    3 1
    20   25   26 1
    21   27   25 1
    22   28   15 ar
    23   29   28 1
    24   30   10 ar
    25   31   21 2
    26   32   30 1
    27   33   19 ar
    28   34   33 1
    29   35   16 1
    30   36   21 2
    31   37   32 2
    32   38    6 ar
    33   39    1 1
    34   40   16 1
    35   41   40 1
    36   42   40 1
    37   43   32 2
    38   44   45 2
    39   45   38 1
    40   46   35 1
    41   47   46 1
    42   48   46 1
    43   49   39 1
    44   50   49 1
    45   51   49 1
    46   52   49 1
    47   53   45 2
    48   54   40 1
    49   55   54 1
    50   56   54 1
    51    6   24 ar
    52   10   18 ar
    53   22   24 ar
    54   25   35 1
    55   25   39 1
    56   28   38 ar
    57   30   33 ar
    58   35   39 1
    59   46   54 1
@<TRIPOS>SUBSTRUCTURE
     1 RES1 1

@<TRIPOS>CRYSIN
   5.9500   22.4390   17.4960  90.0000  90.5360  90.0000  14 1

