# MOL2 file generated by ConQuest
# Please check atom types

@<TRIPOS>MOLECULE
PAVJAY
    32    33     1
SMALL
NO_CHARGES
****
Generated from CSD

@<TRIPOS>ATOM
      1 O1         2.9858    6.7538   19.2084 O.3       1 RES1    0.0000
      2 O2         1.5888    5.3751   20.3129 O.2       1 RES1    0.0000
      3 O3         2.5285    4.5839   25.0404 O.2       1 RES1    0.0000
      4 O4         4.3130    5.3032   25.9461 O.2       1 RES1    0.0000
      5 O5         7.0686    8.2622   21.2542 O.2       1 RES1    0.0000
      6 O6         7.4632    7.8657   23.3332 O.2       1 RES1    0.0000
      7 N1         3.5813    5.1836   24.9974 N.pl3     1 RES1    0.0000
      8 N2         6.7718    7.7786   22.3306 N.pl3     1 RES1    0.0000
      9 C1         0.1695    6.5010   14.2707 C.3       1 RES1    0.0000
     10 H1         0.3505    5.6596   13.8460 H         1 RES1    0.0000
     11 H2        -0.7740    6.5841   14.4273 H         1 RES1    0.0000
     12 H3         0.4637    7.2171   13.7020 H         1 RES1    0.0000
     13 C2         0.9128    6.5718   15.5919 C.ar      1 RES1    0.0000
     14 C3         0.3460    7.1805   16.6974 C.ar      1 RES1    0.0000
     15 H4        -0.4970    7.5646   16.6162 H         1 RES1    0.0000
     16 C4         0.9889    7.2367   17.9113 C.ar      1 RES1    0.0000
     17 H5         0.5929    7.6509   18.6429 H         1 RES1    0.0000
     18 C5         2.2387    6.6614   18.0111 C.ar      1 RES1    0.0000
     19 C6         2.8451    6.0633   16.9428 C.ar      1 RES1    0.0000
     20 H6         3.6919    5.6881   17.0273 H         1 RES1    0.0000
     21 C7         2.1735    6.0258   15.7318 C.ar      1 RES1    0.0000
     22 H7         2.5796    5.6246   14.9981 H         1 RES1    0.0000
     23 C8         2.5771    6.0527   20.2731 C.2       1 RES1    0.0000
     24 C9         3.5135    6.2260   21.4246 C.ar      1 RES1    0.0000
     25 C10        3.1566    5.6499   22.6338 C.ar      1 RES1    0.0000
     26 H8         2.3641    5.1681   22.7092 H         1 RES1    0.0000
     27 C11        3.9798    5.7963   23.7162 C.ar      1 RES1    0.0000
     28 C12        5.1759    6.4840   23.6537 C.ar      1 RES1    0.0000
     29 H9         5.7298    6.5710   24.3954 H         1 RES1    0.0000
     30 C13        5.5040    7.0341   22.4372 C.ar      1 RES1    0.0000
     31 C14        4.7051    6.9332   21.3168 C.ar      1 RES1    0.0000
     32 H10        4.9571    7.3262   20.5124 H         1 RES1    0.0000
@<TRIPOS>BOND
     1    1   18 1
     2    2   23 2
     3    3    7 2
     4    4    7 2
     5    5    8 2
     6    6    8 2
     7    7   27 1
     8    8   30 1
     9    9   10 1
    10   11    9 1
    11   12    9 1
    12   13    9 1
    13   14   13 ar
    14   15   14 1
    15   16   14 ar
    16   17   16 1
    17   18   16 ar
    18   19   18 ar
    19   20   19 1
    20   21   13 ar
    21   22   21 1
    22   23    1 1
    23   24   23 1
    24   25   24 ar
    25   26   25 1
    26   27   25 ar
    27   28   27 ar
    28   29   28 1
    29   30   28 ar
    30   31   24 ar
    31   32   31 1
    32   19   21 ar
    33   30   31 ar
@<TRIPOS>SUBSTRUCTURE
     1 RES1 1

@<TRIPOS>CRYSIN
   6.3963    8.1375   26.1838  90.0000  90.0000  90.0000  19 1

