# MOL2 file generated by ConQuest
# Please check atom types

@<TRIPOS>MOLECULE
PAVNOP
    48    48     1
SMALL
NO_CHARGES
****
Generated from CSD

@<TRIPOS>ATOM
      1 O1         6.4102    2.7253    9.8717 O.3       1 RES1    0.0000
      2 C1         6.5561    2.6044   12.2986 C.ar      1 RES1    0.0000
      3 C2         3.8796    3.2794   12.3624 C.ar      1 RES1    0.0000
      4 N1         3.8033    3.4169    9.9344 N.3       1 RES1    0.0000
      5 O2         6.4948    2.5482   14.7168 O.3       1 RES1    0.0000
      6 C3         5.8973    2.7348   13.5094 C.ar      1 RES1    0.0000
      7 N2         3.8597    3.2462   14.7949 N.pl3     1 RES1    0.0000
      8 C4         5.8599    2.8186   11.1143 C.ar      1 RES1    0.0000
      9 C5         4.5501    3.0707   13.5468 C.ar      1 RES1    0.0000
     10 C6         4.5113    3.1497   11.1495 C.ar      1 RES1    0.0000
     11 C7         3.0228    2.3799    9.2020 C.3       1 RES1    0.0000
     12 O3         3.5986    4.6515    9.6561 O.2       1 RES1    0.0000
     13 C8         3.2604    2.1341   15.5778 C.3       1 RES1    0.0000
     14 C9         3.2174    2.6431    7.7273 C.3       1 RES1    0.0000
     15 C10        3.7812    0.8007   15.0709 C.3       1 RES1    0.0000
     16 C11        3.5125    1.0188    9.5748 C.3       1 RES1    0.0000
     17 C12        1.5584    2.5617    9.5803 C.3       1 RES1    0.0000
     18 C13        1.7559    2.2297   15.4118 C.3       1 RES1    0.0000
     19 C14        7.8042    2.6107    9.7452 C.3       1 RES1    0.0000
     20 C15        3.6532    2.3269   17.0294 C.3       1 RES1    0.0000
     21 O4         3.4718    4.4365   15.0533 O.2       1 RES1    0.0000
     22 C16        7.8414    2.1159   14.7663 C.3       1 RES1    0.0000
     23 H1         4.6089    2.3143   17.1339 H         1 RES1    0.0000
     24 H2         0.9845    2.0598    9.0007 H         1 RES1    0.0000
     25 H3         2.7859    1.9602    7.2061 H         1 RES1    0.0000
     26 H4         7.4727    2.4083   12.2656 H         1 RES1    0.0000
     27 H5         2.9461    3.5228   12.3921 H         1 RES1    0.0000
     28 H6         2.8145    3.4865    7.4843 H         1 RES1    0.0000
     29 H7         4.1348    2.6716    7.4920 H         1 RES1    0.0000
     30 H8         3.4184    0.0711   15.5756 H         1 RES1    0.0000
     31 H9         3.5491    0.6703   14.1505 H         1 RES1    0.0000
     32 H10        4.7402    0.7572   15.1402 H         1 RES1    0.0000
     33 H11        3.0122    0.3399    9.1129 H         1 RES1    0.0000
     34 H12        4.4316    0.9034    9.3878 H         1 RES1    0.0000
     35 H13        3.3786    0.8639   10.5260 H         1 RES1    0.0000
     36 H14        1.2981    3.4865    9.5231 H         1 RES1    0.0000
     37 H15        1.3933    2.2716   10.4820 H         1 RES1    0.0000
     38 H16        1.4120    3.0359   15.7362 H         1 RES1    0.0000
     39 H17        1.4989    2.0906   14.5090 H         1 RES1    0.0000
     40 H18        1.3279    1.4994   15.9330 H         1 RES1    0.0000
     41 H19        8.1049    1.8037   10.1961 H         1 RES1    0.0000
     42 H20        8.0651    2.5522    8.8369 H         1 RES1    0.0000
     43 H21        8.2421    3.3489   10.1565 H         1 RES1    0.0000
     44 H22        3.3006    1.6093   17.5770 H         1 RES1    0.0000
     45 H23        3.3233    3.1474   17.3769 H         1 RES1    0.0000
     46 H24        7.8987    1.2172   14.3154 H         1 RES1    0.0000
     47 H25        8.4131    2.6802   14.2747 H         1 RES1    0.0000
     48 H26        8.1578    1.9847   15.6383 H         1 RES1    0.0000
@<TRIPOS>BOND
     1    1    8 1
     2    2    6 ar
     3    3    9 ar
     4    4   10 1
     5    5    6 1
     6    6    9 ar
     7    7    9 1
     8    8    2 ar
     9   10    3 ar
    10   11    4 1
    11   12    4 1
    12   13    7 1
    13   14   11 1
    14   15   13 1
    15   16   11 1
    16   17   11 1
    17   18   13 1
    18   19    1 1
    19   20   13 1
    20   21    7 2
    21   22    5 1
    22   23   20 1
    23   24   17 1
    24   25   14 1
    25   26    2 1
    26   27    3 1
    27   28   14 1
    28   29   14 1
    29   30   15 1
    30   31   15 1
    31   32   15 1
    32   33   16 1
    33   34   16 1
    34   35   16 1
    35   36   17 1
    36   37   17 1
    37   38   18 1
    38   39   18 1
    39   40   18 1
    40   41   19 1
    41   42   19 1
    42   43   19 1
    43   44   20 1
    44   45   20 1
    45   46   22 1
    46   47   22 1
    47   48   22 1
    48    8   10 ar
@<TRIPOS>SUBSTRUCTURE
     1 RES1 1

@<TRIPOS>CRYSIN
   9.8914    7.9040   11.4547  90.0000 106.2580  90.0000   4 1

