# MOL2 file generated by ConQuest
# Please check atom types

@<TRIPOS>MOLECULE
PAWCOI
    22    23     1
SMALL
NO_CHARGES
****
Generated from CSD

@<TRIPOS>ATOM
      1 N1        -0.2365    3.4176    1.6613 N.2       1 RES1    0.0000
      2 N2        -0.0738    3.3107    0.3137 N.2       1 RES1    0.0000
      3 N3         0.0500    4.4852   -0.2391 N.2       1 RES1    0.0000
      4 N4        -0.0275    5.3728    0.7651 N.pl3     1 RES1    0.0000
      5 H1         0.0392    6.1613    0.6650 H         1 RES1    0.0000
      6 C1        -0.1985    4.7182    1.9152 C.2       1 RES1    0.0000
      7 C2        -0.3886    5.3266    3.2782 C.3       1 RES1    0.0000
      8 H2        -1.0145    6.0900    3.2036 H         1 RES1    0.0000
      9 H3        -0.8041    4.6537    3.8747 H         1 RES1    0.0000
     10 N5         0.8554    5.7926    3.8848 N.pl3     1 RES1    0.0000
     11 C3         1.7245    4.9473    4.6929 C.3       1 RES1    0.0000
     12 H4         2.6428    4.9849    4.3248 H         1 RES1    0.0000
     13 H5         1.4117    4.0096    4.6277 H         1 RES1    0.0000
     14 C4         1.7627    5.3516    6.1452 C.2       1 RES1    0.0000
     15 N6         1.9152    6.5926    6.6215 N.pl3     1 RES1    0.0000
     16 H6         1.9484    7.3550    6.2070 H         1 RES1    0.0000
     17 N7         1.9401    6.5387    7.9670 N.2       1 RES1    0.0000
     18 N8         1.8146    5.2843    8.2901 N.2       1 RES1    0.0000
     19 N9         1.6992    4.5257    7.1649 N.2       1 RES1    0.0000
     20 N10        1.3638    6.9565    3.4407 N.pl3     1 RES1    0.0000
     21 O1         0.7618    7.5514    2.5486 O.2       1 RES1    0.0000
     22 O2         2.4057    7.3512    3.9761 O.2       1 RES1    0.0000
@<TRIPOS>BOND
     1    1    2 1
     2    2    3 2
     3    3    4 1
     4    4    5 1
     5    6    1 2
     6    7    6 1
     7    8    7 1
     8    9    7 1
     9   10    7 1
    10   11   10 1
    11   12   11 1
    12   13   11 1
    13   14   11 1
    14   15   14 1
    15   16   15 1
    16   17   15 1
    17   18   17 2
    18   19   14 2
    19   20   10 1
    20   21   20 2
    21   22   20 2
    22    4    6 1
    23   18   19 1
@<TRIPOS>SUBSTRUCTURE
     1 RES1 1

@<TRIPOS>CRYSIN
   6.3640    9.6270    6.8627  90.0000 101.8050  90.0000   4 1

