# MOL2 file generated by ConQuest
# Please check atom types

@<TRIPOS>MOLECULE
PAWDEY
    32    34     1
SMALL
NO_CHARGES
****
Generated from CSD

@<TRIPOS>ATOM
      1 O1         1.7069    9.2416    1.7813 O.3       1 RES1    0.0000
      2 O2         4.6160    8.5068    5.0776 O.2       1 RES1    0.0000
      3 O3         2.6950    8.6956    5.9206 O.2       1 RES1    0.0000
      4 N1         3.4233    8.5054    4.9873 N.pl3     1 RES1    0.0000
      5 C1         0.9753    8.0817    1.5899 C.ar      1 RES1    0.0000
      6 C2         0.1301    8.0638    0.4968 C.ar      1 RES1    0.0000
      7 H1         0.0834    8.7990   -0.0695 H         1 RES1    0.0000
      8 C3        -0.6387    6.9565    0.2524 C.ar      1 RES1    0.0000
      9 H2        -1.2167    6.9420   -0.4771 H         1 RES1    0.0000
     10 C4        -0.5545    5.8579    1.0919 C.ar      1 RES1    0.0000
     11 H3        -1.0775    5.1053    0.9321 H         1 RES1    0.0000
     12 C5         0.3058    5.8873    2.1596 C.ar      1 RES1    0.0000
     13 H4         0.3646    5.1431    2.7142 H         1 RES1    0.0000
     14 C6         1.0932    7.0004    2.4328 C.ar      1 RES1    0.0000
     15 C7         2.0157    7.0133    3.6244 C.3       1 RES1    0.0000
     16 H5         1.4932    6.9522    4.4396 H         1 RES1    0.0000
     17 H6         2.6052    6.2445    3.5862 H         1 RES1    0.0000
     18 C8         2.8243    8.2593    3.6452 C.3       1 RES1    0.0000
     19 H7         3.5804    8.0941    3.0442 H         1 RES1    0.0000
     20 C9         2.1429    9.4375    3.1091 C.3       1 RES1    0.0000
     21 H8         1.3340    9.5568    3.6487 H         1 RES1    0.0000
     22 C10        2.9032   10.7329    3.1925 C.ar      1 RES1    0.0000
     23 C11        2.5067   11.6774    4.0887 C.ar      1 RES1    0.0000
     24 H9         1.7494   11.5226    4.6063 H         1 RES1    0.0000
     25 C12        3.1987   12.8568    4.2485 C.ar      1 RES1    0.0000
     26 H10        2.9129   13.4886    4.8692 H         1 RES1    0.0000
     27 C13        4.2863   13.0847    3.5039 C.ar      1 RES1    0.0000
     28 H11        4.7661   13.8733    3.6186 H         1 RES1    0.0000
     29 C14        4.6950   12.1772    2.5834 C.ar      1 RES1    0.0000
     30 H12        5.4434   12.3488    2.0588 H         1 RES1    0.0000
     31 C15        3.9962   10.9982    2.4305 C.ar      1 RES1    0.0000
     32 H13        4.2763   10.3771    1.7971 H         1 RES1    0.0000
@<TRIPOS>BOND
     1    1    5 1
     2    2    4 2
     3    3    4 2
     4    4   18 1
     5    5    6 ar
     6    6    7 1
     7    8    6 ar
     8    9    8 1
     9   10    8 ar
    10   11   10 1
    11   12   10 ar
    12   13   12 1
    13   14    5 ar
    14   15   14 1
    15   16   15 1
    16   17   15 1
    17   18   15 1
    18   19   18 1
    19   20    1 1
    20   21   20 1
    21   22   20 1
    22   23   22 ar
    23   24   23 1
    24   25   23 ar
    25   26   25 1
    26   27   25 ar
    27   28   27 1
    28   29   27 ar
    29   30   29 1
    30   31   22 ar
    31   32   31 1
    32   12   14 ar
    33   18   20 1
    34   29   31 ar
@<TRIPOS>SUBSTRUCTURE
     1 RES1 1

@<TRIPOS>CRYSIN
   5.3769   10.1050   12.3200  70.8500  82.8900  84.8700   2 1

