# MOL2 file generated by ConQuest
# Please check atom types

@<TRIPOS>MOLECULE
PAWGUR
    30    31     1
SMALL
NO_CHARGES
****
Generated from CSD

@<TRIPOS>ATOM
      1 O1         1.8669    2.2848   19.0919 O.2       1 RES1    0.0000
      2 C1         2.0229    3.9389   14.8911 C.ar      1 RES1    0.0000
      3 N1         3.0098    5.5565   16.0669 N.pl3     1 RES1    0.0000
      4 H1         3.5550    6.1730   16.3162 H         1 RES1    0.0000
      5 O2         0.2622    3.6574   19.3067 O.2       1 RES1    0.0000
      6 C2         1.8933    3.0764   13.8073 C.ar      1 RES1    0.0000
      7 H2         1.1625    2.5044   13.7471 H         1 RES1    0.0000
      8 N2         0.8320    2.7798   18.7024 N.pl3     1 RES1    0.0000
      9 C3         2.8499    3.0794   12.8319 C.ar      1 RES1    0.0000
     10 H3         2.7655    2.5024   12.1080 H         1 RES1    0.0000
     11 C4         3.9547    3.9358   12.9047 C.ar      1 RES1    0.0000
     12 H4         4.5994    3.9055   12.2362 H         1 RES1    0.0000
     13 C5         4.1062    4.8216   13.9450 C.ar      1 RES1    0.0000
     14 H5         4.8318    5.4006   13.9923 H         1 RES1    0.0000
     15 C6         3.1177    4.8064   14.9234 C.ar      1 RES1    0.0000
     16 C7         1.8890    5.1587   16.7438 C.2       1 RES1    0.0000
     17 H6         1.6062    5.5170   17.5536 H         1 RES1    0.0000
     18 C8         1.2503    4.1757   16.0765 C.2       1 RES1    0.0000
     19 C9        -0.0010    3.4762   16.5073 C.3       1 RES1    0.0000
     20 H7        -0.4825    3.1958   15.7126 H         1 RES1    0.0000
     21 H8        -0.5615    4.1150   16.9764 H         1 RES1    0.0000
     22 C10        0.1924    2.2645   17.4018 C.3       1 RES1    0.0000
     23 C11       -1.1610    1.7007   17.8309 C.3       1 RES1    0.0000
     24 H9        -1.7012    2.4062   18.1949 H         1 RES1    0.0000
     25 H10       -1.0288    1.0224   18.4967 H         1 RES1    0.0000
     26 H11       -1.6048    1.3190   17.0688 H         1 RES1    0.0000
     27 C12        1.0925    1.2046   16.7995 C.3       1 RES1    0.0000
     28 H12        1.9251    1.6025   16.5369 H         1 RES1    0.0000
     29 H13        0.6648    0.8210   16.0295 H         1 RES1    0.0000
     30 H14        1.2569    0.5173   17.4499 H         1 RES1    0.0000
@<TRIPOS>BOND
     1    1    8 2
     2    2    6 ar
     3    3    4 1
     4    5    8 2
     5    6    7 1
     6    8   22 1
     7    9    6 ar
     8   10    9 1
     9   11    9 ar
    10   12   11 1
    11   13   11 ar
    12   14   13 1
    13   15    2 ar
    14   16    3 1
    15   17   16 1
    16   18    2 1
    17   19   18 1
    18   20   19 1
    19   21   19 1
    20   22   19 1
    21   23   22 1
    22   24   23 1
    23   25   23 1
    24   26   23 1
    25   27   22 1
    26   28   27 1
    27   29   27 1
    28   30   27 1
    29    3   15 1
    30   13   15 ar
    31   16   18 2
@<TRIPOS>SUBSTRUCTURE
     1 RES1 1

@<TRIPOS>CRYSIN
   6.1170   10.1230   18.8680  90.0000  91.3600  90.0000 231 1

