# MOL2 file generated by ConQuest
# Please check atom types

@<TRIPOS>MOLECULE
PAWRUA
    20    21     1
SMALL
USER_CHARGES
****
Generated from CSD

@<TRIPOS>ATOM
      1 C1         0.0266    5.6226    0.1467 C.3       1 RES1    0.0000
      2 H1        -0.7738    5.5575   -0.3792 H         1 RES1    0.0000
      3 O1        -0.0776    6.6584    1.0819 O.3       1 RES1    0.0000
      4 C2        -0.3529    6.0987    2.3563 C.3       1 RES1    0.0000
      5 H2         0.3469    6.3109    2.9782 H         1 RES1    0.0000
      6 H3        -1.1908    6.4237    2.6941 H         1 RES1    0.0000
      7 C3        -0.4129    4.6160    2.1212 C.3       1 RES1    0.0000
      8 H4        -1.3237    4.3185    2.0606 H         1 RES1    0.0000
      9 H5         0.0343    4.1368    2.8225 H         1 RES1    0.0000
     10 O2         0.2652    4.4421    0.8684 O.3       1 RES1    0.0000
     11 C4         1.1820    5.8762   -0.7724 C.2       1 RES1    0.0000
     12 N1         0.9908    5.9180   -2.0564 N.2       1 RES1    0.0000
     13 O3         2.2235    6.1827   -2.6153 O.3       1 RES1    0.0000
     14 N2         3.1769    6.2985   -1.5440 N.pl3     1 RES1    1.0000
     15 O4         4.3515    6.5608   -1.8482 O.2       1 RES1   -1.0000
     16 C5         2.5257    6.1083   -0.4218 C.2       1 RES1    0.0000
     17 C6         3.2104    6.2019    0.8844 C.3       1 RES1    0.0000
     18 H6         2.5814    6.0338    1.5899 H         1 RES1    0.0000
     19 H7         3.5777    7.0830    0.9863 H         1 RES1    0.0000
     20 H8         3.9175    5.5538    0.9250 H         1 RES1    0.0000
@<TRIPOS>BOND
     1    1    2 1
     2    3    1 1
     3    4    3 1
     4    5    4 1
     5    6    4 1
     6    7    4 1
     7    8    7 1
     8    9    7 1
     9   10    1 1
    10   11    1 1
    11   12   11 2
    12   13   12 1
    13   14   13 1
    14   15   14 1
    15   16   11 1
    16   17   16 1
    17   18   17 1
    18   19   17 1
    19   20   17 1
    20    7   10 1
    21   14   16 2
@<TRIPOS>SUBSTRUCTURE
     1 RES1 1

@<TRIPOS>CRYSIN
   7.2103    8.2964    7.0377 104.3000  81.6500 108.2000   2 1

