# MOL2 file generated by ConQuest
# Please check atom types

@<TRIPOS>MOLECULE
PAWVUE
    55    51     2
SMALL
NO_CHARGES
****
Generated from CSD

@<TRIPOS>ATOM
      1 C1        -1.5634    0.6106    5.2625 C.3       1 RES1    0.0000
      2 H1        -1.7207    0.7503    6.2192 H         1 RES1    0.0000
      3 O1        -1.0712   -0.7107    5.0517 O.3       1 RES1    0.0000
      4 C2         0.3078   -0.7173    5.3596 C.3       1 RES1    0.0000
      5 H2         0.8122   -1.2806    4.7370 H         1 RES1    0.0000
      6 O2         0.5151   -1.1090    6.6912 O.3       1 RES1    0.0000
      7 C3         1.3365   -0.1540    7.3226 C.3       1 RES1    0.0000
      8 C4         0.9457   -0.0132    8.7717 C.3       1 RES1    0.0000
      9 H3         1.5103    0.6392    9.1933 H         1 RES1    0.0000
     10 H4         1.0482   -0.8582    9.2137 H         1 RES1    0.0000
     11 H5         0.0306    0.2706    8.8300 H         1 RES1    0.0000
     12 C5         2.7965   -0.5193    7.1497 C.3       1 RES1    0.0000
     13 H6         3.3445    0.1375    7.5839 H         1 RES1    0.0000
     14 H7         3.0107   -0.5490    6.2143 H         1 RES1    0.0000
     15 H8         2.9582   -1.3808    7.5421 H         1 RES1    0.0000
     16 O3         1.0395    1.0694    6.6602 O.3       1 RES1    0.0000
     17 C6         0.7779    0.7371    5.3071 C.3       1 RES1    0.0000
     18 H9         1.5659    0.8538    4.7351 H         1 RES1    0.0000
     19 C7        -0.4216    1.5128    4.7992 C.3       1 RES1    0.0000
     20 H10       -0.4761    2.4083    5.1935 H         1 RES1    0.0000
     21 O4        -0.4337    1.5502    3.3743 O.3       1 RES1    0.0000
     22 C8         0.3422    2.6097    2.8362 C.3       1 RES1    0.0000
     23 H11        1.2809    2.4633    3.0324 H         1 RES1    0.0000
     24 H12        0.0753    3.4513    3.2383 H         1 RES1    0.0000
     25 C9         0.1365    2.6669    1.3637 C.ar      1 RES1    0.0000
     26 C10       -0.2366    2.8242   -1.3928 C.ar      1 RES1    0.0000
     27 H13       -0.3657    2.9507   -2.3049 H         1 RES1    0.0000
     28 C11        1.1903    2.5635    0.4186 C.ar      1 RES1    0.0000
     29 H14        2.0610    2.4501    0.7246 H         1 RES1    0.0000
     30 C12        0.9617    2.6262   -0.9402 C.ar      1 RES1    0.0000
     31 H15        1.6704    2.5250   -1.5346 H         1 RES1    0.0000
     32 C13       -1.3402    2.8506   -0.5294 C.ar      1 RES1    0.0000
     33 H16       -2.2043    2.9144   -0.8683 H         1 RES1    0.0000
     34 C14       -1.1260    2.7802    0.8120 C.ar      1 RES1    0.0000
     35 H17       -1.8593    2.8088    1.3821 H         1 RES1    0.0000
     36 C15       -2.8544    0.7965    4.5087 C.2       1 RES1    0.0000
     37 N1        -3.7565    1.5403    4.9827 N.2       1 RES1    0.0000
     38 O5        -4.8215    1.6536    4.0814 O.3       1 RES1    0.0000
     39 C16       -4.5044    0.8802    2.8818 C.3       1 RES1    0.0000
     40 H18       -4.4416    1.4457    2.0834 H         1 RES1    0.0000
     41 C17       -5.4270   -0.2618    2.6876 C.2       1 RES1    0.0000
     42 H19       -6.3109   -0.2057    2.4039 H         1 RES1    0.0000
     43 C18       -4.7966   -1.3488    2.9790 C.2       1 RES1    0.0000
     44 H20       -5.2129   -2.1806    2.9508 H         1 RES1    0.0000
     45 O6        -3.4991   -1.2124    3.3257 O.3       1 RES1    0.0000
     46 C19       -3.1852    0.1771    3.1946 C.3       1 RES1    0.0000
     47 H21       -2.4985    0.3444    2.5156 H         1 RES1    0.0000
     48 C20       -0.0525    1.5711    0.6420 Du        2 SUP2    0.0000
     49 H22       -0.0935    0.7448    1.0665 Du        2 SUP2    0.0000
     50 C21       -0.1942    1.6393   -0.7625 Du        2 SUP2    0.0000
     51 H23       -0.2577    0.8538   -1.2569 Du        2 SUP2    0.0000
     52 C22        0.0819    3.9948   -0.6411 Du        2 SUP2    0.0000
     53 H24        0.2228    4.8068   -1.0733 Du        2 SUP2    0.0000
     54 C23        0.1817    3.9112    0.7605 Du        2 SUP2    0.0000
     55 H25        0.2758    4.6803    1.2734 Du        2 SUP2    0.0000
@<TRIPOS>BOND
     1    1    2 1
     2    3    1 1
     3    4    3 1
     4    5    4 1
     5    6    4 1
     6    7    6 1
     7    8    7 1
     8    9    8 1
     9   10    8 1
    10   11    8 1
    11   12    7 1
    12   13   12 1
    13   14   12 1
    14   15   12 1
    15   16    7 1
    16   17    4 1
    17   18   17 1
    18   19    1 1
    19   20   19 1
    20   21   19 1
    21   22   21 1
    22   23   22 1
    23   24   22 1
    24   25   22 1
    25   26   27 1
    26   28   25 ar
    27   29   28 1
    28   30   26 ar
    29   31   30 1
    30   32   26 ar
    31   33   32 1
    32   34   25 ar
    33   35   34 1
    34   36    1 1
    35   37   36 2
    36   38   37 1
    37   39   38 1
    38   40   39 1
    39   41   39 1
    40   42   41 1
    41   43   41 2
    42   44   43 1
    43   45   43 1
    44   46   36 1
    45   47   46 1
    46   16   17 1
    47   17   19 1
    48   28   30 ar
    49   32   34 ar
    50   39   46 1
    51   45   46 1
@<TRIPOS>SUBSTRUCTURE
     1 RES1 1
     2 SUP2 48

@<TRIPOS>CRYSIN
   8.7270   11.0020   10.0800  90.0000 105.5100  90.0000   4 1

