# MOL2 file generated by ConQuest
# Please check atom types

@<TRIPOS>MOLECULE
PAWZIX
    35    36     1
SMALL
NO_CHARGES
****
Generated from CSD

@<TRIPOS>ATOM
      1 O1         3.6795    3.0242    1.9570 O.3       1 RES1    0.0000
      2 H1         3.2695    3.6677    1.6561 H         1 RES1    0.0000
      3 N1         6.2538   -3.6625    0.9888 N.ar      1 RES1    0.0000
      4 N2         6.4535   -1.8582   -0.5432 N.ar      1 RES1    0.0000
      5 N3         2.9313    2.4437    3.0517 N.3       1 RES1    0.0000
      6 C1         5.2507   -3.0165    1.5910 C.ar      1 RES1    0.0000
      7 H2         4.8384   -3.4218    2.3193 H         1 RES1    0.0000
      8 C2         6.8031   -3.0390   -0.0436 C.ar      1 RES1    0.0000
      9 H3         7.5093   -3.4745   -0.4636 H         1 RES1    0.0000
     10 C3         5.4514   -1.2433    0.0822 C.ar      1 RES1    0.0000
     11 H4         5.1767   -0.4138   -0.2363 H         1 RES1    0.0000
     12 C4         4.7952   -1.7747    1.1856 C.ar      1 RES1    0.0000
     13 C5         3.7173   -1.0407    1.8867 C.ar      1 RES1    0.0000
     14 C6         3.8454    0.3297    2.1149 C.ar      1 RES1    0.0000
     15 H5         4.5981    0.7802    1.8055 H         1 RES1    0.0000
     16 C7         2.8585    1.0287    2.8003 C.ar      1 RES1    0.0000
     17 C8         1.7234    0.3486    3.2347 C.ar      1 RES1    0.0000
     18 H6         1.0482    0.8106    3.6767 H         1 RES1    0.0000
     19 C9         1.5966   -1.0084    3.0121 C.ar      1 RES1    0.0000
     20 H7         0.8403   -1.4559    3.3167 H         1 RES1    0.0000
     21 C10        2.5794   -1.7067    2.3428 C.ar      1 RES1    0.0000
     22 H8         2.4836   -2.6199    2.1955 H         1 RES1    0.0000
     23 C11        3.6309    2.8314    4.3193 C.3       1 RES1    0.0000
     24 C12        2.8768    2.2115    5.4918 C.3       1 RES1    0.0000
     25 H9         2.9175    1.2550    5.4287 H         1 RES1    0.0000
     26 H10        1.9598    2.4951    5.4688 H         1 RES1    0.0000
     27 H11        3.2788    2.4956    6.3158 H         1 RES1    0.0000
     28 C13        3.5312    4.3518    4.4243 C.3       1 RES1    0.0000
     29 H12        4.0008    4.7546    3.6901 H         1 RES1    0.0000
     30 H13        3.9228    4.6419    5.2515 H         1 RES1    0.0000
     31 H14        2.6085    4.6150    4.3978 H         1 RES1    0.0000
     32 C14        5.1005    2.3934    4.3394 C.3       1 RES1    0.0000
     33 H15        5.1507    1.4373    4.2652 H         1 RES1    0.0000
     34 H16        5.5062    2.6722    5.1634 H         1 RES1    0.0000
     35 H17        5.5646    2.7965    3.6020 H         1 RES1    0.0000
@<TRIPOS>BOND
     1    1    2 1
     2    3    6 ar
     3    4    8 ar
     4    5    1 1
     5    6    7 1
     6    8    3 ar
     7    9    8 1
     8   10    4 ar
     9   11   10 1
    10   12    6 ar
    11   13   12 1
    12   14   13 ar
    13   15   14 1
    14   16    5 1
    15   17   16 ar
    16   18   17 1
    17   19   17 ar
    18   20   19 1
    19   21   13 ar
    20   22   21 1
    21   23    5 1
    22   24   23 1
    23   25   24 1
    24   26   24 1
    25   27   24 1
    26   28   23 1
    27   29   28 1
    28   30   28 1
    29   31   28 1
    30   32   23 1
    31   33   32 1
    32   34   32 1
    33   35   32 1
    34   10   12 ar
    35   14   16 ar
    36   19   21 ar
@<TRIPOS>SUBSTRUCTURE
     1 RES1 1

@<TRIPOS>CRYSIN
   6.5952    9.3397   11.2448  84.8122  83.1625  73.6470   2 1

