# MOL2 file generated by ConQuest
# Please check atom types

@<TRIPOS>MOLECULE
PAXTAL
    32    33     1
SMALL
NO_CHARGES
****
Generated from CSD

@<TRIPOS>ATOM
      1 O1         0.0126   12.6596    1.3845 O.2       1 RES1    0.0000
      2 O2         0.7214   10.6541    1.6383 O.2       1 RES1    0.0000
      3 N1         4.5660   10.2388   -1.5364 N.3       1 RES1    0.0000
      4 N2         0.7779   11.7498    1.1121 N.pl3     1 RES1    0.0000
      5 C1         3.6369   11.1964   -1.2094 C.ar      1 RES1    0.0000
      6 C2         2.6581   10.9660   -0.2262 C.ar      1 RES1    0.0000
      7 C3         1.7972   11.9930    0.0844 C.ar      1 RES1    0.0000
      8 C4         1.8227   13.2295   -0.5206 C.ar      1 RES1    0.0000
      9 C5         2.7697   13.4361   -1.4948 C.ar      1 RES1    0.0000
     10 C6         3.6600   12.4421   -1.8262 C.ar      1 RES1    0.0000
     11 C7         4.6319    8.9443   -0.9472 C.3       1 RES1    0.0000
     12 C8         3.5568    7.9751   -1.3918 C.ar      1 RES1    0.0000
     13 C9         3.1356    6.9497   -0.5763 C.ar      1 RES1    0.0000
     14 C10        2.1768    6.0401   -0.9922 C.ar      1 RES1    0.0000
     15 C11        1.6146    6.1079   -2.2399 C.ar      1 RES1    0.0000
     16 C12        2.0246    7.1383   -3.0458 C.ar      1 RES1    0.0000
     17 C13        2.9741    8.0466   -2.6344 C.ar      1 RES1    0.0000
     18 C14        0.5534    5.1360   -2.6986 C.3       1 RES1    0.0000
     19 H1         5.0318   10.4578   -2.1161 H         1 RES1    0.0000
     20 H2         2.5943   10.1431    0.2015 H         1 RES1    0.0000
     21 H3         1.2232   13.8981   -0.2803 H         1 RES1    0.0000
     22 H4         2.8091   14.2556   -1.9332 H         1 RES1    0.0000
     23 H5         4.2968   12.6072   -2.4830 H         1 RES1    0.0000
     24 H6         4.5772    9.0427    0.0163 H         1 RES1    0.0000
     25 H7         5.4976    8.5568   -1.1520 H         1 RES1    0.0000
     26 H8         3.5040    6.8655    0.2735 H         1 RES1    0.0000
     27 H9         1.9082    5.3670   -0.4097 H         1 RES1    0.0000
     28 H10        1.6518    7.2252   -3.8933 H         1 RES1    0.0000
     29 H11        3.2283    8.7280   -3.2135 H         1 RES1    0.0000
     30 H12        0.2826    5.3563   -3.5928 H         1 RES1    0.0000
     31 H13       -0.2052    5.1893   -2.1121 H         1 RES1    0.0000
     32 H14        0.9078    4.2431   -2.6817 H         1 RES1    0.0000
@<TRIPOS>BOND
     1    1    4 2
     2    2    4 2
     3    3    5 1
     4    4    7 1
     5    5    6 ar
     6    6    7 ar
     7    7    8 ar
     8    8    9 ar
     9    9   10 ar
    10   10    5 ar
    11   11    3 1
    12   12   11 1
    13   13   12 ar
    14   14   13 ar
    15   15   14 ar
    16   16   15 ar
    17   17   12 ar
    18   18   15 1
    19   19    3 1
    20   20    6 1
    21   21    8 1
    22   22    9 1
    23   23   10 1
    24   24   11 1
    25   25   11 1
    26   26   13 1
    27   27   14 1
    28   28   16 1
    29   29   17 1
    30   30   18 1
    31   31   18 1
    32   32   18 1
    33   16   17 ar
@<TRIPOS>SUBSTRUCTURE
     1 RES1 1

@<TRIPOS>CRYSIN
   5.1851   21.4080    5.6833  90.0000  98.0100  90.0000   4 1

