# MOL2 file generated by ConQuest
# Please check atom types

@<TRIPOS>MOLECULE
PAYBIC
    50    53     1
SMALL
NO_CHARGES
****
Generated from CSD

@<TRIPOS>ATOM
      1 O1        -2.4055    1.0933   28.7268 O.2       1 RES1    0.0000
      2 O2        -1.2401   -0.1913   27.5431 O.2       1 RES1    0.0000
      3 N1         1.5454   11.0235   22.0551 N.pl3     1 RES1    0.0000
      4 N2        -1.6262    0.9019   27.8774 N.pl3     1 RES1    0.0000
      5 C1         0.6497   11.8464   21.2377 C.ar      1 RES1    0.0000
      6 C2         0.5057   13.1849   21.5101 C.ar      1 RES1    0.0000
      7 H1         0.9730   13.5703   22.2147 H         1 RES1    0.0000
      8 C3        -0.3536   13.9701   20.7161 C.ar      1 RES1    0.0000
      9 H2        -0.4396   14.8756   20.9121 H         1 RES1    0.0000
     10 C4        -1.0870   13.4392   19.6358 C.ar      1 RES1    0.0000
     11 H3        -1.6437   13.9836   19.1277 H         1 RES1    0.0000
     12 C5        -0.9631   12.1078   19.3527 C.ar      1 RES1    0.0000
     13 H4        -1.4409   11.7260   18.6513 H         1 RES1    0.0000
     14 C6        -0.0903   11.3155   20.1483 C.ar      1 RES1    0.0000
     15 H5        -0.0002   10.4118   19.9459 H         1 RES1    0.0000
     16 C7         2.8648   11.4844   22.4254 C.ar      1 RES1    0.0000
     17 C8         3.5393   12.2354   21.5419 C.ar      1 RES1    0.0000
     18 H6         3.1733   12.4528   20.7156 H         1 RES1    0.0000
     19 C9         4.8271   12.6837   21.9133 C.ar      1 RES1    0.0000
     20 H7         5.2948   13.2065   21.3023 H         1 RES1    0.0000
     21 C10        5.4510   12.3980   23.1349 C.ar      1 RES1    0.0000
     22 H8         6.2984   12.7286   23.3263 H         1 RES1    0.0000
     23 C11        4.8006   11.6461   24.0083 C.ar      1 RES1    0.0000
     24 H9         5.1854   11.4197   24.8254 H         1 RES1    0.0000
     25 C12        3.5159   11.1996   23.6694 C.ar      1 RES1    0.0000
     26 H10        3.0561   10.6849   24.2925 H         1 RES1    0.0000
     27 C13        1.0695    9.8296   22.5966 C.ar      1 RES1    0.0000
     28 C14       -0.2321    9.7506   22.9866 C.ar      1 RES1    0.0000
     29 H11       -0.8166   10.4549   22.8203 H         1 RES1    0.0000
     30 C15       -0.6659    8.6348   23.6207 C.ar      1 RES1    0.0000
     31 H12       -1.5549    8.5944   23.8914 H         1 RES1    0.0000
     32 C16        0.1589    7.5479   23.8839 C.ar      1 RES1    0.0000
     33 C17        1.4348    7.5883   23.4213 C.ar      1 RES1    0.0000
     34 H13        1.9969    6.8579   23.5389 H         1 RES1    0.0000
     35 C18        1.8916    8.7157   22.7788 C.ar      1 RES1    0.0000
     36 H14        2.7650    8.7364   22.4596 H         1 RES1    0.0000
     37 C19       -0.3204    6.4276   24.6854 C.2       1 RES1    0.0000
     38 H15       -1.1929    6.5031   24.9976 H         1 RES1    0.0000
     39 C20        0.2920    5.3577   25.0175 C.2       1 RES1    0.0000
     40 H16        1.1635    5.2760   24.7069 H         1 RES1    0.0000
     41 C21       -0.2050    4.2447   25.8263 C.ar      1 RES1    0.0000
     42 C22       -1.1222    4.4162   26.7836 C.ar      1 RES1    0.0000
     43 H17       -1.4533    5.2652   26.9704 H         1 RES1    0.0000
     44 C23       -1.5710    3.3257   27.4893 C.ar      1 RES1    0.0000
     45 H18       -2.1998    3.4406   28.1654 H         1 RES1    0.0000
     46 C24       -1.1061    2.0841   27.2086 C.ar      1 RES1    0.0000
     47 C25       -0.1725    1.8973   26.3078 C.ar      1 RES1    0.0000
     48 H19        0.1705    1.0502   26.1361 H         1 RES1    0.0000
     49 C26        0.2706    2.9870   25.6379 C.ar      1 RES1    0.0000
     50 H20        0.9441    2.8657   25.0084 H         1 RES1    0.0000
@<TRIPOS>BOND
     1    1    4 2
     2    2    4 2
     3    3    5 1
     4    4   46 1
     5    5    6 ar
     6    6    7 1
     7    8    6 ar
     8    9    8 1
     9   10    8 ar
    10   11   10 1
    11   12   10 ar
    12   13   12 1
    13   14    5 ar
    14   15   14 1
    15   16    3 1
    16   17   16 ar
    17   18   17 1
    18   19   17 ar
    19   20   19 1
    20   21   19 ar
    21   22   21 1
    22   23   21 ar
    23   24   23 1
    24   25   16 ar
    25   26   25 1
    26   27    3 1
    27   28   27 ar
    28   29   28 1
    29   30   28 ar
    30   31   30 1
    31   32   30 ar
    32   33   32 ar
    33   34   33 1
    34   35   27 ar
    35   36   35 1
    36   37   32 1
    37   38   37 1
    38   39   37 2
    39   40   39 1
    40   41   39 1
    41   42   41 ar
    42   43   42 1
    43   44   42 ar
    44   45   44 1
    45   46   44 ar
    46   47   46 ar
    47   48   47 1
    48   49   41 ar
    49   50   49 1
    50   12   14 ar
    51   23   25 ar
    52   33   35 ar
    53   47   49 ar
@<TRIPOS>SUBSTRUCTURE
     1 RES1 1

@<TRIPOS>CRYSIN
   8.4884    8.9834   27.0880  90.0000  96.5000  90.0000  14 1

