# MOL2 file generated by ConQuest
# Please check atom types

@<TRIPOS>MOLECULE
PAYPUB
    43    42     2
SMALL
NO_CHARGES
****
Generated from CSD

@<TRIPOS>ATOM
      1 N1         1.5594   18.9100    0.8099 N.ar      1 RES1    0.0000
      2 C1         2.5072   18.2030    1.4227 C.ar      1 RES1    0.0000
      3 C2         2.5682   16.7903    1.3868 C.ar      1 RES1    0.0000
      4 H1         3.2571   16.3852    1.8179 H         1 RES1    0.0000
      5 C3         1.6327   16.0669    0.7489 C.ar      1 RES1    0.0000
      6 C4         0.5713   16.7827    0.1034 C.ar      1 RES1    0.0000
      7 C5        -0.4842   16.1527   -0.5780 C.ar      1 RES1    0.0000
      8 H2        -0.5218   15.2307   -0.6640 H         1 RES1    0.0000
      9 C6        -1.4541   16.9067   -1.1724 C.ar      1 RES1    0.0000
     10 C7        -1.4464   18.2792   -1.1255 C.ar      1 RES1    0.0000
     11 H3        -2.1227   18.7421   -1.5675 H         1 RES1    0.0000
     12 C8        -0.4259   18.9244   -0.4790 C.ar      1 RES1    0.0000
     13 H4        -0.4027   19.8966   -0.4572 H         1 RES1    0.0000
     14 C9         0.6020   18.1921    0.1535 C.ar      1 RES1    0.0000
     15 N2         3.4445   18.8817    2.1248 N.3       1 RES1    0.0000
     16 C10        3.4612   20.3207    2.2620 C.3       1 RES1    0.0000
     17 H5         3.3006   20.7701    1.3498 H         1 RES1    0.0000
     18 C11        2.4448   20.7795    3.3037 C.3       1 RES1    0.0000
     19 H6         1.5446   20.4412    3.0697 H         1 RES1    0.0000
     20 H7         2.7023   20.2974    4.2018 H         1 RES1    0.0000
     21 C12        2.4397   22.2648    3.4855 C.3       1 RES1    0.0000
     22 H8         1.7376   22.6282    3.9623 H         1 RES1    0.0000
     23 H9         2.1909   22.6914    2.5254 H         1 RES1    0.0000
     24 C13        3.8176   22.7944    3.8208 C.3       1 RES1    0.0000
     25 H10        3.8955   23.7674    3.8099 H         1 RES1    0.0000
     26 H11        4.1636   22.3886    4.6698 H         1 RES1    0.0000
     27 C14        4.8458   22.3254    2.8084 C.3       1 RES1    0.0000
     28 H12        5.6810   22.5955    3.0914 H         1 RES1    0.0000
     29 H13        4.5907   22.6935    2.0138 H         1 RES1    0.0000
     30 C15        4.8513   20.8054    2.6713 C.3       1 RES1    0.0000
     31 H14        5.0594   20.4499    3.6793 H         1 RES1    0.0000
     32 H15        5.4577   20.4913    1.9920 H         1 RES1    0.0000
     33 N3        -2.5468   16.2327   -1.8755 N.pl3     1 RES1    0.0000
     34 O1        -3.3706   16.9446   -2.4427 O.2       1 RES1    0.0000
     35 O2        -2.5960   15.0218   -1.8777 O.2       1 RES1    0.0000
     36 C16        1.6761   14.5615    0.7435 C.3       1 RES1    0.0000
     37 H16        0.9305   14.2221    0.2427 H         1 RES1    0.0000
     38 H17        1.6313   14.2374    1.6459 H         1 RES1    0.0000
     39 H18        2.4951   14.2657    0.3374 H         1 RES1    0.0000
     40 H19        2.4406   14.2613    1.2409 Du        2 SUP2    0.0000
     41 H20        1.7396   14.2461   -0.1611 Du        2 SUP2    0.0000
     42 H21        0.8767   14.2178    1.1462 Du        2 SUP2    0.0000
     43 H22        4.1294   18.4284    2.3948 H         1 RES1    0.0000
@<TRIPOS>BOND
     1    1    2 ar
     2    2    3 ar
     3    3    4 1
     4    5    3 ar
     5    6    5 ar
     6    7    6 ar
     7    8    7 1
     8    9    7 ar
     9   10    9 ar
    10   11   10 1
    11   12   10 ar
    12   13   12 1
    13   14    1 ar
    14   15    2 1
    15   16   15 1
    16   17   16 1
    17   18   16 1
    18   19   18 1
    19   20   18 1
    20   21   18 1
    21   22   21 1
    22   23   21 1
    23   24   21 1
    24   25   24 1
    25   26   24 1
    26   27   24 1
    27   28   27 1
    28   29   27 1
    29   30   16 1
    30   31   30 1
    31   32   30 1
    32   33    9 1
    33   34   33 2
    34   35   33 2
    35   36    5 1
    36   37   36 1
    37   38   36 1
    38   39   36 1
    39   43   15 1
    40    6   14 ar
    41   12   14 ar
    42   27   30 1
@<TRIPOS>SUBSTRUCTURE
     1 RES1 1
     2 SUP2 40

@<TRIPOS>CRYSIN
   6.3495   21.7830   11.0252  90.0000  99.1350  90.0000 231 1

