# MOL2 file generated by ConQuest
# Please check atom types

@<TRIPOS>MOLECULE
PAZYUN
    68    74     1
SMALL
NO_CHARGES
****
Generated from CSD

@<TRIPOS>ATOM
      1 C1         5.0679   13.3249    3.5611 C.ar      1 RES1    0.0000
      2 H1         5.8602   12.8501    3.6678 H         1 RES1    0.0000
      3 C2         4.8351   14.4396    4.3350 C.ar      1 RES1    0.0000
      4 H2         5.4645   14.7031    4.9674 H         1 RES1    0.0000
      5 C3         3.6874   15.1580    4.1784 C.ar      1 RES1    0.0000
      6 H3         3.5407   15.9175    4.6936 H         1 RES1    0.0000
      7 C4         2.7522   14.7610    3.2652 C.ar      1 RES1    0.0000
      8 H4         1.9702   15.2528    3.1550 H         1 RES1    0.0000
      9 C5         2.9715   13.6240    2.5017 C.ar      1 RES1    0.0000
     10 H5         2.3220   13.3431    1.8960 H         1 RES1    0.0000
     11 C6         4.1412   12.9021    2.6293 C.ar      1 RES1    0.0000
     12 C7         4.3871   11.7292    1.7138 C.3       1 RES1    0.0000
     13 H6         3.5518   11.2517    1.5920 H         1 RES1    0.0000
     14 H7         4.6612   12.0656    0.8471 H         1 RES1    0.0000
     15 C8         5.2494    9.9035    3.2794 C.ar      1 RES1    0.0000
     16 C9         4.1936    9.7864    4.1488 C.ar      1 RES1    0.0000
     17 H8         3.4274   10.3035    4.0461 H         1 RES1    0.0000
     18 C10        4.3064    8.8701    5.1867 C.ar      1 RES1    0.0000
     19 H9         3.5957    8.7730    5.7785 H         1 RES1    0.0000
     20 C11        5.4453    8.0945    5.3716 C.ar      1 RES1    0.0000
     21 C12        5.5734    7.1491    6.5420 C.3       1 RES1    0.0000
     22 H10        4.7385    7.1087    7.0131 H         1 RES1    0.0000
     23 H11        6.2616    7.4645    7.1338 H         1 RES1    0.0000
     24 H12        5.8028    6.2736    6.2218 H         1 RES1    0.0000
     25 C13        6.5001    8.2289    4.4657 C.ar      1 RES1    0.0000
     26 H13        7.2680    7.7132    4.5648 H         1 RES1    0.0000
     27 C14        6.4002    9.1334    3.4172 C.ar      1 RES1    0.0000
     28 C15        7.3836    9.5266    2.3397 C.3       1 RES1    0.0000
     29 C16        6.6221   10.6643    1.6116 C.2       1 RES1    0.0000
     30 C17        7.7542    8.4170    1.2842 C.3       1 RES1    0.0000
     31 C18        6.6063    8.1492    0.3968 C.1       1 RES1    0.0000
     32 C19        8.1672    7.1778    1.9691 C.1       1 RES1    0.0000
     33 C20        8.9973    9.0626    0.5635 C.3       1 RES1    0.0000
     34 H14        8.6754    9.7687   -0.0336 H         1 RES1    0.0000
     35 C21        9.8820    8.1230   -0.2401 C.ar      1 RES1    0.0000
     36 C22        9.3331    7.3053   -1.2102 C.ar      1 RES1    0.0000
     37 H15        8.4104    7.2887   -1.3309 H         1 RES1    0.0000
     38 C23       10.1466    6.5034   -2.0109 C.ar      1 RES1    0.0000
     39 H16        9.7745    5.9492   -2.6583 H         1 RES1    0.0000
     40 C24       11.5130    6.5463   -1.8287 C.ar      1 RES1    0.0000
     41 H17       12.0646    6.0272   -2.3671 H         1 RES1    0.0000
     42 C25       12.0681    7.3421   -0.8679 C.ar      1 RES1    0.0000
     43 H18       12.9921    7.3527   -0.7577 H         1 RES1    0.0000
     44 C26       11.2683    8.1394   -0.0476 C.ar      1 RES1    0.0000
     45 C27       11.8238    8.9223    1.0350 C.2       1 RES1    0.0000
     46 H19       12.7471    8.9571    1.1476 H         1 RES1    0.0000
     47 C28       11.0376    9.5972    1.8740 C.2       1 RES1    0.0000
     48 H20       11.4234   10.0195    2.6085 H         1 RES1    0.0000
     49 C29        8.7939    9.9502    2.8358 C.3       1 RES1    0.0000
     50 H21        9.0530    9.3443    3.5611 H         1 RES1    0.0000
     51 C30        8.8413   11.3676    3.3700 C.ar      1 RES1    0.0000
     52 C31        9.3299   12.4225    2.6132 C.ar      1 RES1    0.0000
     53 H22        9.6511   12.2650    1.7544 H         1 RES1    0.0000
     54 C32        9.3406   13.7018    3.1236 C.ar      1 RES1    0.0000
     55 H23        9.6813   14.4076    2.6224 H         1 RES1    0.0000
     56 C33        8.8427   13.9216    4.3838 C.ar      1 RES1    0.0000
     57 C34        8.3421   12.9073    5.1612 C.ar      1 RES1    0.0000
     58 H24        8.0001   13.0784    6.0083 H         1 RES1    0.0000
     59 C35        8.3608   11.6215    4.6493 C.ar      1 RES1    0.0000
     60 H25        8.0461   10.9163    5.1682 H         1 RES1    0.0000
     61 N1         5.3983   10.7874    2.1895 N.am      1 RES1    0.0000
     62 N2         5.6938    8.0017   -0.2599 N.1       1 RES1    0.0000
     63 N3         8.5366    6.2681    2.5377 N.1       1 RES1    0.0000
     64 N4         9.6729    9.6916    1.6963 N.3       1 RES1    0.0000
     65 N5         8.8545   15.2939    4.9315 N.pl3     1 RES1    0.0000
     66 O1         7.0249   11.3201    0.6652 O.2       1 RES1    0.0000
     67 O2         8.3061   15.4818    6.0141 O.2       1 RES1    0.0000
     68 O3         9.4506   16.1542    4.3020 O.2       1 RES1    0.0000
@<TRIPOS>BOND
     1    1    2 1
     2    3    1 ar
     3    4    3 1
     4    5    3 ar
     5    6    5 1
     6    7    5 ar
     7    8    7 1
     8    9    7 ar
     9   10    9 1
    10   11    1 ar
    11   12   11 1
    12   13   12 1
    13   14   12 1
    14   15   16 ar
    15   16   17 1
    16   18   16 ar
    17   19   18 1
    18   20   18 ar
    19   21   20 1
    20   22   21 1
    21   23   21 1
    22   24   21 1
    23   25   20 ar
    24   26   25 1
    25   27   15 ar
    26   28   27 1
    27   29   28 1
    28   30   28 1
    29   31   30 1
    30   32   30 1
    31   33   30 1
    32   34   33 1
    33   35   33 1
    34   36   35 ar
    35   37   36 1
    36   38   36 ar
    37   39   38 1
    38   40   38 ar
    39   41   40 1
    40   42   40 ar
    41   43   42 1
    42   44   35 ar
    43   45   44 1
    44   46   45 1
    45   47   45 2
    46   48   47 1
    47   49   28 1
    48   50   49 1
    49   51   49 1
    50   52   51 ar
    51   53   52 1
    52   54   52 ar
    53   55   54 1
    54   56   54 ar
    55   57   56 ar
    56   58   57 1
    57   59   51 ar
    58   60   59 1
    59   61   12 1
    60   62   31 3
    61   63   32 3
    62   64   33 1
    63   65   56 1
    64   66   29 2
    65   67   65 2
    66   68   65 2
    67    9   11 ar
    68   15   61 1
    69   25   27 ar
    70   29   61 1
    71   42   44 ar
    72   47   64 1
    73   49   64 1
    74   57   59 ar
@<TRIPOS>SUBSTRUCTURE
     1 RES1 1

@<TRIPOS>CRYSIN
  10.1786   12.2890   12.2950  73.6960  75.8230  74.1020   2 1

