# MOL2 file generated by ConQuest
# Please check atom types

@<TRIPOS>MOLECULE
PCHSYD10
    32    34     1
SMALL
USER_CHARGES
****
Generated from CSD

@<TRIPOS>ATOM
      1 O1         1.0979    7.8217   -0.3606 O.3       1 RES1    0.0000
      2 N1         2.3272    8.3037    0.0394 N.2       1 RES1   -1.0000
      3 N2         2.0314    9.0348    1.1044 N.pl3     1 RES1    1.0000
      4 C1         0.7292    9.0649    1.4582 C.2       1 RES1    0.0000
      5 C2         0.0765    8.2585    0.4925 C.2       1 RES1    0.0000
      6 O2        -1.0602    7.9111    0.2930 O.2       1 RES1    0.0000
      7 C3         3.1723    9.6403    1.7580 C.ar      1 RES1    0.0000
      8 C4         3.5021    9.2336    3.0359 C.ar      1 RES1    0.0000
      9 C5         4.6225    9.7899    3.6388 C.ar      1 RES1    0.0000
     10 C6         5.3846   10.7128    2.9514 C.ar      1 RES1    0.0000
     11 C7         5.0352   11.0894    1.6757 C.ar      1 RES1    0.0000
     12 C8         3.9311   10.5562    1.0559 C.ar      1 RES1    0.0000
     13 C9         0.1129    9.8191    2.5513 C.2       1 RES1    0.0000
     14 C10       -1.0582    9.3581    3.0776 C.2       1 RES1    0.0000
     15 C11       -1.8193   10.0932    4.1369 C.3       1 RES1    0.0000
     16 C12       -1.0865   11.2129    4.7691 C.3       1 RES1    0.0000
     17 C13       -0.2518   11.9500    3.8089 C.3       1 RES1    0.0000
     18 C14        0.7062   11.0813    3.0325 C.3       1 RES1    0.0000
     19 H1         2.8577    8.5558    3.4934 H         1 RES1    0.0000
     20 H2         4.9678    9.3893    4.5752 H         1 RES1    0.0000
     21 H3         6.1773   11.0161    3.4033 H         1 RES1    0.0000
     22 H4         5.5674   11.6186    1.2058 H         1 RES1    0.0000
     23 H5         3.5683   10.8454    0.1352 H         1 RES1    0.0000
     24 H6        -1.5041    8.6160    2.6370 H         1 RES1    0.0000
     25 H7        -2.1076    9.4796    4.8119 H         1 RES1    0.0000
     26 H8        -2.6501   10.4136    3.7751 H         1 RES1    0.0000
     27 H9        -0.5363   10.8755    5.4768 H         1 RES1    0.0000
     28 H10       -1.8636   11.8194    5.2626 H         1 RES1    0.0000
     29 H11        0.1349   12.7533    4.1808 H         1 RES1    0.0000
     30 H12       -0.8219   12.4320    3.2004 H         1 RES1    0.0000
     31 H13        1.4625   10.9357    3.6850 H         1 RES1    0.0000
     32 H14        1.1575   11.5885    2.2989 H         1 RES1    0.0000
@<TRIPOS>BOND
     1    1    2 1
     2    2    3 1
     3    3    4 2
     4    4    5 1
     5    5    1 1
     6    6    5 2
     7    7    3 1
     8    8    7 ar
     9    9    8 ar
    10   10    9 ar
    11   11   10 ar
    12   12    7 ar
    13   13    4 1
    14   14   13 2
    15   15   14 1
    16   16   15 1
    17   17   16 1
    18   18   13 1
    19   19    8 1
    20   20    9 1
    21   21   10 1
    22   22   11 1
    23   23   12 1
    24   24   14 1
    25   25   15 1
    26   26   15 1
    27   27   16 1
    28   28   16 1
    29   29   17 1
    30   30   17 1
    31   31   18 1
    32   32   18 1
    33   11   12 ar
    34   17   18 1
@<TRIPOS>SUBSTRUCTURE
     1 RES1 1

@<TRIPOS>CRYSIN
  11.0150   10.0420   15.1640  90.0000 132.0000  90.0000  14 1

