# MOL2 file generated by ConQuest
# Please check atom types

@<TRIPOS>MOLECULE
PEBBOP
    44    48     1
SMALL
NO_CHARGES
****
Generated from CSD

@<TRIPOS>ATOM
      1 N1        -3.8021    3.7580  -11.0719 N.3       1 RES1    0.0000
      2 O1        -4.2084   -0.1048   -9.4444 O.3       1 RES1    0.0000
      3 H1        -3.7273   -0.4163  -10.0310 H         1 RES1    0.0000
      4 O2        -4.6560    0.0644   -6.9270 O.3       1 RES1    0.0000
      5 H2        -4.8079   -0.5042   -7.4983 H         1 RES1    0.0000
      6 O3        -7.0475    2.0872   -8.0928 O.2       1 RES1    0.0000
      7 O4        -4.2693    2.4230  -11.4330 O.3       1 RES1    0.0000
      8 C1        -5.0984    4.4928  -11.1113 C.3       1 RES1    0.0000
      9 H3        -5.3106    4.7707  -12.0166 H         1 RES1    0.0000
     10 H4        -5.0684    5.2768  -10.5411 H         1 RES1    0.0000
     11 C2        -6.1314    3.4816  -10.5941 C.3       1 RES1    0.0000
     12 H5        -6.5515    3.7871   -9.7748 H         1 RES1    0.0000
     13 H6        -6.8154    3.2982  -11.2581 H         1 RES1    0.0000
     14 C3        -5.2469    2.2650  -10.3501 C.3       1 RES1    0.0000
     15 H7        -5.7361    1.4171  -10.3912 H         1 RES1    0.0000
     16 C4        -4.3260    2.3720   -9.1402 C.3       1 RES1    0.0000
     17 C5        -3.5818    1.0294   -8.8736 C.3       1 RES1    0.0000
     18 H8        -2.6625    1.0962   -9.2076 H         1 RES1    0.0000
     19 C6        -3.5593    0.8718   -7.3424 C.3       1 RES1    0.0000
     20 H9        -2.7085    0.4889   -7.0419 H         1 RES1    0.0000
     21 C7        -3.7444    2.2688   -6.7991 C.3       1 RES1    0.0000
     22 H10       -2.9040    2.7549   -6.9312 H         1 RES1    0.0000
     23 C8        -4.0777    2.3042   -5.2897 C.3       1 RES1    0.0000
     24 H11       -4.0946    1.3922   -4.9579 H         1 RES1    0.0000
     25 H12       -3.3622    2.7683   -4.8281 H         1 RES1    0.0000
     26 C9        -3.3527    3.4911   -9.6704 C.3       1 RES1    0.0000
     27 H13       -2.4380    3.1397   -9.6875 H         1 RES1    0.0000
     28 C10       -3.4191    4.6676   -8.6946 C.3       1 RES1    0.0000
     29 H14       -3.4962    5.5050   -9.1774 H         1 RES1    0.0000
     30 H15       -2.6202    4.6981   -8.1460 H         1 RES1    0.0000
     31 C11       -4.6680    4.4326   -7.8178 C.3       1 RES1    0.0000
     32 H16       -5.4540    4.8327   -8.2221 H         1 RES1    0.0000
     33 H17       -4.5441    4.8079   -6.9323 H         1 RES1    0.0000
     34 C12       -4.8073    2.8905   -7.7485 C.3       1 RES1    0.0000
     35 C13       -6.1962    2.4359   -7.3096 C.2       1 RES1    0.0000
     36 C14       -6.5097    2.4560   -5.8238 C.3       1 RES1    0.0000
     37 H18       -6.7339    1.5546   -5.5463 H         1 RES1    0.0000
     38 H19       -7.2951    3.0079   -5.6839 H         1 RES1    0.0000
     39 C15       -5.3958    2.9716   -4.9287 C.3       1 RES1    0.0000
     40 H20       -5.3027    3.9351   -5.0776 H         1 RES1    0.0000
     41 C16       -5.7105    2.7425   -3.4476 C.3       1 RES1    0.0000
     42 H21       -4.9792    3.0595   -2.9130 H         1 RES1    0.0000
     43 H22       -5.8396    1.8048   -3.2888 H         1 RES1    0.0000
     44 H23       -6.5091    3.2199   -3.2128 H         1 RES1    0.0000
@<TRIPOS>BOND
     1    1    7 1
     2    2    3 1
     3    4    5 1
     4    6   35 2
     5    7   14 1
     6    8    1 1
     7    9    8 1
     8   10    8 1
     9   11    8 1
    10   12   11 1
    11   13   11 1
    12   14   11 1
    13   15   14 1
    14   16   14 1
    15   17    2 1
    16   18   17 1
    17   19    4 1
    18   20   19 1
    19   21   19 1
    20   22   21 1
    21   23   21 1
    22   24   23 1
    23   25   23 1
    24   26    1 1
    25   27   26 1
    26   28   26 1
    27   29   28 1
    28   30   28 1
    29   31   28 1
    30   32   31 1
    31   33   31 1
    32   34   16 1
    33   35   34 1
    34   36   35 1
    35   37   36 1
    36   38   36 1
    37   39   23 1
    38   40   39 1
    39   41   39 1
    40   42   41 1
    41   43   41 1
    42   44   41 1
    43   16   17 1
    44   16   26 1
    45   17   19 1
    46   21   34 1
    47   31   34 1
    48   36   39 1
@<TRIPOS>SUBSTRUCTURE
     1 RES1 1

@<TRIPOS>CRYSIN
   6.6590    9.5490   11.1890  90.0000  91.2000  90.0000   4 1

