# MOL2 file generated by ConQuest
# Please check atom types

@<TRIPOS>MOLECULE
PEBVIE
    59    61     2
SMALL
NO_CHARGES
****
Generated from CSD

@<TRIPOS>ATOM
      1 N1        10.6711    0.9886    1.4072 N.2       1 RES1    0.0000
      2 N2         9.9498    1.3570    0.2779 N.pl3     1 RES1    0.0000
      3 H1        10.3470    1.5600   -0.5228 H         1 RES1    0.0000
      4 N3         8.4096    2.3736   -1.9860 N.pl3     1 RES1    0.0000
      5 N4         4.4586    2.2651    0.8096 N.pl3     1 RES1    0.0000
      6 O1        17.3535    1.3496    3.8245 O.3       1 RES1    0.0000
      7 O2        17.2995   -0.8535    4.2546 O.2       1 RES1    0.0000
      8 O3         9.6190    2.1979   -2.1610 O.2       1 RES1    0.0000
      9 O4         7.6705    2.8018   -2.8612 O.2       1 RES1    0.0000
     10 O5         3.8711    2.8927   -0.0625 O.2       1 RES1    0.0000
     11 O6         3.9007    1.7948    1.7934 O.2       1 RES1    0.0000
     12 C1        14.2124    1.0713    1.8968 C.3       1 RES1    0.0000
     13 C2        12.8360    0.5714    2.4152 C.3       1 RES1    0.0000
     14 C3        12.5340    1.4707    3.6013 C.3       1 RES1    0.0000
     15 H2        11.5660    1.4729    3.8096 H         1 RES1    0.0000
     16 H3        13.0360    1.1820    4.4047 H         1 RES1    0.0000
     17 C4        12.9958    2.8395    3.1306 C.3       1 RES1    0.0000
     18 H4        13.2045    3.4198    3.9042 H         1 RES1    0.0000
     19 H5        12.2915    3.2751    2.5898 H         1 RES1    0.0000
     20 C5        14.2587    2.6003    2.2802 C.3       1 RES1    0.0000
     21 H6        14.1994    3.1488    1.4460 H         1 RES1    0.0000
     22 C6        15.6450    2.8395    2.9498 C.3       1 RES1    0.0000
     23 C7        16.1391    1.4242    3.1373 C.2       1 RES1    0.0000
     24 C8        15.4109    0.4888    2.5813 C.2       1 RES1    0.0000
     25 H7        15.6153   -0.4386    2.6084 H         1 RES1    0.0000
     26 C9        14.1661    0.7974    0.3858 C.3       1 RES1    0.0000
     27 H8        14.8125    1.3725   -0.0964 H         1 RES1    0.0000
     28 H9        14.3746   -0.1506    0.1928 H         1 RES1    0.0000
     29 C10       12.7318    1.1318   -0.0245 C.3       1 RES1    0.0000
     30 H10       12.6574    2.0739   -0.3189 H         1 RES1    0.0000
     31 H11       12.4262    0.5404   -0.7582 H         1 RES1    0.0000
     32 C11       11.9315    0.8926    1.2334 C.2       1 RES1    0.0000
     33 C12       12.7772   -0.9221    2.7452 C.3       1 RES1    0.0000
     34 H12       13.3625   -1.1111    3.5075 H         1 RES1    0.0000
     35 H13       13.0750   -1.4404    1.9688 H         1 RES1    0.0000
     36 H14       11.8566   -1.1709    2.9717 H         1 RES1    0.0000
     37 C13       15.6112    3.5844    4.2824 C.3       1 RES1    0.0000
     38 H15       15.0393    3.0994    4.9127 H         1 RES1    0.0000
     39 H16       15.2520    4.4859    4.1433 H         1 RES1    0.0000
     40 H17       16.5189    3.6465    4.6457 H         1 RES1    0.0000
     41 C14       16.5730    3.5896    1.9877 C.3       1 RES1    0.0000
     42 H18       17.4721    3.6413    2.3748 H         1 RES1    0.0000
     43 H19       16.2281    4.4948    1.8409 H         1 RES1    0.0000
     44 H20       16.6128    3.1119    1.1327 H         1 RES1    0.0000
     45 C15       17.8849    0.1883    4.2523 C.2       1 RES1    0.0000
     46 C16       19.1908    0.4267    4.9295 C.3       1 RES1    0.0000
     47 H21       19.4851   -0.3979    5.3706 H         1 RES1    0.0000
     48 H22       19.0880    1.1355    5.5986 H         1 RES1    0.0000
     49 H23       19.8579    0.6992    4.2657 H         1 RES1    0.0000
     50 C17        8.6308    1.5910    0.3856 C.ar      1 RES1    0.0000
     51 C18        7.8335    2.0650   -0.6887 C.ar      1 RES1    0.0000
     52 C19        6.4795    2.2909   -0.5474 C.ar      1 RES1    0.0000
     53 H24        5.9666    2.6136   -1.2791 H         1 RES1    0.0000
     54 C20        5.8871    2.0436    0.6613 C.ar      1 RES1    0.0000
     55 C21        6.6246    1.5837    1.7550 C.ar      1 RES1    0.0000
     56 H25        6.1972    1.4175    2.5880 H         1 RES1    0.0000
     57 C22        7.9638    1.3762    1.6140 C.ar      1 RES1    0.0000
     58 H26        8.4646    1.0779    2.3636 H         1 RES1    0.0000
     59 O7        17.7750   -0.7870    3.3536 Du        2 SUP2    0.0000
@<TRIPOS>BOND
     1    1    2 1
     2    2    3 1
     3    4    8 2
     4    5   10 2
     5    6   23 1
     6    7   45 2
     7    9    4 2
     8   11    5 2
     9   12   13 1
    10   13   14 1
    11   14   15 1
    12   16   14 1
    13   17   14 1
    14   18   17 1
    15   19   17 1
    16   20   12 1
    17   21   20 1
    18   22   20 1
    19   23   22 1
    20   24   12 1
    21   25   24 1
    22   26   12 1
    23   27   26 1
    24   28   26 1
    25   29   26 1
    26   30   29 1
    27   31   29 1
    28   32    1 2
    29   33   13 1
    30   34   33 1
    31   35   33 1
    32   36   33 1
    33   37   22 1
    34   38   37 1
    35   39   37 1
    36   40   37 1
    37   41   22 1
    38   42   41 1
    39   43   41 1
    40   44   41 1
    41   45    6 1
    42   46   45 1
    43   47   46 1
    44   48   46 1
    45   49   46 1
    46   50    2 1
    47   51    4 1
    48   52   51 ar
    49   53   52 1
    50   54    5 1
    51   55   54 ar
    52   56   55 1
    53   57   50 ar
    54   58   57 1
    55   13   32 1
    56   17   20 1
    57   23   24 2
    58   29   32 1
    59   50   51 ar
    60   52   54 ar
    61   55   57 ar
@<TRIPOS>SUBSTRUCTURE
     1 RES1 1
     2 SUP2 59

@<TRIPOS>CRYSIN
  15.8792    7.3830   18.5839  90.0000  94.0110  90.0000 231 1

