# MOL2 file generated by ConQuest
# Please check atom types

@<TRIPOS>MOLECULE
PECVIE
    23    23     1
SMALL
NO_CHARGES
****
Generated from CSD

@<TRIPOS>ATOM
      1 O1         1.5062    4.3190    7.4652 O.2       1 RES1    0.0000
      2 O2        -0.2264    2.1237    9.4868 O.2       1 RES1    0.0000
      3 O3        -1.0017    2.3657   11.4652 O.2       1 RES1    0.0000
      4 N1         0.9445    2.4220    5.5310 N.3       1 RES1    0.0000
      5 H1         1.1318    3.2596    5.3565 H         1 RES1    0.0000
      6 H2         0.0509    2.4398    5.5875 H         1 RES1    0.0000
      7 N2         1.4462    2.1602    6.8259 N.am      1 RES1    0.0000
      8 H3         1.6251    1.3582    7.0330 H         1 RES1    0.0000
      9 N3        -0.1705    2.6003   10.5984 N.pl3     1 RES1    0.0000
     10 C1         1.7263    3.1193    7.6986 C.2       1 RES1    0.0000
     11 C2         2.4145    2.6590    8.9684 C.3       1 RES1    0.0000
     12 H4         2.1351    1.7518    9.1674 H         1 RES1    0.0000
     13 H5         3.3728    2.6487    8.8217 H         1 RES1    0.0000
     14 C3         2.1103    3.5372   10.1578 C.ar      1 RES1    0.0000
     15 C4         0.9330    3.5268   10.9238 C.ar      1 RES1    0.0000
     16 C5         0.7323    4.3466   12.0250 C.ar      1 RES1    0.0000
     17 H6        -0.0591    4.2948   12.5097 H         1 RES1    0.0000
     18 C6         1.7168    5.2386   12.3945 C.ar      1 RES1    0.0000
     19 H7         1.5897    5.8031   13.1224 H         1 RES1    0.0000
     20 C7         2.9005    5.2860   11.6672 C.ar      1 RES1    0.0000
     21 H8         3.5696    5.8851   11.9090 H         1 RES1    0.0000
     22 C8         3.0858    4.4449   10.5843 C.ar      1 RES1    0.0000
     23 H9         3.8917    4.4844   10.1218 H         1 RES1    0.0000
@<TRIPOS>BOND
     1    1   10 2
     2    2    9 2
     3    3    9 2
     4    4    5 1
     5    6    4 1
     6    7    4 1
     7    8    7 1
     8    9   15 1
     9   10    7 1
    10   11   10 1
    11   12   11 1
    12   13   11 1
    13   14   11 1
    14   15   14 ar
    15   16   15 ar
    16   17   16 1
    17   18   16 ar
    18   19   18 1
    19   20   18 ar
    20   21   20 1
    21   22   14 ar
    22   23   22 1
    23   20   22 ar
@<TRIPOS>SUBSTRUCTURE
     1 RES1 1

@<TRIPOS>CRYSIN
   6.6962    4.9388   13.3593  90.0000  92.3610  90.0000   4 1

