# MOL2 file generated by ConQuest
# Please check atom types

@<TRIPOS>MOLECULE
PEDFOV
    31    32     1
SMALL
NO_CHARGES
****
Generated from CSD

@<TRIPOS>ATOM
      1 O1         0.8591    5.8332    3.2554 O.2       1 RES1    0.0000
      2 O2        -0.2876    4.3237    4.2959 O.2       1 RES1    0.0000
      3 O3        -0.8175    4.9239    9.0607 O.2       1 RES1    0.0000
      4 O4         0.5350    6.2452   10.1186 O.2       1 RES1    0.0000
      5 O5         4.7227    7.2262    8.0844 O.2       1 RES1    0.0000
      6 O6         4.9513    7.3262    5.9506 O.2       1 RES1    0.0000
      7 O7         3.1941    6.1234    4.4358 O.3       1 RES1    0.0000
      8 O8         2.7264    8.2982    4.0381 O.2       1 RES1    0.0000
      9 N1         0.5347    5.2247    4.2620 N.pl3     1 RES1    0.0000
     10 N2         0.1504    5.6686    9.1110 N.pl3     1 RES1    0.0000
     11 N3         4.3080    7.0743    6.9510 N.pl3     1 RES1    0.0000
     12 C1         2.4307    6.1512    5.5725 C.ar      1 RES1    0.0000
     13 C2         1.1456    5.6158    5.5430 C.ar      1 RES1    0.0000
     14 C3         0.3889    5.4294    6.6827 C.ar      1 RES1    0.0000
     15 H1        -0.4693    5.0245    6.6452 H         1 RES1    0.0000
     16 C4         0.9326    5.8569    7.8788 C.ar      1 RES1    0.0000
     17 C5         2.1843    6.4351    7.9671 C.ar      1 RES1    0.0000
     18 H2         2.5232    6.7398    8.7999 H         1 RES1    0.0000
     19 C6         2.9296    6.5587    6.8116 C.ar      1 RES1    0.0000
     20 C7         3.2913    7.2978    3.7030 C.2       1 RES1    0.0000
     21 C8         4.1586    7.0998    2.5298 C.ar      1 RES1    0.0000
     22 C9         5.0555    6.0333    2.4599 C.ar      1 RES1    0.0000
     23 H3         5.1124    5.4088    3.1720 H         1 RES1    0.0000
     24 C10        5.8607    5.8935    1.3438 C.ar      1 RES1    0.0000
     25 H4         6.4673    5.1652    1.2848 H         1 RES1    0.0000
     26 C11        5.7849    6.8118    0.3136 C.ar      1 RES1    0.0000
     27 H5         6.3482    6.7139   -0.4444 H         1 RES1    0.0000
     28 C12        4.8986    7.8706    0.3745 C.ar      1 RES1    0.0000
     29 H6         4.8546    8.4970   -0.3391 H         1 RES1    0.0000
     30 C13        4.0707    8.0153    1.4832 C.ar      1 RES1    0.0000
     31 H7         3.4497    8.7330    1.5270 H         1 RES1    0.0000
@<TRIPOS>BOND
     1    1    9 2
     2    2    9 2
     3    3   10 2
     4    4   10 2
     5    5   11 2
     6    6   11 2
     7    7   12 1
     8    8   20 2
     9    9   13 1
    10   10   16 1
    11   11   19 1
    12   12   13 ar
    13   13   14 ar
    14   14   15 1
    15   16   14 ar
    16   17   16 ar
    17   18   17 1
    18   19   12 ar
    19   20    7 1
    20   21   20 1
    21   22   21 ar
    22   23   22 1
    23   24   22 ar
    24   25   24 1
    25   26   24 ar
    26   27   26 1
    27   28   26 ar
    28   29   28 1
    29   30   21 ar
    30   31   30 1
    31   17   19 ar
    32   28   30 ar
@<TRIPOS>SUBSTRUCTURE
     1 RES1 1

@<TRIPOS>CRYSIN
   7.5818    8.3714   21.0625  90.0000  90.0000  90.0000  19 1

