# MOL2 file generated by ConQuest
# Please check atom types

@<TRIPOS>MOLECULE
PEDLER
    31    33     1
SMALL
NO_CHARGES
****
Generated from CSD

@<TRIPOS>ATOM
      1 O1         3.9020    1.5738   -3.0485 O.2       1 RES1    0.0000
      2 O2         3.1696   -0.3368   -2.3102 O.2       1 RES1    0.0000
      3 N1         1.3062    8.3130    3.0759 N.2       1 RES1    0.0000
      4 N2         1.3137    7.5737    1.9161 N.pl3     1 RES1    0.0000
      5 N3         3.2379    6.4880    2.6550 N.ar      1 RES1    0.0000
      6 N4         4.0633    5.4689    2.5688 N.ar      1 RES1    0.0000
      7 N5         2.7957    4.5930    0.7466 N.ar      1 RES1    0.0000
      8 N6         1.9563    5.6112    0.8506 N.ar      1 RES1    0.0000
      9 N7         4.6888    3.4976    1.5449 N.pl3     1 RES1    0.0000
     10 H1         5.2474    3.3594    2.2375 H         1 RES1    0.0000
     11 N8         4.2230    2.4118    0.8363 N.pl3     1 RES1    0.0000
     12 N9         4.4266    2.3472   -0.4980 N.2       1 RES1    0.0000
     13 N10        3.1040    0.6323    0.2304 N.2       1 RES1    0.0000
     14 N11        3.5989    0.8023   -2.1490 N.pl3     1 RES1    0.0000
     15 C1         0.3782    8.0249    1.0105 C.2       1 RES1    0.0000
     16 C2        -0.2340    9.0870    1.6230 C.2       1 RES1    0.0000
     17 H2        -0.9288    9.6260    1.2624 H         1 RES1    0.0000
     18 C3         0.3660    9.2267    2.8950 C.2       1 RES1    0.0000
     19 C4         0.1545    7.4610   -0.3534 C.3       1 RES1    0.0000
     20 H3        -0.5059    8.0068   -0.8280 H         1 RES1    0.0000
     21 H4        -0.1759    6.5413   -0.2765 H         1 RES1    0.0000
     22 H5         0.9993    7.4634   -0.8512 H         1 RES1    0.0000
     23 C5         0.0543   10.2340    3.9596 C.3       1 RES1    0.0000
     24 H6         0.6701   10.1148    4.7120 H         1 RES1    0.0000
     25 H7        -0.8673   10.1079    4.2680 H         1 RES1    0.0000
     26 H8         0.1555   11.1381    3.5939 H         1 RES1    0.0000
     27 C6         2.2091    6.5135    1.7930 C.ar      1 RES1    0.0000
     28 C7         3.8078    4.5534    1.6173 C.ar      1 RES1    0.0000
     29 C8         3.4146    1.4099    1.2543 C.2       1 RES1    0.0000
     30 H9         3.1158    1.2841    2.1476 H         1 RES1    0.0000
     31 C9         3.7307    1.2693   -0.7790 C.2       1 RES1    0.0000
@<TRIPOS>BOND
     1    1   14 2
     2    2   14 2
     3    3    4 1
     4    4   15 1
     5    5    6 ar
     6    6   28 ar
     7    7    8 ar
     8    8   27 ar
     9    9   10 1
    10   11    9 1
    11   12   11 1
    12   13   29 2
    13   14   31 1
    14   15   16 2
    15   16   17 1
    16   18    3 2
    17   19   15 1
    18   20   19 1
    19   21   19 1
    20   22   19 1
    21   23   18 1
    22   24   23 1
    23   25   23 1
    24   26   23 1
    25   27    4 1
    26   28    7 ar
    27   29   11 1
    28   30   29 1
    29   31   12 2
    30    5   27 ar
    31    9   28 1
    32   13   31 1
    33   16   18 1
@<TRIPOS>SUBSTRUCTURE
     1 RES1 1

@<TRIPOS>CRYSIN
   9.5677    9.9155   14.0602  90.0000 104.4010  90.0000  14 1

