# MOL2 file generated by ConQuest
# Please check atom types

@<TRIPOS>MOLECULE
PEFCIM
    41    41     1
SMALL
NO_CHARGES
****
Generated from CSD

@<TRIPOS>ATOM
      1 O1        10.1499    4.2510    2.6287 O.2       1 RES1    0.0000
      2 O2         9.4910    2.3653    1.8682 O.2       1 RES1    0.0000
      3 O3         4.2558    7.2044    0.9179 O.3       1 RES1    0.0000
      4 O4         1.5841    7.0260    1.3787 O.3       1 RES1    0.0000
      5 O5        -0.6138    5.3962    1.2101 O.3       1 RES1    0.0000
      6 N1         9.3114    3.5686    2.0979 N.pl3     1 RES1    0.0000
      7 C1         8.0228    4.1321    1.7440 C.ar      1 RES1    0.0000
      8 C2         7.8168    5.4867    1.9239 C.ar      1 RES1    0.0000
      9 C3         6.5883    6.0166    1.6175 C.ar      1 RES1    0.0000
     10 C4         5.5668    5.2307    1.1250 C.ar      1 RES1    0.0000
     11 C5         5.8128    3.8697    0.9337 C.ar      1 RES1    0.0000
     12 C6         7.0330    3.3243    1.2530 C.ar      1 RES1    0.0000
     13 C7         4.1942    5.7917    0.8260 C.3       1 RES1    0.0000
     14 C8         3.1047    5.1946    1.7537 C.3       1 RES1    0.0000
     15 C9         3.3191    5.5229    3.2289 C.3       1 RES1    0.0000
     16 C10        4.1042    4.5031    4.0158 C.3       1 RES1    0.0000
     17 C11        1.7249    5.6082    1.2236 C.3       1 RES1    0.0000
     18 C12        0.5448    4.9063    1.8938 C.3       1 RES1    0.0000
     19 C13       -1.8157    5.3548    1.9796 C.3       1 RES1    0.0000
     20 C14        0.6069    3.3954    1.8072 C.3       1 RES1    0.0000
     21 H1         8.5773    6.0618    2.1762 H         1 RES1    0.0000
     22 H2         6.4039    6.9795    1.8223 H         1 RES1    0.0000
     23 H3         5.0874    3.3217    0.5572 H         1 RES1    0.0000
     24 H4         7.2105    2.3523    1.1144 H         1 RES1    0.0000
     25 H5         3.9330    5.5190   -0.1506 H         1 RES1    0.0000
     26 H6         3.3952    7.4577    1.0241 H         1 RES1    0.0000
     27 H7         3.1541    4.2136    1.6265 H         1 RES1    0.0000
     28 H8         3.7682    6.3462    3.2605 H         1 RES1    0.0000
     29 H9         2.5299    5.6224    3.6521 H         1 RES1    0.0000
     30 H10        4.1799    4.6272    5.0978 H         1 RES1    0.0000
     31 H11        5.0326    4.4591    3.7725 H         1 RES1    0.0000
     32 H12        3.6322    3.7224    3.8704 H         1 RES1    0.0000
     33 H13        1.6787    5.4156    0.2259 H         1 RES1    0.0000
     34 H14        1.0016    7.1992    0.6250 H         1 RES1    0.0000
     35 H15        0.5345    5.1312    2.8840 H         1 RES1    0.0000
     36 H16       -1.9768    4.3945    2.1988 H         1 RES1    0.0000
     37 H17       -2.5345    5.7129    1.4684 H         1 RES1    0.0000
     38 H18       -1.5690    5.7775    3.0045 H         1 RES1    0.0000
     39 H19        1.3576    3.1020    2.4322 H         1 RES1    0.0000
     40 H20        0.6867    3.1020    0.7756 H         1 RES1    0.0000
     41 H21       -0.2320    2.9340    2.1310 H         1 RES1    0.0000
@<TRIPOS>BOND
     1    1    6 2
     2    2    6 2
     3    3   13 1
     4    4   17 1
     5    5   18 1
     6    6    7 1
     7    7    8 ar
     8    8    9 ar
     9    9   10 ar
    10   10   11 ar
    11   11   12 ar
    12   12    7 ar
    13   13   10 1
    14   14   13 1
    15   15   14 1
    16   16   15 1
    17   17   14 1
    18   18   17 1
    19   19    5 1
    20   20   18 1
    21   21    8 1
    22   22    9 1
    23   23   11 1
    24   24   12 1
    25   25   13 1
    26   26    3 1
    27   27   14 1
    28   28   15 1
    29   29   15 1
    30   30   16 1
    31   31   16 1
    32   32   16 1
    33   33   17 1
    34   34    4 1
    35   35   18 1
    36   36   19 1
    37   37   19 1
    38   38   19 1
    39   39   20 1
    40   40   20 1
    41   41   20 1
@<TRIPOS>SUBSTRUCTURE
     1 RES1 1

@<TRIPOS>CRYSIN
  15.2020   12.9250    7.6420  90.0000  99.8200  90.0000 231 1

