# MOL2 file generated by ConQuest
# Please check atom types

@<TRIPOS>MOLECULE
PEFHIU
    40    43     1
SMALL
NO_CHARGES
****
Generated from CSD

@<TRIPOS>ATOM
      1 O1         2.3476    4.7147   -0.7249 O.2       1 RES1    0.0000
      2 O2         4.4293    4.9848   -1.2292 O.2       1 RES1    0.0000
      3 O3         8.3357    4.1770    6.2458 O.2       1 RES1    0.0000
      4 N1         3.5437    4.6058   -0.4735 N.pl3     1 RES1    0.0000
      5 N2         7.6198    3.5362    8.3360 N.am      1 RES1    0.0000
      6 C1         3.9299    3.9840    0.7960 C.ar      1 RES1    0.0000
      7 C2         5.2313    4.1156    1.2478 C.ar      1 RES1    0.0000
      8 H1         5.8840    4.5740    0.7303 H         1 RES1    0.0000
      9 C3         5.5543    3.5603    2.4741 C.ar      1 RES1    0.0000
     10 H2         6.4381    3.6558    2.8108 H         1 RES1    0.0000
     11 C4         4.6110    2.8631    3.2274 C.ar      1 RES1    0.0000
     12 C5         4.9774    2.2740    4.5716 C.3       1 RES1    0.0000
     13 H3         4.1772    1.8057    4.9453 H         1 RES1    0.0000
     14 C6         5.4448    3.3430    5.5879 C.3       1 RES1    0.0000
     15 H4         4.6771    3.6907    6.1069 H         1 RES1    0.0000
     16 H5         5.8840    4.0990    5.1242 H         1 RES1    0.0000
     17 C7         6.4472    2.6128    6.5152 C.3       1 RES1    0.0000
     18 C8         5.8660    2.1570    7.8365 C.ar      1 RES1    0.0000
     19 C9         6.5904    2.7527    8.8677 C.ar      1 RES1    0.0000
     20 C10        6.2426    2.5687   10.1979 C.ar      1 RES1    0.0000
     21 H6         6.7420    2.9703   10.9003 H         1 RES1    0.0000
     22 C11        5.1326    1.7718   10.4636 C.ar      1 RES1    0.0000
     23 H7         4.8661    1.6364   11.3659 H         1 RES1    0.0000
     24 C12        3.3168    2.7340    2.7246 C.ar      1 RES1    0.0000
     25 H8         2.6659    2.2542    3.2225 H         1 RES1    0.0000
     26 C13        2.9691    3.2951    1.5103 C.ar      1 RES1    0.0000
     27 H9         2.0853    3.2083    1.1738 H         1 RES1    0.0000
     28 C14        6.1476    1.3113    4.5728 C.2       1 RES1    0.0000
     29 H10        6.2980    0.6601    3.8989 H         1 RES1    0.0000
     30 C15        6.9357    1.4816    5.6214 C.2       1 RES1    0.0000
     31 H11        7.7112    0.9615    5.7957 H         1 RES1    0.0000
     32 C16        7.5873    3.5409    6.9683 C.2       1 RES1    0.0000
     33 C17        4.7740    1.3581    8.1164 C.ar      1 RES1    0.0000
     34 H12        4.2825    0.9436    7.4180 H         1 RES1    0.0000
     35 C18        4.4100    1.1735    9.4525 C.ar      1 RES1    0.0000
     36 H13        3.6592    0.6326    9.6652 H         1 RES1    0.0000
     37 C19        8.5860    4.2921    9.1175 C.3       1 RES1    0.0000
     38 H14        9.2219    4.7305    8.5134 H         1 RES1    0.0000
     39 H15        9.0685    3.6844    9.7166 H         1 RES1    0.0000
     40 H16        8.1179    4.9696    9.6480 H         1 RES1    0.0000
@<TRIPOS>BOND
     1    1    4 2
     2    2    4 2
     3    3   32 2
     4    4    6 1
     5    5   19 1
     6    6    7 ar
     7    7    8 1
     8    9    7 ar
     9   10    9 1
    10   11    9 ar
    11   12   11 1
    12   13   12 1
    13   14   12 1
    14   15   14 1
    15   16   14 1
    16   17   14 1
    17   18   17 1
    18   19   18 ar
    19   20   19 ar
    20   21   20 1
    21   22   20 ar
    22   23   22 1
    23   24   11 ar
    24   25   24 1
    25   26    6 ar
    26   27   26 1
    27   28   12 1
    28   29   28 1
    29   30   17 1
    30   31   30 1
    31   32    5 1
    32   33   18 ar
    33   34   33 1
    34   35   22 ar
    35   36   35 1
    36   37    5 1
    37   38   37 1
    38   39   37 1
    39   40   37 1
    40   17   32 1
    41   24   26 ar
    42   28   30 2
    43   33   35 ar
@<TRIPOS>SUBSTRUCTURE
     1 RES1 1

@<TRIPOS>CRYSIN
   6.0164   10.5781   24.5060  90.0000  90.0000  90.0000  19 1

