# MOL2 file generated by ConQuest
# Please check atom types

@<TRIPOS>MOLECULE
PEFTIE02
    23    23     1
SMALL
NO_CHARGES
****
Generated from CSD

@<TRIPOS>ATOM
      1 O1        -0.7191    3.0826    3.2563 O.2       1 RES1    0.0000
      2 O2        -0.3950    2.5136    1.2098 O.2       1 RES1    0.0000
      3 N1         0.0146    2.8555    2.3106 N.pl3     1 RES1    0.0000
      4 N2         5.5843    3.2484    3.0480 N.3       1 RES1    0.0000
      5 N3         6.2649    1.5369    5.9018 N.1       1 RES1    0.0000
      6 C1         1.4748    2.9339    2.4990 C.ar      1 RES1    0.0000
      7 C2         1.9636    3.3320    3.7274 C.ar      1 RES1    0.0000
      8 H1         1.3758    3.5340    4.4193 H         1 RES1    0.0000
      9 C3         3.2997    3.4267    3.9224 C.ar      1 RES1    0.0000
     10 H2         3.6187    3.6916    4.7542 H         1 RES1    0.0000
     11 C4         4.2169    3.1337    2.8998 C.ar      1 RES1    0.0000
     12 C5         3.6656    2.7304    1.6624 C.ar      1 RES1    0.0000
     13 H3         4.2336    2.5158    0.9585 H         1 RES1    0.0000
     14 C6         2.3273    2.6498    1.4822 C.ar      1 RES1    0.0000
     15 H4         1.9876    2.3974    0.6543 H         1 RES1    0.0000
     16 C7         6.4952    2.7978    2.0218 C.3       1 RES1    0.0000
     17 H5         6.0012    2.5883    1.2243 H         1 RES1    0.0000
     18 H6         6.9590    2.0141    2.3260 H         1 RES1    0.0000
     19 H7         7.1310    3.4918    1.8301 H         1 RES1    0.0000
     20 C8         6.1659    3.6132    4.3375 C.3       1 RES1    0.0000
     21 H8         5.6312    4.3095    4.7490 H         1 RES1    0.0000
     22 H9         7.0612    3.9617    4.2021 H         1 RES1    0.0000
     23 C9         6.2232    2.4470    5.2296 C.1       1 RES1    0.0000
@<TRIPOS>BOND
     1    1    3 2
     2    2    3 2
     3    3    6 1
     4    4   11 1
     5    5   23 3
     6    6    7 ar
     7    7    8 1
     8    9    7 ar
     9   10    9 1
    10   11    9 ar
    11   12   11 ar
    12   13   12 1
    13   14    6 ar
    14   15   14 1
    15   16    4 1
    16   17   16 1
    17   18   16 1
    18   19   16 1
    19   20    4 1
    20   21   20 1
    21   22   20 1
    22   23   20 1
    23   12   14 ar
@<TRIPOS>SUBSTRUCTURE
     1 RES1 1

@<TRIPOS>CRYSIN
  10.4224    7.3995   25.5600  90.0000  90.0000  90.0000  61 1

