# MOL2 file generated by ConQuest
# Please check atom types

@<TRIPOS>MOLECULE
PEFXED10
    41    43     1
SMALL
NO_CHARGES
****
Generated from CSD

@<TRIPOS>ATOM
      1 O1         5.0858  -20.1429  -31.4100 O.3       1 RES1    0.0000
      2 O2         6.7536  -19.0317  -32.2587 O.2       1 RES1    0.0000
      3 N1         6.0218  -25.1573  -28.4304 N.3       1 RES1    0.0000
      4 O3         7.5942  -28.9994  -28.4786 O.2       1 RES1    0.0000
      5 O4         6.1142  -27.6547  -29.2287 O.2       1 RES1    0.0000
      6 N2         5.5850  -23.8476  -28.3508 N.2       1 RES1    0.0000
      7 C1         8.8688  -27.1010  -27.1187 C.ar      1 RES1    0.0000
      8 C2         4.0261  -22.2138  -29.0904 C.3       1 RES1    0.0000
      9 C3         3.6923  -19.1652  -29.6331 C.3       1 RES1    0.0000
     10 C4         3.5669  -21.6225  -30.4022 C.3       1 RES1    0.0000
     11 C5         7.1303  -25.5074  -27.7494 C.ar      1 RES1    0.0000
     12 C6         9.4581  -26.1376  -26.3643 C.ar      1 RES1    0.0000
     13 C7         3.7800  -20.1779  -30.7458 C.3       1 RES1    0.0000
     14 O5        11.2271  -27.5523  -25.8782 O.2       1 RES1    0.0000
     15 C8         5.8152  -19.0122  -31.5295 C.2       1 RES1    0.0000
     16 C9         8.9229  -24.8616  -26.2616 C.ar      1 RES1    0.0000
     17 C10        7.6955  -26.7989  -27.7934 C.ar      1 RES1    0.0000
     18 N3         7.0968  -27.8842  -28.5331 N.pl3     1 RES1    0.0000
     19 N4        10.7167  -26.4592  -25.6812 N.pl3     1 RES1    0.0000
     20 C11        4.5907  -23.5597  -29.0946 C.2       1 RES1    0.0000
     21 O6        11.1871  -25.6085  -24.9374 O.2       1 RES1    0.0000
     22 C12        5.4355  -17.8218  -30.7060 C.3       1 RES1    0.0000
     23 C13        4.0520  -17.7959  -30.1507 C.3       1 RES1    0.0000
     24 C14        2.5732  -22.0387  -29.3838 C.3       1 RES1    0.0000
     25 C15        7.7867  -24.5556  -26.9343 C.ar      1 RES1    0.0000
     26 H1         5.5856  -25.7680  -28.9270 H         1 RES1    0.0000
     27 H2         9.2591  -27.9763  -27.1773 H         1 RES1    0.0000
     28 H3         4.4217  -21.6004  -28.4660 H         1 RES1    0.0000
     29 H4         2.8169  -19.1626  -29.2392 H         1 RES1    0.0000
     30 H5         4.3252  -19.4336  -28.9626 H         1 RES1    0.0000
     31 H6         3.6582  -22.2241  -31.1439 H         1 RES1    0.0000
     32 H7         3.1142  -19.9251  -31.3891 H         1 RES1    0.0000
     33 H8         9.3727  -24.1938  -25.7378 H         1 RES1    0.0000
     34 H9         4.1862  -24.2185  -29.6646 H         1 RES1    0.0000
     35 H10        6.0577  -17.7440  -29.9810 H         1 RES1    0.0000
     36 H11        5.5438  -17.0464  -31.2634 H         1 RES1    0.0000
     37 H12        3.4268  -17.5379  -30.8317 H         1 RES1    0.0000
     38 H13        3.9961  -17.1605  -29.4341 H         1 RES1    0.0000
     39 H14        2.0781  -22.8479  -29.5347 H         1 RES1    0.0000
     40 H15        2.0852  -21.3463  -28.9333 H         1 RES1    0.0000
     41 H16        7.3894  -23.6855  -26.8505 H         1 RES1    0.0000
@<TRIPOS>BOND
     1    1   13 1
     2    2   15 2
     3    3    6 1
     4    4   18 2
     5    5   18 2
     6    6   20 2
     7    7   12 ar
     8    8   10 1
     9    9   13 1
    10   10   13 1
    11   11    3 1
    12   12   16 ar
    13   13   32 1
    14   14   19 2
    15   15    1 1
    16   16   25 ar
    17   17    7 ar
    18   18   17 1
    19   19   12 1
    20   20    8 1
    21   21   19 2
    22   22   15 1
    23   23    9 1
    24   24    8 1
    25   25   11 ar
    26   26    3 1
    27   27    7 1
    28   28    8 1
    29   29    9 1
    30   30    9 1
    31   31   10 1
    32   33   16 1
    33   34   20 1
    34   35   22 1
    35   36   22 1
    36   37   23 1
    37   38   23 1
    38   39   24 1
    39   40   24 1
    40   41   25 1
    41   10   24 1
    42   11   17 ar
    43   22   23 1
@<TRIPOS>SUBSTRUCTURE
     1 RES1 1

@<TRIPOS>CRYSIN
   5.8870   12.9670   20.9540  90.0000  90.0000  90.0000  19 1

