# MOL2 file generated by ConQuest
# Please check atom types

@<TRIPOS>MOLECULE
PEHQEB
    47    49     1
SMALL
NO_CHARGES
****
Generated from CSD

@<TRIPOS>ATOM
      1 O1         8.2933   10.0815   -0.1596 O.3       1 RES1    0.0000
      2 O2        14.7107    5.5319    2.5556 O.2       1 RES1    0.0000
      3 O3        16.1290    7.0913    2.2037 O.2       1 RES1    0.0000
      4 O4        13.9512   10.4975    8.3291 O.3       1 RES1    0.0000
      5 H1        14.7491   10.6754    8.3880 H         1 RES1    0.0000
      6 N1        10.2253   10.1764    5.1055 N.3       1 RES1    0.0000
      7 N2        15.0666    6.6897    2.6461 N.pl3     1 RES1    0.0000
      8 C1         9.3973   11.1455    5.8453 C.3       1 RES1    0.0000
      9 H2         8.4603   10.9435    5.7002 H         1 RES1    0.0000
     10 H3         9.5685   12.0376    5.5077 H         1 RES1    0.0000
     11 C2         9.6909   11.1070    7.3192 C.3       1 RES1    0.0000
     12 H4         9.4305   10.2438    7.6783 H         1 RES1    0.0000
     13 H5         9.1690   11.7887    7.7702 H         1 RES1    0.0000
     14 C3        11.1674   11.3403    7.5936 C.3       1 RES1    0.0000
     15 H6        11.3417   11.2164    8.5388 H         1 RES1    0.0000
     16 H7        11.3936   12.2565    7.3651 H         1 RES1    0.0000
     17 C4        12.0555   10.3868    6.7877 C.3       1 RES1    0.0000
     18 H8        11.8874    9.4743    7.1037 H         1 RES1    0.0000
     19 C5        11.6685   10.4554    5.2893 C.3       1 RES1    0.0000
     20 H9        11.8615   11.3559    4.9561 H         1 RES1    0.0000
     21 C6        12.4986    9.4611    4.5107 C.ar      1 RES1    0.0000
     22 C7        13.6254    9.8879    3.8126 C.ar      1 RES1    0.0000
     23 H10       13.8049   10.7980    3.7522 H         1 RES1    0.0000
     24 C8        14.4731    8.9958    3.2135 C.ar      1 RES1    0.0000
     25 H11       15.2336    9.2879    2.7639 H         1 RES1    0.0000
     26 C9        14.1722    7.6636    3.2925 C.ar      1 RES1    0.0000
     27 C10       13.0547    7.1971    3.9404 C.ar      1 RES1    0.0000
     28 H12       12.8596    6.2881    3.9577 H         1 RES1    0.0000
     29 C11       12.2361    8.1024    4.5625 C.ar      1 RES1    0.0000
     30 H13       11.4901    7.7994    5.0265 H         1 RES1    0.0000
     31 C12        9.7915   10.1295    3.7206 C.ar      1 RES1    0.0000
     32 C13       10.3259   10.9255    2.7108 C.ar      1 RES1    0.0000
     33 H14       11.0346   11.4966    2.9047 H         1 RES1    0.0000
     34 C14        9.8237   10.8846    1.4279 C.ar      1 RES1    0.0000
     35 H15       10.1952   11.4208    0.7642 H         1 RES1    0.0000
     36 C15        8.7612   10.0394    1.1248 C.ar      1 RES1    0.0000
     37 C16        8.2352    9.2434    2.1175 C.ar      1 RES1    0.0000
     38 H16        7.5276    8.6711    1.9264 H         1 RES1    0.0000
     39 C17        8.7529    9.2951    3.3831 C.ar      1 RES1    0.0000
     40 H17        8.3888    8.7457    4.0381 H         1 RES1    0.0000
     41 C18       13.5216   10.6934    6.9974 C.3       1 RES1    0.0000
     42 H18       14.0477   10.1271    6.4113 H         1 RES1    0.0000
     43 H19       13.6887   11.6156    6.7460 H         1 RES1    0.0000
     44 C19        7.1727    9.2867   -0.4683 C.3       1 RES1    0.0000
     45 H20        7.3865    8.3621   -0.3247 H         1 RES1    0.0000
     46 H21        6.9289    9.4202   -1.3877 H         1 RES1    0.0000
     47 H22        6.4371    9.5368    0.0962 H         1 RES1    0.0000
@<TRIPOS>BOND
     1    1   36 1
     2    2    7 2
     3    3    7 2
     4    4    5 1
     5    6    8 1
     6    7   26 1
     7    8    9 1
     8   10    8 1
     9   11    8 1
    10   12   11 1
    11   13   11 1
    12   14   11 1
    13   15   14 1
    14   16   14 1
    15   17   14 1
    16   18   17 1
    17   19    6 1
    18   20   19 1
    19   21   19 1
    20   22   21 ar
    21   23   22 1
    22   24   22 ar
    23   25   24 1
    24   26   24 ar
    25   27   26 ar
    26   28   27 1
    27   29   21 ar
    28   30   29 1
    29   31    6 1
    30   32   31 ar
    31   33   32 1
    32   34   32 ar
    33   35   34 1
    34   36   34 ar
    35   37   36 ar
    36   38   37 1
    37   39   31 ar
    38   40   39 1
    39   41    4 1
    40   42   41 1
    41   43   41 1
    42   44    1 1
    43   45   44 1
    44   46   44 1
    45   47   44 1
    46   17   19 1
    47   17   41 1
    48   27   29 ar
    49   37   39 ar
@<TRIPOS>SUBSTRUCTURE
     1 RES1 1

@<TRIPOS>CRYSIN
  10.3757   12.0232   14.3654  90.0000  90.0000  90.0000  19 1

