# MOL2 file generated by ConQuest
# Please check atom types

@<TRIPOS>MOLECULE
PEHVED
    39    42     1
SMALL
NO_CHARGES
****
Generated from CSD

@<TRIPOS>ATOM
      1 O1        -0.3858    4.8713    3.0306 O.3       1 RES1    0.0000
      2 N1         2.4651    4.8490    5.9747 N.3       1 RES1    0.0000
      3 N2         0.9733    4.3239    3.1507 N.3       1 RES1    0.0000
      4 C1         2.2854    3.7447    5.1691 C.2       1 RES1    0.0000
      5 C2         3.3927    2.9518    5.1940 C.2       1 RES1    0.0000
      6 C3         4.3201    3.6134    6.0729 C.ar      1 RES1    0.0000
      7 C4         5.6182    3.3116    6.5196 C.ar      1 RES1    0.0000
      8 C5         6.2262    4.1645    7.4161 C.ar      1 RES1    0.0000
      9 C6         5.5922    5.3178    7.8819 C.ar      1 RES1    0.0000
     10 C7         4.3244    5.6545    7.4527 C.ar      1 RES1    0.0000
     11 C8         3.7062    4.7942    6.5577 C.ar      1 RES1    0.0000
     12 C9         0.9327    3.8218    4.5408 C.3       1 RES1    0.0000
     13 C10       -0.4718    5.7717    4.1526 C.3       1 RES1    0.0000
     14 C11        0.2268    4.9833    5.2907 C.3       1 RES1    0.0000
     15 C12        1.3029    5.6983    6.1359 C.3       1 RES1    0.0000
     16 C13        3.6373    1.6621    4.4792 C.3       1 RES1    0.0000
     17 C14        1.0332    3.2715    2.1503 C.3       1 RES1    0.0000
     18 C15        0.1832    7.0918    3.7674 C.3       1 RES1    0.0000
     19 C16       -1.9586    5.9690    4.4236 C.3       1 RES1    0.0000
     20 H1         6.0817    2.4920    6.1769 H         1 RES1    0.0000
     21 H2         7.1371    3.9501    7.7618 H         1 RES1    0.0000
     22 H3         6.0695    5.9378    8.5278 H         1 RES1    0.0000
     23 H4         3.8566    6.4703    7.7764 H         1 RES1    0.0000
     24 H5         0.4236    2.9667    4.6257 H         1 RES1    0.0000
     25 H6        -0.4707    4.6043    5.8986 H         1 RES1    0.0000
     26 H7         1.0434    5.7613    7.0968 H         1 RES1    0.0000
     27 H8         1.5001    6.6194    5.7843 H         1 RES1    0.0000
     28 H9         3.9408    0.8893    5.0607 H         1 RES1    0.0000
     29 H10        4.2926    1.7859    3.8303 H         1 RES1    0.0000
     30 H11        2.8769    1.2631    3.9812 H         1 RES1    0.0000
     31 H12        1.9265    2.8057    2.1708 H         1 RES1    0.0000
     32 H13        0.3559    2.6018    2.2645 H         1 RES1    0.0000
     33 H14        0.9121    3.8878    1.1235 H         1 RES1    0.0000
     34 H15        1.1587    6.9391    3.6004 H         1 RES1    0.0000
     35 H16       -0.2451    7.4530    2.9442 H         1 RES1    0.0000
     36 H17        0.0758    7.7453    4.5188 H         1 RES1    0.0000
     37 H18       -2.3738    5.0856    4.6667 H         1 RES1    0.0000
     38 H19       -2.0828    6.6112    5.1706 H         1 RES1    0.0000
     39 H20       -2.4059    6.3190    3.5974 H         1 RES1    0.0000
@<TRIPOS>BOND
     1    1    3 1
     2    2    4 1
     3    3   12 1
     4    4    5 2
     5    5    6 1
     6    6    7 ar
     7    7    8 ar
     8    8    9 ar
     9    9   10 ar
    10   10   11 ar
    11   11    2 1
    12   12    4 1
    13   13    1 1
    14   14   12 1
    15   15    2 1
    16   16    5 1
    17   17    3 1
    18   18   13 1
    19   19   13 1
    20   20    7 1
    21   21    8 1
    22   22    9 1
    23   23   10 1
    24   24   12 1
    25   25   14 1
    26   26   15 1
    27   27   15 1
    28   28   16 1
    29   29   16 1
    30   30   16 1
    31   31   17 1
    32   32   17 1
    33   33   17 1
    34   34   18 1
    35   35   18 1
    36   36   18 1
    37   37   19 1
    38   38   19 1
    39   39   19 1
    40    6   11 ar
    41   13   14 1
    42   14   15 1
@<TRIPOS>SUBSTRUCTURE
     1 RES1 1

@<TRIPOS>CRYSIN
  13.1462    7.4167   17.6274  90.0000 123.8030  90.0000  14 1

