# MOL2 file generated by ConQuest
# Please check atom types

@<TRIPOS>MOLECULE
PEHVAZ
    40    44     1
SMALL
NO_CHARGES
****
Generated from CSD

@<TRIPOS>ATOM
      1 O1         6.6998    1.0208   14.1582 O.3       1 RES1    0.0000
      2 O2        11.3461   -1.2950   11.9947 O.3       1 RES1    0.0000
      3 O3         7.6327   -1.0338    7.8526 O.3       1 RES1    0.0000
      4 O4         8.1659   -0.5904   14.7929 O.2       1 RES1    0.0000
      5 O5        10.9976   -0.0146   13.8336 O.2       1 RES1    0.0000
      6 O6         9.9215   -0.8807    8.0176 O.2       1 RES1    0.0000
      7 N1         6.5165    1.7912   13.0211 N.2       1 RES1    0.0000
      8 N2         7.8327    0.2091   13.9206 N.pl3     1 RES1    0.0000
      9 N3        10.6370   -1.6411   10.8594 N.2       1 RES1    0.0000
     10 N4        10.5214   -0.4411   12.7781 N.pl3     1 RES1    0.0000
     11 N5         6.5943   -1.1924    8.7249 N.2       1 RES1    0.0000
     12 N6         8.8384   -1.0009    8.6269 N.pl3     1 RES1    0.0000
     13 C1         7.4641    1.4719   12.1688 C.2       1 RES1    0.0000
     14 C2         8.2939    0.4802   12.7146 C.2       1 RES1    0.0000
     15 C3         9.4838   -1.0155   10.9483 C.2       1 RES1    0.0000
     16 C4         9.3817   -0.2703   12.1343 C.2       1 RES1    0.0000
     17 C5         7.0770   -1.2804    9.9418 C.2       1 RES1    0.0000
     18 C6         8.4853   -1.1326    9.8964 C.2       1 RES1    0.0000
     19 C7         7.5425    2.0975   10.8648 C.ar      1 RES1    0.0000
     20 C8         8.7790    2.3939   10.3026 C.ar      1 RES1    0.0000
     21 C9         8.8471    3.0019    9.0531 C.ar      1 RES1    0.0000
     22 C10        7.6795    3.3136    8.3676 C.ar      1 RES1    0.0000
     23 C11        6.4430    3.0173    8.9298 C.ar      1 RES1    0.0000
     24 C12        6.3753    2.4092   10.1775 C.ar      1 RES1    0.0000
     25 C13        6.2177   -1.5063   11.0897 C.ar      1 RES1    0.0000
     26 C14        4.9419   -0.9557   11.1441 C.ar      1 RES1    0.0000
     27 C15        4.1403   -1.1694   12.2576 C.ar      1 RES1    0.0000
     28 C16        4.6117   -1.9336   13.3185 C.ar      1 RES1    0.0000
     29 C17        5.8875   -2.4843   13.2641 C.ar      1 RES1    0.0000
     30 C18        6.6891   -2.2706   12.1506 C.ar      1 RES1    0.0000
     31 H1         9.5902    2.1772   10.7778 H         1 RES1    0.0000
     32 H2         9.7058    3.2072    8.6632 H         1 RES1    0.0000
     33 H3         7.7274    3.7356    7.5007 H         1 RES1    0.0000
     34 H4         5.6321    3.2340    8.4528 H         1 RES1    0.0000
     35 H5         5.5165    2.2040   10.5674 H         1 RES1    0.0000
     36 H6         4.6139   -0.4258   10.4060 H         1 RES1    0.0000
     37 H7         3.2549   -0.7872   12.2957 H         1 RES1    0.0000
     38 H8         4.0546   -2.0822   14.0929 H         1 RES1    0.0000
     39 H9         6.2158   -3.0142   14.0004 H         1 RES1    0.0000
     40 H10        7.5745   -2.6527   12.1125 H         1 RES1    0.0000
@<TRIPOS>BOND
     1    1    7 1
     2    2    9 1
     3    3   11 1
     4    4    8 1
     5    5   10 1
     6    6   12 1
     7    7   13 2
     8    8    1 1
     9    9   15 2
    10   10    2 1
    11   11   17 2
    12   12    3 1
    13   13   14 1
    14   14    8 2
    15   15   16 1
    16   16   10 2
    17   17   18 1
    18   18   12 2
    19   19   13 1
    20   20   19 ar
    21   21   20 ar
    22   22   21 ar
    23   23   22 ar
    24   24   19 ar
    25   25   17 1
    26   26   25 ar
    27   27   26 ar
    28   28   27 ar
    29   29   28 ar
    30   30   25 ar
    31   31   20 1
    32   32   21 1
    33   33   22 1
    34   34   23 1
    35   35   24 1
    36   36   26 1
    37   37   27 1
    38   38   28 1
    39   39   29 1
    40   40   30 1
    41   14   16 1
    42   15   18 1
    43   23   24 ar
    44   29   30 ar
@<TRIPOS>SUBSTRUCTURE
     1 RES1 1

@<TRIPOS>CRYSIN
  12.7830    7.6580   18.4580  90.0000 100.7300  90.0000  14 1

