# MOL2 file generated by ConQuest
# Please check atom types

@<TRIPOS>MOLECULE
PEJKEX
    22    23     1
SMALL
NO_CHARGES
****
Generated from CSD

@<TRIPOS>ATOM
      1 O1         4.6062    7.1373    3.8568 O.3       1 RES1    0.0000
      2 O2         3.4788    5.0908    0.3017 O.3       1 RES1    0.0000
      3 O3         3.1591    2.8685    0.1999 O.2       1 RES1    0.0000
      4 N1         3.7809    6.0856    1.3253 N.3       1 RES1    0.0000
      5 C1         4.4106    5.7969    3.7401 C.ar      1 RES1    0.0000
      6 C2         4.5148    4.8610    4.7550 C.ar      1 RES1    0.0000
      7 H1         4.7577    5.1607    5.6900 H         1 RES1    0.0000
      8 C3         4.2567    3.5079    4.5277 C.ar      1 RES1    0.0000
      9 H2         4.3189    2.9006    5.2433 H         1 RES1    0.0000
     10 C4         3.9005    3.0457    3.2816 C.ar      1 RES1    0.0000
     11 H3         3.6953    2.0328    3.1742 H         1 RES1    0.0000
     12 C5         3.8140    3.9858    2.2603 C.ar      1 RES1    0.0000
     13 C6         4.0484    5.3281    2.4688 C.ar      1 RES1    0.0000
     14 C7         3.4522    3.8360    0.8700 C.2       1 RES1    0.0000
     15 C8         4.8144    6.9585    0.7728 C.3       1 RES1    0.0000
     16 H4         4.3992    7.4459    0.0627 H         1 RES1    0.0000
     17 H5         5.0656    7.5932    1.4734 H         1 RES1    0.0000
     18 H6         5.5955    6.4175    0.4938 H         1 RES1    0.0000
     19 C9         4.9174    7.6269    5.1720 C.3       1 RES1    0.0000
     20 H7         5.0342    8.5790    5.1390 H         1 RES1    0.0000
     21 H8         4.1988    7.4131    5.7715 H         1 RES1    0.0000
     22 H9         5.7275    7.2156    5.4831 H         1 RES1    0.0000
@<TRIPOS>BOND
     1    1    5 1
     2    2    4 1
     3    3   14 2
     4    4   13 1
     5    5    6 ar
     6    6    7 1
     7    8    6 ar
     8    9    8 1
     9   10    8 ar
    10   11   10 1
    11   12   10 ar
    12   13    5 ar
    13   14    2 1
    14   15    4 1
    15   16   15 1
    16   17   15 1
    17   18   15 1
    18   19    1 1
    19   20   19 1
    20   21   19 1
    21   22   19 1
    22   12   13 ar
    23   12   14 1
@<TRIPOS>SUBSTRUCTURE
     1 RES1 1

@<TRIPOS>CRYSIN
   7.3850    7.8040    8.6620  65.7420  75.2560  68.5290   2 1

