# MOL2 file generated by ConQuest
# Please check atom types

@<TRIPOS>MOLECULE
PEKHUI
    76    83     1
SMALL
NO_CHARGES
****
Generated from CSD

@<TRIPOS>ATOM
      1 O1         4.4824    8.2245    1.1402 O.2       1 RES1    0.0000
      2 N1         3.9309    8.4790    2.2691 N.pl3     1 RES1    0.0000
      3 C1         4.8823    8.6588    3.4228 C.3       1 RES1    0.0000
      4 C2         4.1136    8.9795    4.6764 C.2       1 RES1    0.0000
      5 C3         2.7910    9.0385    4.7626 C.2       1 RES1    0.0000
      6 C4         1.9590    8.8098    3.6193 C.2       1 RES1    0.0000
      7 C5         0.5750    8.8472    3.6775 C.2       1 RES1    0.0000
      8 C6        -0.2459    8.6545    2.5591 C.2       1 RES1    0.0000
      9 C7         0.4111    8.4287    1.3294 C.2       1 RES1    0.0000
     10 C8         1.7744    8.3554    1.2224 C.2       1 RES1    0.0000
     11 C9         2.5625    8.5351    2.3678 C.2       1 RES1    0.0000
     12 C10        5.7722    9.8654    3.1256 C.ar      1 RES1    0.0000
     13 C11        5.3771   10.8663    2.2587 C.ar      1 RES1    0.0000
     14 C12        6.1918   11.9765    2.0581 C.ar      1 RES1    0.0000
     15 C13        7.3827   12.1045    2.7254 C.ar      1 RES1    0.0000
     16 C14        7.7688   11.1180    3.5995 C.ar      1 RES1    0.0000
     17 C15        6.9689   10.0164    3.8157 C.ar      1 RES1    0.0000
     18 C16        5.6623    7.3429    3.5569 C.ar      1 RES1    0.0000
     19 C17        5.2506    6.3722    4.4435 C.ar      1 RES1    0.0000
     20 C18        5.9263    5.1714    4.5600 C.ar      1 RES1    0.0000
     21 C19        7.0127    4.9226    3.7534 C.ar      1 RES1    0.0000
     22 C20        7.4237    5.8718    2.8574 C.ar      1 RES1    0.0000
     23 C21        6.7632    7.0884    2.7555 C.ar      1 RES1    0.0000
     24 H1         4.6336    9.1607    5.4674 H         1 RES1    0.0000
     25 H2         2.3485    9.2182    5.6441 H         1 RES1    0.0000
     26 H3         0.1920    9.0888    4.5423 H         1 RES1    0.0000
     27 H4        -0.0916    8.3266    0.5197 H         1 RES1    0.0000
     28 H5         2.2152    8.1828    0.3950 H         1 RES1    0.0000
     29 H6         4.4944   10.8289    1.6631 H         1 RES1    0.0000
     30 H7         5.9027   12.5834    1.4136 H         1 RES1    0.0000
     31 H8         7.9536   12.8854    2.5778 H         1 RES1    0.0000
     32 H9         8.5741   11.2459    4.1057 H         1 RES1    0.0000
     33 H10        7.2296    9.2470    4.4591 H         1 RES1    0.0000
     34 H11        4.4836    6.4858    4.9892 H         1 RES1    0.0000
     35 H12        5.6476    4.5732    5.2283 H         1 RES1    0.0000
     36 H13        7.4400    4.1273    3.7315 H         1 RES1    0.0000
     37 H14        8.2268    5.7812    2.2867 H         1 RES1    0.0000
     38 H15        7.0612    7.8089    2.1620 H         1 RES1    0.0000
     39 C6B       -1.6973    8.6545    2.6381 C.2       1 RES1    0.0000
     40 C5B       -2.5181    8.8472    1.5196 C.2       1 RES1    0.0000
     41 C7B       -2.3543    8.4287    3.8677 C.2       1 RES1    0.0000
     42 C4B       -3.9021    8.8098    1.5778 C.2       1 RES1    0.0000
     43 H3B       -2.1352    9.0888    0.6548 H         1 RES1    0.0000
     44 C8B       -3.7175    8.3554    3.9748 C.2       1 RES1    0.0000
     45 H4B       -1.8515    8.3266    4.6774 H         1 RES1    0.0000
     46 C3B       -4.7342    9.0385    0.4345 C.2       1 RES1    0.0000
     47 C9B       -4.5056    8.5351    2.8293 C.2       1 RES1    0.0000
     48 H5B       -4.1584    8.1828    4.8021 H         1 RES1    0.0000
     49 C2B       -6.0568    8.9795    0.5208 C.2       1 RES1    0.0000
     50 H2B       -4.2916    9.2182   -0.4470 H         1 RES1    0.0000
     51 N1B       -5.8740    8.4790    2.9281 N.pl3     1 RES1    0.0000
     52 C1B       -6.8254    8.6588    1.7743 C.3       1 RES1    0.0000
     53 H1B       -6.5767    9.1607   -0.2703 H         1 RES1    0.0000
     54 O1B       -6.4255    8.2245    4.0569 O.2       1 RES1    0.0000
     55 C10B      -7.7153    9.8654    2.0716 C.ar      1 RES1    0.0000
     56 C16B      -7.6054    7.3429    1.6402 C.ar      1 RES1    0.0000
     57 C11B      -7.3203   10.8663    2.9385 C.ar      1 RES1    0.0000
     58 C15B      -8.9120   10.0164    1.3814 C.ar      1 RES1    0.0000
     59 C17B      -7.1938    6.3722    0.7536 C.ar      1 RES1    0.0000
     60 C21B      -8.7064    7.0884    2.4416 C.ar      1 RES1    0.0000
     61 C12B      -8.1350   11.9765    3.1391 C.ar      1 RES1    0.0000
     62 H6B       -6.4375   10.8289    3.5340 H         1 RES1    0.0000
     63 C14B      -9.7120   11.1180    1.5976 C.ar      1 RES1    0.0000
     64 H10B      -9.1728    9.2470    0.7380 H         1 RES1    0.0000
     65 C18B      -7.8694    5.1714    0.6372 C.ar      1 RES1    0.0000
     66 H11B      -6.4267    6.4858    0.2079 H         1 RES1    0.0000
     67 C20B      -9.3669    5.8718    2.3397 C.ar      1 RES1    0.0000
     68 H15B      -9.0043    7.8089    3.0351 H         1 RES1    0.0000
     69 C13B      -9.3258   12.1045    2.4718 C.ar      1 RES1    0.0000
     70 H7B       -7.8458   12.5834    3.7835 H         1 RES1    0.0000
     71 H9B      -10.5172   11.2459    1.0914 H         1 RES1    0.0000
     72 C19B      -8.9559    4.9226    1.4438 C.ar      1 RES1    0.0000
     73 H12B      -7.5907    4.5732   -0.0312 H         1 RES1    0.0000
     74 H14B     -10.1699    5.7812    2.9104 H         1 RES1    0.0000
     75 H8B       -9.8967   12.8854    2.6194 H         1 RES1    0.0000
     76 H13B      -9.3832    4.1273    1.4656 H         1 RES1    0.0000
@<TRIPOS>BOND
     1    1    2 1
     2    2    3 1
     3    3    4 1
     4    4    5 2
     5    5    6 1
     6    6    7 2
     7    7    8 1
     8    8    9 1
     9    9   10 2
    10   10   11 1
    11   11    2 2
    12   12    3 1
    13   13   12 ar
    14   14   13 ar
    15   15   14 ar
    16   16   15 ar
    17   17   12 ar
    18   18    3 1
    19   19   18 ar
    20   20   19 ar
    21   21   20 ar
    22   22   21 ar
    23   23   18 ar
    24   24    4 1
    25   25    5 1
    26   26    7 1
    27   27    9 1
    28   28   10 1
    29   29   13 1
    30   30   14 1
    31   31   15 1
    32   32   16 1
    33   33   17 1
    34   34   19 1
    35   35   20 1
    36   36   21 1
    37   37   22 1
    38   38   23 1
    39   39    8 2
    40   40   39 1
    41   41   39 1
    42   42   40 2
    43   43   40 1
    44   44   41 2
    45   45   41 1
    46   46   42 1
    47   47   42 1
    48   48   44 1
    49   49   46 2
    50   50   46 1
    51   51   47 2
    52   52   49 1
    53   53   49 1
    54   54   51 1
    55   55   52 1
    56   56   52 1
    57   57   55 ar
    58   58   55 ar
    59   59   56 ar
    60   60   56 ar
    61   61   57 ar
    62   62   57 1
    63   63   58 ar
    64   64   58 1
    65   65   59 ar
    66   66   59 1
    67   67   60 ar
    68   68   60 1
    69   69   61 ar
    70   70   61 1
    71   71   63 1
    72   72   65 ar
    73   73   65 1
    74   74   67 1
    75   75   69 1
    76   76   72 1
    77    6   11 1
    78   16   17 ar
    79   22   23 ar
    80   44   47 1
    81   51   52 1
    82   63   69 ar
    83   67   72 ar
@<TRIPOS>SUBSTRUCTURE
     1 RES1 1

@<TRIPOS>CRYSIN
  20.5470   14.3810   11.0970  90.0000 110.5000  90.0000  15 1

