# MOL2 file generated by ConQuest
# Please check atom types

@<TRIPOS>MOLECULE
PELDUG
    28    30     1
SMALL
NO_CHARGES
****
Generated from CSD

@<TRIPOS>ATOM
      1 N1        -0.4329    1.3298   23.8541 N.pl3     1 RES1    0.0000
      2 C1         0.7028    2.1360   23.8076 C.2       1 RES1    0.0000
      3 H1         0.8694    2.6409   23.0243 H         1 RES1    0.0000
      4 C2         1.3476    2.0918   24.9823 C.2       1 RES1    0.0000
      5 H2         2.1270    2.5480   25.1939 H         1 RES1    0.0000
      6 C3         0.6192    1.2151   25.8463 C.ar      1 RES1    0.0000
      7 C4         0.8058    0.7543   27.1538 C.ar      1 RES1    0.0000
      8 H3         1.5681    1.0300   27.6375 H         1 RES1    0.0000
      9 C5        -0.0807   -0.1502   27.6775 C.ar      1 RES1    0.0000
     10 H4         0.0543   -0.4647   28.5739 H         1 RES1    0.0000
     11 C6        -1.1660   -0.6118   26.9319 C.ar      1 RES1    0.0000
     12 H5        -1.7777   -1.2546   27.3102 H         1 RES1    0.0000
     13 C7        -1.3958   -0.1665   25.6472 C.ar      1 RES1    0.0000
     14 H6        -2.1503   -0.4724   25.1368 H         1 RES1    0.0000
     15 C8        -0.4921    0.7510   25.1193 C.ar      1 RES1    0.0000
     16 C9        -1.3739    1.1639   22.8176 C.ar      1 RES1    0.0000
     17 C10       -2.7299    1.2789   23.0921 C.ar      1 RES1    0.0000
     18 H7        -3.0353    1.4560   23.9645 H         1 RES1    0.0000
     19 C11       -3.6664    1.1679   22.0887 C.ar      1 RES1    0.0000
     20 H8        -4.6033    1.2314   22.3049 H         1 RES1    0.0000
     21 C12       -3.2813    0.9805   20.7805 C.ar      1 RES1    0.0000
     22 H9        -3.9202    0.9139   20.0820 H         1 RES1    0.0000
     23 C13       -1.9430    0.8837   20.4748 C.ar      1 RES1    0.0000
     24 H10       -1.6380    0.7357   19.5948 H         1 RES1    0.0000
     25 C14       -1.0089    0.9458   21.4908 C.ar      1 RES1    0.0000
     26 N2         0.3889    0.7122   21.1158 N.pl3     1 RES1    0.0000
     27 O1         0.7886    1.2043   20.0740 O.2       1 RES1    0.0000
     28 O2         1.0724    0.0077   21.8394 O.2       1 RES1    0.0000
@<TRIPOS>BOND
     1    1    2 1
     2    2    3 1
     3    4    2 2
     4    5    4 1
     5    6    4 1
     6    7    6 ar
     7    8    7 1
     8    9    7 ar
     9   10    9 1
    10   11    9 ar
    11   12   11 1
    12   13   11 ar
    13   14   13 1
    14   15    1 1
    15   16    1 1
    16   17   16 ar
    17   18   17 1
    18   19   17 ar
    19   20   19 1
    20   21   19 ar
    21   22   21 1
    22   23   21 ar
    23   24   23 1
    24   25   16 ar
    25   26   25 1
    26   27   26 2
    27   28   26 2
    28    6   15 ar
    29   13   15 ar
    30   23   25 ar
@<TRIPOS>SUBSTRUCTURE
     1 RES1 1

@<TRIPOS>CRYSIN
   7.7628    7.7446   38.0630  90.0000  90.0000  90.0000  61 1

