# MOL2 file generated by ConQuest
# Please check atom types

@<TRIPOS>MOLECULE
PELGET
    16    17     1
SMALL
NO_CHARGES
****
Generated from CSD

@<TRIPOS>ATOM
      1 N1         3.2847   -0.1266    0.7600 N.2       1 RES1    0.0000
      2 O1         3.2857    1.2687    0.9285 O.3       1 RES1    0.0000
      3 C1         4.3139    1.6712    1.7021 C.2       1 RES1    0.0000
      4 C2         4.4602    3.1117    1.9568 C.3       1 RES1    0.0000
      5 H1         4.7483    3.5559    1.1440 H         1 RES1    0.0000
      6 H2         5.1202    3.2520    2.6534 H         1 RES1    0.0000
      7 H3         3.6084    3.4784    2.2409 H         1 RES1    0.0000
      8 C3         5.0231    0.5588    2.0717 C.2       1 RES1    0.0000
      9 C4         6.1593    0.2884    2.8732 C.2       1 RES1    0.0000
     10 H4         6.6348    0.9755    3.3035 H         1 RES1    0.0000
     11 C5         6.5236   -1.0091    2.9873 C.2       1 RES1    0.0000
     12 H5         7.2644   -1.2441    3.5169 H         1 RES1    0.0000
     13 C6         5.7842   -2.0234    2.3015 C.2       1 RES1    0.0000
     14 H6         6.0900   -2.9076    2.3943 H         1 RES1    0.0000
     15 N2         4.7201   -1.8408    1.5565 N.2       1 RES1    0.0000
     16 C7         4.3463   -0.5235    1.4544 C.2       1 RES1    0.0000
@<TRIPOS>BOND
     1    1    2 1
     2    2    3 1
     3    3    4 1
     4    4    5 1
     5    6    4 1
     6    7    4 1
     7    8    3 2
     8    9    8 1
     9   10    9 1
    10   11    9 2
    11   12   11 1
    12   13   11 1
    13   14   13 1
    14   15   13 2
    15   16    1 2
    16    8   16 1
    17   15   16 1
@<TRIPOS>SUBSTRUCTURE
     1 RES1 1

@<TRIPOS>CRYSIN
  10.2490    8.6100    7.3365  90.0000 103.4090  90.0000 231 1

