# MOL2 file generated by ConQuest
# Please check atom types

@<TRIPOS>MOLECULE
PELJOH
    46    48     1
SMALL
NO_CHARGES
****
Generated from CSD

@<TRIPOS>ATOM
      1 C1        -1.2089    6.2844    4.5591 C.ar      1 RES1    0.0000
      2 N1        -2.2464    5.5388    5.2078 N.pl3     1 RES1    0.0000
      3 C2         0.7049    6.5534    3.1217 C.ar      1 RES1    0.0000
      4 H1         1.3457    6.1894    2.5543 H         1 RES1    0.0000
      5 N2        -0.1594    4.3517    3.5012 N.3       1 RES1    0.0000
      6 C3        -0.2512    8.4619    4.2301 C.ar      1 RES1    0.0000
      7 C4        -0.2130    5.6797    3.7143 C.ar      1 RES1    0.0000
      8 N3         1.6330    8.7109    2.6995 N.3       1 RES1    0.0000
      9 C5        -1.1798    7.6366    4.8074 C.ar      1 RES1    0.0000
     10 H2        -1.8104    8.0021    5.3849 H         1 RES1    0.0000
     11 O1        -2.3714    4.3356    4.9555 O.2       1 RES1    0.0000
     12 C6         0.7248    7.9343    3.3251 C.ar      1 RES1    0.0000
     13 N4        -0.2988    9.8503    4.6065 N.pl3     1 RES1    0.0000
     14 O2        -2.9873    6.1042    6.0054 O.2       1 RES1    0.0000
     15 O3         0.4072   10.6650    4.0061 O.2       1 RES1    0.0000
     16 O4        -1.0162   10.1901    5.5323 O.2       1 RES1    0.0000
     17 C7         0.9416    3.6253    2.8804 C.3       1 RES1    0.0000
     18 H3         1.1000    2.8126    3.3851 H         1 RES1    0.0000
     19 H4         1.7431    4.1687    2.9408 H         1 RES1    0.0000
     20 C8         2.6352    8.2087    1.7899 C.3       1 RES1    0.0000
     21 H5         3.0696    7.4445    2.2011 H         1 RES1    0.0000
     22 H6         3.3096    8.8942    1.6646 H         1 RES1    0.0000
     23 C9         0.7159    3.2566    1.4291 C.ar      1 RES1    0.0000
     24 C10        2.1135    7.7924    0.4299 C.ar      1 RES1    0.0000
     25 C11        0.8566    8.1295   -0.0313 C.ar      1 RES1    0.0000
     26 H7         0.2789    8.6127    0.5147 H         1 RES1    0.0000
     27 C12        0.4487    7.7563   -1.2990 C.ar      1 RES1    0.0000
     28 H8        -0.4078    7.9660   -1.5924 H         1 RES1    0.0000
     29 C13        0.7336    1.5851   -0.3029 C.ar      1 RES1    0.0000
     30 H9         0.8667    0.7021   -0.5631 H         1 RES1    0.0000
     31 C14        0.3867    2.5277   -1.2373 C.ar      1 RES1    0.0000
     32 H10        0.2806    2.2900   -2.1298 H         1 RES1    0.0000
     33 C15        0.8863    1.9422    1.0293 C.ar      1 RES1    0.0000
     34 H11        1.1049    1.2931    1.6589 H         1 RES1    0.0000
     35 C16        1.3027    7.0789   -2.1175 C.ar      1 RES1    0.0000
     36 H12        1.0436    6.8621   -2.9835 H         1 RES1    0.0000
     37 C17        0.2029    3.7905   -0.8470 C.ar      1 RES1    0.0000
     38 H13       -0.0326    4.4337   -1.4765 H         1 RES1    0.0000
     39 C18        0.3559    4.1612    0.4776 C.ar      1 RES1    0.0000
     40 H14        0.2094    5.0460    0.7226 H         1 RES1    0.0000
     41 C19        2.5283    6.7216   -1.6693 C.ar      1 RES1    0.0000
     42 H15        3.1033    6.2456   -2.2238 H         1 RES1    0.0000
     43 C20        2.9289    7.0603   -0.3903 C.ar      1 RES1    0.0000
     44 H16        3.7636    6.7884   -0.0836 H         1 RES1    0.0000
     45 H17       -0.8424    3.8869    3.8267 H         1 RES1    0.0000
     46 H18        1.5171    9.5773    2.8676 H         1 RES1    0.0000
@<TRIPOS>BOND
     1    1    2 1
     2    2   11 2
     3    3    4 1
     4    5    7 1
     5    6    9 ar
     6    7    1 ar
     7    8   12 1
     8    9    1 ar
     9   10    9 1
    10   12    3 ar
    11   13    6 1
    12   14    2 2
    13   15   13 2
    14   16   13 2
    15   17    5 1
    16   18   17 1
    17   19   17 1
    18   20    8 1
    19   21   20 1
    20   22   20 1
    21   23   17 1
    22   24   20 1
    23   25   24 ar
    24   26   25 1
    25   27   25 ar
    26   28   27 1
    27   29   30 1
    28   31   29 ar
    29   32   31 1
    30   33   23 ar
    31   34   33 1
    32   35   27 ar
    33   36   35 1
    34   37   31 ar
    35   38   37 1
    36   39   23 ar
    37   40   39 1
    38   41   35 ar
    39   42   41 1
    40   43   24 ar
    41   44   43 1
    42   45    5 1
    43   46    8 1
    44    3    7 ar
    45    6   12 ar
    46   29   33 ar
    47   37   39 ar
    48   41   43 ar
@<TRIPOS>SUBSTRUCTURE
     1 RES1 1

@<TRIPOS>CRYSIN
   9.6792   10.0246   10.2564 108.1400  97.4150 104.5810   2 1

