# MOL2 file generated by ConQuest
# Please check atom types

@<TRIPOS>MOLECULE
PELMID
    32    33     1
SMALL
NO_CHARGES
****
Generated from CSD

@<TRIPOS>ATOM
      1 O1         5.9579    4.5576    0.3989 O.2       1 RES1    0.0000
      2 O2         7.6182    5.9298    0.2610 O.2       1 RES1    0.0000
      3 O3         2.6162   -4.1116    5.4868 O.2       1 RES1    0.0000
      4 O4         1.6978   -5.2951    3.9322 O.2       1 RES1    0.0000
      5 N1         5.3894    1.9714    3.2312 N.2       1 RES1    0.0000
      6 N2         6.8873    5.1810    0.9020 N.pl3     1 RES1    0.0000
      7 N3         4.8685    0.8722    2.5238 N.2       1 RES1    0.0000
      8 N4         2.3134   -4.3016    4.3195 N.pl3     1 RES1    0.0000
      9 C1         6.6961    3.9393    3.0644 C.ar      1 RES1    0.0000
     10 C2         7.1193    5.0682    2.3461 C.ar      1 RES1    0.0000
     11 C3         7.7417    6.1546    2.9485 C.ar      1 RES1    0.0000
     12 C4         7.9438    6.1454    4.3225 C.ar      1 RES1    0.0000
     13 C5         7.5373    5.0469    5.0657 C.ar      1 RES1    0.0000
     14 C6         6.9397    3.9754    4.4526 C.ar      1 RES1    0.0000
     15 C7         6.0760    2.7486    2.4811 C.2       1 RES1    0.0000
     16 C8         3.6274   -1.1644    2.8369 C.ar      1 RES1    0.0000
     17 C9         3.2830   -2.1381    3.7728 C.ar      1 RES1    0.0000
     18 C10        2.6827   -3.2940    3.3309 C.ar      1 RES1    0.0000
     19 C11        2.3912   -3.5329    1.9929 C.ar      1 RES1    0.0000
     20 C12        2.7246   -2.5515    1.0760 C.ar      1 RES1    0.0000
     21 C13        3.3288   -1.3807    1.4839 C.ar      1 RES1    0.0000
     22 C14        4.2717    0.0574    3.3114 C.2       1 RES1    0.0000
     23 H1         8.0250    6.8957    2.4265 H         1 RES1    0.0000
     24 H2         8.3574    6.8857    4.7503 H         1 RES1    0.0000
     25 H3         7.6735    5.0363    6.0058 H         1 RES1    0.0000
     26 H4         6.6814    3.2308    4.9823 H         1 RES1    0.0000
     27 H5         6.1823    2.5557    1.5564 H         1 RES1    0.0000
     28 H6         3.4593   -2.0062    4.6971 H         1 RES1    0.0000
     29 H7         1.9771   -4.3428    1.7172 H         1 RES1    0.0000
     30 H8         2.5345   -2.6862    0.1547 H         1 RES1    0.0000
     31 H9         3.5441   -0.7141    0.8423 H         1 RES1    0.0000
     32 H10        4.2472    0.2553    4.2403 H         1 RES1    0.0000
@<TRIPOS>BOND
     1    1    6 2
     2    2    6 2
     3    3    8 2
     4    4    8 2
     5    5    7 1
     6    6   10 1
     7    7   22 2
     8    8   18 1
     9    9   10 ar
    10   10   11 ar
    11   11   12 ar
    12   12   13 ar
    13   13   14 ar
    14   14    9 ar
    15   15    5 2
    16   16   17 ar
    17   17   18 ar
    18   18   19 ar
    19   19   20 ar
    20   20   21 ar
    21   21   16 ar
    22   22   16 1
    23   23   11 1
    24   24   12 1
    25   25   13 1
    26   26   14 1
    27   27   15 1
    28   28   17 1
    29   29   19 1
    30   30   20 1
    31   31   21 1
    32   32   22 1
    33    9   15 1
@<TRIPOS>SUBSTRUCTURE
     1 RES1 1

@<TRIPOS>CRYSIN
   7.8036    7.0914   12.3424  90.0000 101.7420  90.0000   4 1

