# MOL2 file generated by ConQuest
# Please check atom types

@<TRIPOS>MOLECULE
PELTIM
    20    20     1
SMALL
NO_CHARGES
****
Generated from CSD

@<TRIPOS>ATOM
      1 O1         6.7041    4.9270    1.2750 O.2       1 RES1    0.0000
      2 O2         4.7752    3.9233    1.2005 O.2       1 RES1    0.0000
      3 O3         5.0315    1.6849   -0.9822 O.2       1 RES1    0.0000
      4 O4         4.1106    3.5552   -1.5636 O.2       1 RES1    0.0000
      5 O5         6.2978    5.9503   -1.2018 O.2       1 RES1    0.0000
      6 O6         6.5449    4.4617   -2.7591 O.2       1 RES1    0.0000
      7 N1         7.5380    2.2042    0.7338 N.ar      1 RES1    0.0000
      8 N2         5.8611    4.2285    0.7467 N.pl3     1 RES1    0.0000
      9 N3         5.0140    2.8829   -1.1117 N.pl3     1 RES1    0.0000
     10 N4         6.3786    4.8135   -1.6028 N.pl3     1 RES1    0.0000
     11 C1         8.5881    1.4096    0.9648 C.ar      1 RES1    0.0000
     12 H1         8.6462    0.9698    1.8048 H         1 RES1    0.0000
     13 C2         9.5960    1.1968    0.0360 C.ar      1 RES1    0.0000
     14 H2        10.3400    0.6445    0.2476 H         1 RES1    0.0000
     15 C3         9.5011    1.7991   -1.1954 C.ar      1 RES1    0.0000
     16 H3        10.1693    1.6531   -1.8556 H         1 RES1    0.0000
     17 C4         8.4152    2.6242   -1.4642 C.ar      1 RES1    0.0000
     18 H4         8.3200    3.0543   -2.3062 H         1 RES1    0.0000
     19 C5         7.4824    2.7963   -0.4677 C.ar      1 RES1    0.0000
     20 C6         6.2460    3.6588   -0.6176 C.3       1 RES1    0.0000
@<TRIPOS>BOND
     1    1    8 2
     2    2    8 2
     3    3    9 2
     4    4    9 2
     5    5   10 2
     6    6   10 2
     7    7   11 ar
     8    8   20 1
     9    9   20 1
    10   10   20 1
    11   11   12 1
    12   13   11 ar
    13   14   13 1
    14   15   13 ar
    15   16   15 1
    16   17   15 ar
    17   18   17 1
    18   19    7 ar
    19   20   19 1
    20   17   19 ar
@<TRIPOS>SUBSTRUCTURE
     1 RES1 1

@<TRIPOS>CRYSIN
   8.0672   10.4960   11.2340  90.0000 109.6600  90.0000  14 1

