# MOL2 file generated by ConQuest
# Please check atom types

@<TRIPOS>MOLECULE
PEMCEQ
    32    32     1
SMALL
NO_CHARGES
****
Generated from CSD

@<TRIPOS>ATOM
      1 O1         2.1465    2.7560   17.2796 O.2       1 RES1    0.0000
      2 O2         3.1663    3.7803   18.8802 O.2       1 RES1    0.0000
      3 N1         2.0433   -1.3115   25.2992 N.3       1 RES1    0.0000
      4 N2         2.5073    2.8315   18.4553 N.pl3     1 RES1    0.0000
      5 C1         2.1513   -0.5664   24.1558 C.ar      1 RES1    0.0000
      6 C2         3.2594    0.3001   23.9534 C.ar      1 RES1    0.0000
      7 C3         3.3578    1.0401   22.7892 C.ar      1 RES1    0.0000
      8 C4         2.4202    0.9657   21.7583 C.ar      1 RES1    0.0000
      9 C5         1.3133    0.1192   21.9733 C.ar      1 RES1    0.0000
     10 C6         1.1809   -0.6295   23.1377 C.ar      1 RES1    0.0000
     11 C7         2.6200    1.8195   20.6041 C.2       1 RES1    0.0000
     12 C8         2.1012    1.7538   19.3649 C.2       1 RES1    0.0000
     13 C9         2.9254   -1.0815   26.4321 C.3       1 RES1    0.0000
     14 C10        0.8898   -2.1723   25.4994 C.3       1 RES1    0.0000
     15 C11        1.1892    0.7270   18.7568 C.3       1 RES1    0.0000
     16 C12       -0.2678    1.1837   18.7270 C.3       1 RES1    0.0000
     17 H1         3.9649    0.3794   24.6580 H         1 RES1    0.0000
     18 H2         4.1391    1.6544   22.6818 H         1 RES1    0.0000
     19 H3         0.6036    0.0583   21.2703 H         1 RES1    0.0000
     20 H4         0.3835   -1.2209   23.2534 H         1 RES1    0.0000
     21 H5         3.2486    2.5829   20.7520 H         1 RES1    0.0000
     22 H6         2.6940   -1.7152   27.1710 H         1 RES1    0.0000
     23 H7         2.8168   -0.1411   26.7545 H         1 RES1    0.0000
     24 H8         3.8731   -1.2294   26.1505 H         1 RES1    0.0000
     25 H9         0.9727   -2.6370   26.3819 H         1 RES1    0.0000
     26 H10        0.0549   -1.6222   25.4887 H         1 RES1    0.0000
     27 H11        0.8499   -2.8524   24.7667 H         1 RES1    0.0000
     28 H12        1.2501   -0.1149   19.2941 H         1 RES1    0.0000
     29 H13        1.4898    0.5475   17.8201 H         1 RES1    0.0000
     30 H14       -0.8308    0.4681   18.3130 H         1 RES1    0.0000
     31 H15       -0.5833    1.3595   19.6597 H         1 RES1    0.0000
     32 H16       -0.3441    2.0210   18.1857 H         1 RES1    0.0000
@<TRIPOS>BOND
     1    1    4 2
     2    2    4 2
     3    3    5 1
     4    4   12 1
     5    5    6 ar
     6    6    7 ar
     7    7    8 ar
     8    8    9 ar
     9    9   10 ar
    10   10    5 ar
    11   11    8 1
    12   12   11 2
    13   13    3 1
    14   14    3 1
    15   15   12 1
    16   16   15 1
    17   17    6 1
    18   18    7 1
    19   19    9 1
    20   20   10 1
    21   21   11 1
    22   22   13 1
    23   23   13 1
    24   24   13 1
    25   25   14 1
    26   26   14 1
    27   27   14 1
    28   28   15 1
    29   29   15 1
    30   30   16 1
    31   31   16 1
    32   32   16 1
@<TRIPOS>SUBSTRUCTURE
     1 RES1 1

@<TRIPOS>CRYSIN
   5.9641    8.4492   23.1400  90.0000  90.0000  90.0000  19 1

