# MOL2 file generated by ConQuest
# Please check atom types

@<TRIPOS>MOLECULE
PEMCAM06
    26    26     1
SMALL
NO_CHARGES
****
Generated from CSD

@<TRIPOS>ATOM
      1 N1         9.2507    1.6775   17.1578 N.3       1 RES1    0.0000
      2 C1         9.2847    1.5753   15.8027 C.ar      1 RES1    0.0000
      3 C2         9.3868    1.4389   12.9542 C.ar      1 RES1    0.0000
      4 C3         8.4485    0.7224   13.6841 C.ar      1 RES1    0.0000
      5 H1         7.8421    0.1842   13.2287 H         1 RES1    0.0000
      6 C4        10.2520    2.2724   15.0414 C.ar      1 RES1    0.0000
      7 H2        10.8810    2.7995   15.4794 H         1 RES1    0.0000
      8 C5         8.3835    0.7798   15.0698 C.ar      1 RES1    0.0000
      9 H3         7.7369    0.2863   15.5199 H         1 RES1    0.0000
     10 C6        10.2809    2.1889   13.6813 C.ar      1 RES1    0.0000
     11 H4        10.9377    2.6616   13.2236 H         1 RES1    0.0000
     12 C7        10.2767    2.3984   17.8869 C.3       1 RES1    0.0000
     13 H5        10.0860    2.3626   18.8265 H         1 RES1    0.0000
     14 H6        10.2912    3.3132   17.5985 H         1 RES1    0.0000
     15 H7        11.1316    1.9958   17.7175 H         1 RES1    0.0000
     16 C8         9.5178    1.4605   11.4574 C.2       1 RES1    0.0000
     17 H8        10.1973    1.9899   11.1070 H         1 RES1    0.0000
     18 C9         8.2979    0.9096   17.9419 C.3       1 RES1    0.0000
     19 H9         8.4186    1.1057   18.8746 H         1 RES1    0.0000
     20 H10        8.4412   -0.0276   17.7910 H         1 RES1    0.0000
     21 H11        7.4049    1.1429   17.6770 H         1 RES1    0.0000
     22 O1         9.9612    1.6477    8.7289 O.2       1 RES1    0.0000
     23 N2         9.0579    0.9640    9.2274 N.pl3     1 RES1    0.0000
     24 C10        8.8156    0.8462   10.6447 C.2       1 RES1    0.0000
     25 H12        8.1247    0.3042   10.9500 H         1 RES1    0.0000
     26 O2         8.2917    0.2952    8.5534 O.2       1 RES1    0.0000
@<TRIPOS>BOND
     1    1    2 1
     2    2    6 ar
     3    3    4 ar
     4    4    5 1
     5    6    7 1
     6    8    2 ar
     7    9    8 1
     8   10    3 ar
     9   11   10 1
    10   12    1 1
    11   13   12 1
    12   14   12 1
    13   15   12 1
    14   16    3 1
    15   17   16 1
    16   18    1 1
    17   19   18 1
    18   20   18 1
    19   21   18 1
    20   22   23 2
    21   23   24 1
    22   24   16 2
    23   25   24 1
    24   26   23 2
    25    4    8 ar
    26    6   10 ar
@<TRIPOS>SUBSTRUCTURE
     1 RES1 1

@<TRIPOS>CRYSIN
  10.3118    7.4555   25.3180  90.0000  90.0000  90.0000  61 1

