# MOL2 file generated by ConQuest
# Please check atom types

@<TRIPOS>MOLECULE
PEMKEA
    21    21     1
SMALL
NO_CHARGES
****
Generated from CSD

@<TRIPOS>ATOM
      1 N1         7.3589    9.3336    0.9673 N.ar      1 RES1    0.0000
      2 N2         8.9460   11.8315    2.8710 N.pl3     1 RES1    0.0000
      3 O1         9.3348   11.9211    4.0227 O.2       1 RES1    0.0000
      4 N3        10.5989   10.3130    1.8830 N.pl3     1 RES1    0.0000
      5 N4         8.6836    9.4243    3.2545 N.pl3     1 RES1    0.0000
      6 O2         7.6466    9.7064    3.8261 O.2       1 RES1    0.0000
      7 O3         8.4883   12.7170    2.1826 O.2       1 RES1    0.0000
      8 O4         9.3610    8.4333    3.3908 O.2       1 RES1    0.0000
      9 O5        10.9080    9.2832    1.3236 O.2       1 RES1    0.0000
     10 O6        11.3289   11.2395    2.1679 O.2       1 RES1    0.0000
     11 C1         8.2960   10.2776    0.9287 C.ar      1 RES1    0.0000
     12 C2         6.9009    9.8604   -1.3474 C.ar      1 RES1    0.0000
     13 H1         6.3980    9.6923   -2.1119 H         1 RES1    0.0000
     14 C3         8.6127   11.0464   -0.1866 C.ar      1 RES1    0.0000
     15 H2         9.2846   11.6885   -0.1533 H         1 RES1    0.0000
     16 C4         5.6452    8.1228   -0.1243 C.1       1 RES1    0.0000
     17 C5         7.8935   10.8242   -1.3484 C.ar      1 RES1    0.0000
     18 H3         8.0742   11.3148   -2.1176 H         1 RES1    0.0000
     19 N5         4.8272    7.3177   -0.0859 N.1       1 RES1    0.0000
     20 C6         6.6737    9.1490   -0.1749 C.ar      1 RES1    0.0000
     21 C7         9.1000   10.4539    2.2057 C.3       1 RES1    0.0000
@<TRIPOS>BOND
     1    1   11 ar
     2    2    3 2
     3    4    9 2
     4    5    6 2
     5    7    2 2
     6    8    5 2
     7   10    4 2
     8   11   14 ar
     9   12   13 1
    10   14   15 1
    11   16   19 3
    12   17   12 ar
    13   18   17 1
    14   20    1 ar
    15   21    2 1
    16    4   21 1
    17    5   21 1
    18   11   21 1
    19   12   20 ar
    20   14   17 ar
    21   16   20 1
@<TRIPOS>SUBSTRUCTURE
     1 RES1 1

@<TRIPOS>CRYSIN
  11.2611   10.6182    8.2766  90.0000  95.4060  90.0000  14 1

