# MOL2 file generated by ConQuest
# Please check atom types

@<TRIPOS>MOLECULE
PENCIU
    40    42     1
SMALL
NO_CHARGES
****
Generated from CSD

@<TRIPOS>ATOM
      1 O1         9.1985    0.0736    5.0407 O.2       1 RES1    0.0000
      2 O2         5.7191    0.5752    8.0392 O.3       1 RES1    0.0000
      3 N1         9.9560    0.8752    5.7505 N.pl3     1 RES1    0.0000
      4 C1         9.6138    1.3584    6.9235 C.2       1 RES1    0.0000
      5 C2         8.3958    1.0800    7.5847 C.2       1 RES1    0.0000
      6 C3         8.1660    1.7016    8.7718 C.2       1 RES1    0.0000
      7 C4         7.0655    1.6576    9.6718 C.ar      1 RES1    0.0000
      8 C5         5.8493    1.1064    9.2965 C.ar      1 RES1    0.0000
      9 C6         4.6858    1.1920   10.1415 C.ar      1 RES1    0.0000
     10 C7         4.8269    1.7432   11.3592 C.ar      1 RES1    0.0000
     11 C8         6.0330    2.2936   11.8060 C.ar      1 RES1    0.0000
     12 C9         6.1701    2.8768   13.0901 C.ar      1 RES1    0.0000
     13 C10        7.3367    3.3992   13.5126 C.ar      1 RES1    0.0000
     14 C11        8.4577    3.2992   12.6829 C.ar      1 RES1    0.0000
     15 C12        8.3500    2.7480   11.4945 C.ar      1 RES1    0.0000
     16 C13        7.1591    2.2320   10.9406 C.ar      1 RES1    0.0000
     17 C14       11.2642    1.0920    5.1556 C.ar      1 RES1    0.0000
     18 C15       12.3866    1.1800    5.9407 C.ar      1 RES1    0.0000
     19 C16       13.6297    1.3200    5.3331 C.ar      1 RES1    0.0000
     20 C17       13.7222    1.3896    4.0081 C.ar      1 RES1    0.0000
     21 C18       15.0301    1.5032    3.2984 C.3       1 RES1    0.0000
     22 C19       12.6066    1.4528    3.2269 C.ar      1 RES1    0.0000
     23 C20       11.3570    1.3080    3.7885 C.ar      1 RES1    0.0000
     24 H1        10.2428    1.9440    7.3652 H         1 RES1    0.0000
     25 H2         7.7510    0.4720    7.2120 H         1 RES1    0.0000
     26 H3         8.8932    2.2800    9.0246 H         1 RES1    0.0000
     27 H4         3.8393    0.8640    9.8415 H         1 RES1    0.0000
     28 H5         4.0720    1.7600   11.9477 H         1 RES1    0.0000
     29 H6         5.4066    3.0160   13.4667 H         1 RES1    0.0000
     30 H7         7.3952    3.7200   14.3474 H         1 RES1    0.0000
     31 H8         9.2854    3.6320   12.9816 H         1 RES1    0.0000
     32 H9         9.1238    2.6960   10.9648 H         1 RES1    0.0000
     33 H10       12.3617    1.1040    7.0205 H         1 RES1    0.0000
     34 H11       14.5271    1.2720    5.9866 H         1 RES1    0.0000
     35 H12       15.8049    1.4320    3.8932 H         1 RES1    0.0000
     36 H13       15.1206    0.7360    2.6167 H         1 RES1    0.0000
     37 H14       15.1529    2.3200    2.8465 H         1 RES1    0.0000
     38 H15       12.6905    1.6000    2.2976 H         1 RES1    0.0000
     39 H16       10.4841    1.3680    3.1912 H         1 RES1    0.0000
     40 H17        4.6004    0.2400    7.8885 H         1 RES1    0.0000
@<TRIPOS>BOND
     1    1    3 1
     2    2    8 1
     3    3    4 2
     4    4    5 1
     5    5    6 2
     6    6    7 1
     7    7    8 ar
     8    8    9 ar
     9    9   10 ar
    10   10   11 ar
    11   11   12 ar
    12   12   13 ar
    13   13   14 ar
    14   14   15 ar
    15   15   16 ar
    16   16    7 ar
    17   17    3 1
    18   18   17 ar
    19   19   18 ar
    20   20   19 ar
    21   21   20 1
    22   22   20 ar
    23   23   17 ar
    24   24    4 1
    25   25    5 1
    26   26    6 1
    27   27    9 1
    28   28   10 1
    29   29   12 1
    30   30   13 1
    31   31   14 1
    32   32   15 1
    33   33   18 1
    34   34   19 1
    35   35   21 1
    36   36   21 1
    37   37   21 1
    38   38   22 1
    39   39   23 1
    40   40    2 1
    41   11   16 ar
    42   22   23 ar
@<TRIPOS>SUBSTRUCTURE
     1 RES1 1

@<TRIPOS>CRYSIN
  15.9370    8.0000   13.2400  90.0000 105.4000  90.0000  14 2

