# MOL2 file generated by ConQuest
# Please check atom types

@<TRIPOS>MOLECULE
PENHAT
    30    32     1
SMALL
NO_CHARGES
****
Generated from CSD

@<TRIPOS>ATOM
      1 O1        -3.7827    0.0160   12.2012 O.2       1 RES1    0.0000
      2 O2        -1.2796    5.8438    9.2601 O.2       1 RES1    0.0000
      3 O3        -0.2954    4.5298    7.8463 O.2       1 RES1    0.0000
      4 N1        -3.9788    2.1662   11.3888 N.am      1 RES1    0.0000
      5 N2        -1.2321    4.8210    8.5874 N.pl3     1 RES1    0.0000
      6 C1        -3.7522    0.8009   11.2667 C.2       1 RES1    0.0000
      7 C2        -3.5036    0.5197    9.8351 C.2       1 RES1    0.0000
      8 C3        -3.7685    1.6115    9.1233 C.2       1 RES1    0.0000
      9 C4        -3.6324    1.9348    7.6817 C.3       1 RES1    0.0000
     10 C5        -2.4718    2.9449    7.4705 C.3       1 RES1    0.0000
     11 C6        -2.3397    3.8463    8.6728 C.2       1 RES1    0.0000
     12 C7        -3.0412    3.8330    9.8006 C.2       1 RES1    0.0000
     13 C8        -4.0870    2.7631   10.0460 C.3       1 RES1    0.0000
     14 C9        -5.4840    3.3516   10.0547 C.2       1 RES1    0.0000
     15 C10       -6.0055    3.2843   11.2717 C.2       1 RES1    0.0000
     16 C11       -5.0715    2.6391   12.2617 C.3       1 RES1    0.0000
     17 C12       -2.7379    3.7410    6.2131 C.2       1 RES1    0.0000
     18 C13       -2.0467    3.6220    5.1008 C.2       1 RES1    0.0000
     19 H1        -3.2448   -0.3280    9.5135 H         1 RES1    0.0000
     20 H2        -4.4819    2.3561    7.3706 H         1 RES1    0.0000
     21 H3        -3.4417    1.1535    7.1477 H         1 RES1    0.0000
     22 H4        -1.6172    2.4535    7.3538 H         1 RES1    0.0000
     23 H5        -2.8839    4.4718   10.4734 H         1 RES1    0.0000
     24 H6        -5.8679    3.7775    9.2737 H         1 RES1    0.0000
     25 H7        -6.8752    3.6277   11.5245 H         1 RES1    0.0000
     26 H8        -4.7579    3.2899   12.9115 H         1 RES1    0.0000
     27 H9        -5.4407    1.8565   12.7500 H         1 RES1    0.0000
     28 H10       -3.4930    4.3460    6.2561 H         1 RES1    0.0000
     29 H11       -1.2861    3.0078    5.0178 H         1 RES1    0.0000
     30 H12       -2.2675    4.0989    4.3302 H         1 RES1    0.0000
@<TRIPOS>BOND
     1    1    6 2
     2    2    5 2
     3    3    5 2
     4    4    6 1
     5    5   11 1
     6    6    7 1
     7    7    8 2
     8    8    9 1
     9    9   10 1
    10   10   11 1
    11   11   12 2
    12   12   13 1
    13   13    4 1
    14   14   13 1
    15   15   14 2
    16   16    4 1
    17   17   10 1
    18   18   17 2
    19   19    7 1
    20   20    9 1
    21   21    9 1
    22   22   10 1
    23   23   12 1
    24   24   14 1
    25   25   15 1
    26   26   16 1
    27   27   16 1
    28   28   17 1
    29   29   18 1
    30   30   18 1
    31    8   13 1
    32   15   16 1
@<TRIPOS>SUBSTRUCTURE
     1 RES1 1

@<TRIPOS>CRYSIN
  10.5663   10.9334   11.1163  90.0000 116.9766  90.0000 231 1

