# MOL2 file generated by ConQuest
# Please check atom types

@<TRIPOS>MOLECULE
PENLOM
    31    33     1
SMALL
NO_CHARGES
****
Generated from CSD

@<TRIPOS>ATOM
      1 O1         7.4769    6.7912    6.4794 O.2       1 RES1    0.0000
      2 O2         7.9300    6.6033    1.9981 O.2       1 RES1    0.0000
      3 O3         6.6741    4.7739    7.7849 O.3       1 RES1    0.0000
      4 O4         6.2713    2.9355    4.0218 O.2       1 RES1    0.0000
      5 N1         7.6384    6.6836    4.2497 N.am      1 RES1    0.0000
      6 N2         7.1249    4.7537    3.0419 N.am      1 RES1    0.0000
      7 C1         6.0058    2.7749    7.0190 C.ar      1 RES1    0.0000
      8 C2         7.3278    6.0900    5.4721 C.2       1 RES1    0.0000
      9 C3         6.8625    4.7311    5.4471 C.2       1 RES1    0.0000
     10 C4         6.5193    4.0505    6.6456 C.2       1 RES1    0.0000
     11 N3         6.1947    4.0236    8.8570 N.pl3     1 RES1    0.0000
     12 C5         7.5902    6.0470    3.0254 C.2       1 RES1    0.0000
     13 C6         5.8422    2.8228    8.4179 C.ar      1 RES1    0.0000
     14 C7         6.7159    4.0584    4.1847 C.2       1 RES1    0.0000
     15 C8         5.3453    1.7570    9.1756 C.ar      1 RES1    0.0000
     16 H1         5.2399    1.8244   10.0972 H         1 RES1    0.0000
     17 C9         5.6601    1.5732    6.3693 C.ar      1 RES1    0.0000
     18 H2         5.7503    1.4924    5.4472 H         1 RES1    0.0000
     19 C10        5.0231    0.6236    8.5095 C.ar      1 RES1    0.0000
     20 H3         4.6864   -0.1045    8.9804 H         1 RES1    0.0000
     21 C11        8.0789    8.0804    4.2646 C.3       1 RES1    0.0000
     22 H4         8.9867    8.1266    4.5752 H         1 RES1    0.0000
     23 H5         7.5144    8.5881    4.8523 H         1 RES1    0.0000
     24 H6         8.0258    8.4429    3.3776 H         1 RES1    0.0000
     25 C12        5.1914    0.5305    7.1128 C.ar      1 RES1    0.0000
     26 H7         4.9768   -0.2673    6.6856 H         1 RES1    0.0000
     27 C13        7.0197    4.0435    1.7659 C.3       1 RES1    0.0000
     28 H8         7.3913    4.5856    1.0663 H         1 RES1    0.0000
     29 H9         6.0964    3.8631    1.5751 H         1 RES1    0.0000
     30 H10        7.5029    3.2155    1.8199 H         1 RES1    0.0000
     31 H11        6.4072    4.2806    9.7029 H         1 RES1    0.0000
@<TRIPOS>BOND
     1    1    8 2
     2    2   12 2
     3    3   10 1
     4    4   14 2
     5    5    8 1
     6    6   12 1
     7    7   10 1
     8    8    9 1
     9    9   10 2
    10   11    3 1
    11   12    5 1
    12   13    7 ar
    13   14    6 1
    14   15   13 ar
    15   16   15 1
    16   17    7 ar
    17   18   17 1
    18   19   15 ar
    19   20   19 1
    20   21    5 1
    21   22   21 1
    22   23   21 1
    23   24   21 1
    24   25   17 ar
    25   26   25 1
    26   27    6 1
    27   28   27 1
    28   29   27 1
    29   30   27 1
    30   31   11 1
    31    9   14 1
    32   11   13 1
    33   19   25 ar
@<TRIPOS>SUBSTRUCTURE
     1 RES1 1

@<TRIPOS>CRYSIN
   7.0991    9.0255    9.6355  83.3880  69.4750  89.4570   2 1

