# MOL2 file generated by ConQuest
# Please check atom types

@<TRIPOS>MOLECULE
PENPUU
    22    22     1
SMALL
NO_CHARGES
****
Generated from CSD

@<TRIPOS>ATOM
      1 O1         2.8101    6.6838    5.4091 O.3       1 RES1    0.0000
      2 O2         4.6673    5.0082    6.3014 O.2       1 RES1    0.0000
      3 O3         6.1115    6.6809    6.7183 O.3       1 RES1    0.0000
      4 O4        -0.0962   12.7300    3.8854 O.2       1 RES1    0.0000
      5 O5         1.4279   14.0702    4.6290 O.2       1 RES1    0.0000
      6 N1         1.0100   12.9386    4.3659 N.pl3     1 RES1    0.0000
      7 C1         1.8722   11.7940    4.6586 C.ar      1 RES1    0.0000
      8 C2         2.1306    9.4352    4.8169 C.ar      1 RES1    0.0000
      9 H1         1.7842    8.5573    4.7073 H         1 RES1    0.0000
     10 C3         3.9173   10.9179    5.4618 C.ar      1 RES1    0.0000
     11 H2         4.7997   11.0521    5.7866 H         1 RES1    0.0000
     12 C4         3.1468   12.0091    5.1280 C.ar      1 RES1    0.0000
     13 H3         3.4878   12.8912    5.2196 H         1 RES1    0.0000
     14 C5         3.4238    9.6100    5.3310 C.ar      1 RES1    0.0000
     15 C6         4.2839    8.5109    5.7480 C.2       1 RES1    0.0000
     16 H4         5.1582    8.7538    6.0294 H         1 RES1    0.0000
     17 C7         1.3565   10.5185    4.4697 C.ar      1 RES1    0.0000
     18 H5         0.4867   10.3964    4.1080 H         1 RES1    0.0000
     19 C8         4.0009    7.2000    5.7852 C.2       1 RES1    0.0000
     20 C9         4.9700    6.1994    6.2854 C.2       1 RES1    0.0000
     21 H6         6.6077    6.0000    6.9866 H         1 RES1    0.0000
     22 H7         2.8875    5.8143    5.4694 H         1 RES1    0.0000
@<TRIPOS>BOND
     1    1   19 1
     2    2   20 2
     3    3   20 1
     4    4    6 2
     5    5    6 2
     6    6    7 1
     7    7   12 ar
     8    8    9 1
     9   10   11 1
    10   12   10 ar
    11   13   12 1
    12   14    8 ar
    13   15   14 1
    14   16   15 1
    15   17    7 ar
    16   18   17 1
    17   19   15 2
    18   20   19 1
    19   21    3 1
    20   22    1 1
    21    8   17 ar
    22   10   14 ar
@<TRIPOS>SUBSTRUCTURE
     1 RES1 1

@<TRIPOS>CRYSIN
   6.2747    9.7720   14.0370  90.0000  90.9740  90.0000  14 1

