# MOL2 file generated by ConQuest
# Please check atom types

@<TRIPOS>MOLECULE
PEPHEX
    48    50     1
SMALL
USER_CHARGES
****
Generated from CSD

@<TRIPOS>ATOM
      1 O1         5.9866    3.2600    4.7143 O.2       1 RES1   -1.0000
      2 O2         1.9365    2.3862    4.5603 O.2       1 RES1    0.0000
      3 N1         5.1502    3.9999    3.8920 N.4       1 RES1    1.0000
      4 N2         3.8498    2.2334    5.7413 N.am      1 RES1    0.0000
      5 C1         5.8071    4.1664    2.5579 C.3       1 RES1    0.0000
      6 C2         5.6947    2.7965    1.9176 C.3       1 RES1    0.0000
      7 C3         4.4469    2.1699    2.5474 C.3       1 RES1    0.0000
      8 C4         3.9060    3.2068    3.5342 C.3       1 RES1    0.0000
      9 C5         3.1380    2.5922    4.6898 C.2       1 RES1    0.0000
     10 C6         3.2784    1.5296    6.8786 C.3       1 RES1    0.0000
     11 C7         4.3883    0.7382    7.5504 C.3       1 RES1    0.0000
     12 C8         4.8657    5.3269    4.5831 C.3       1 RES1    0.0000
     13 C9         4.1429    6.3432    3.7581 C.ar      1 RES1    0.0000
     14 C10        4.8449    7.2805    2.9997 C.ar      1 RES1    0.0000
     15 C11        4.1929    8.1972    2.2220 C.ar      1 RES1    0.0000
     16 C12        2.8156    8.2384    2.2159 C.ar      1 RES1    0.0000
     17 C13        2.1062    7.3475    2.9901 C.ar      1 RES1    0.0000
     18 C14        2.7607    6.4016    3.7494 C.ar      1 RES1    0.0000
     19 C15        2.5678    2.4463    7.8531 C.ar      1 RES1    0.0000
     20 C16        1.4896    1.9828    8.5695 C.ar      1 RES1    0.0000
     21 C17        0.8425    2.7639    9.5030 C.ar      1 RES1    0.0000
     22 C18        1.3004    4.0291    9.7636 C.ar      1 RES1    0.0000
     23 C19        2.3810    4.5166    9.0638 C.ar      1 RES1    0.0000
     24 C20        3.0098    3.7321    8.1068 C.ar      1 RES1    0.0000
     25 H1         5.4261    4.8308    2.0112 H         1 RES1    0.0000
     26 H2         6.7546    4.3656    2.6646 H         1 RES1    0.0000
     27 H3         5.5299    2.9029    0.9492 H         1 RES1    0.0000
     28 H4         6.4676    2.2798    2.0164 H         1 RES1    0.0000
     29 H5         3.8303    1.8678    1.8966 H         1 RES1    0.0000
     30 H6         4.7472    1.3545    3.0382 H         1 RES1    0.0000
     31 H7         3.2759    3.7664    3.0364 H         1 RES1    0.0000
     32 H8         2.6642    0.9030    6.5566 H         1 RES1    0.0000
     33 H9         4.0672    0.2918    8.3351 H         1 RES1    0.0000
     34 H10        4.7863    0.1202    6.9704 H         1 RES1    0.0000
     35 H11        5.0965    1.3528    7.8610 H         1 RES1    0.0000
     36 H12        4.3541    5.1158    5.4045 H         1 RES1    0.0000
     37 H13        5.7155    5.6685    4.9076 H         1 RES1    0.0000
     38 H14        5.8181    7.2445    2.9804 H         1 RES1    0.0000
     39 H15        4.6715    8.9200    1.7181 H         1 RES1    0.0000
     40 H16        2.2943    8.9217    1.7041 H         1 RES1    0.0000
     41 H17        1.1380    7.3526    3.0163 H         1 RES1    0.0000
     42 H18        2.2173    5.7578    4.2743 H         1 RES1    0.0000
     43 H19        1.1221    1.1004    8.3430 H         1 RES1    0.0000
     44 H20        0.0977    2.4652   10.0663 H         1 RES1    0.0000
     45 H21        0.8608    4.6265   10.3926 H         1 RES1    0.0000
     46 H22        2.6960    5.4093    9.2440 H         1 RES1    0.0000
     47 H23        3.8144    4.0995    7.6396 H         1 RES1    0.0000
     48 H24        4.8584    2.5338    5.8017 H         1 RES1    0.0000
@<TRIPOS>BOND
     1    1    3 1
     2    2    9 2
     3    3    5 1
     4    4    9 1
     5    5    6 1
     6    6    7 1
     7    7    8 1
     8    8    3 1
     9    9    8 1
    10   10    4 1
    11   11   10 1
    12   12    3 1
    13   13   12 1
    14   14   13 ar
    15   15   14 ar
    16   16   15 ar
    17   17   16 ar
    18   18   13 ar
    19   19   10 1
    20   20   19 ar
    21   21   20 ar
    22   22   21 ar
    23   23   22 ar
    24   24   19 ar
    25   25    5 1
    26   26    5 1
    27   27    6 1
    28   28    6 1
    29   29    7 1
    30   30    7 1
    31   31    8 1
    32   32   10 1
    33   33   11 1
    34   34   11 1
    35   35   11 1
    36   36   12 1
    37   37   12 1
    38   38   14 1
    39   39   15 1
    40   40   16 1
    41   41   17 1
    42   42   18 1
    43   43   20 1
    44   44   21 1
    45   45   22 1
    46   46   23 1
    47   47   24 1
    48   48    4 1
    49   17   18 ar
    50   23   24 ar
@<TRIPOS>SUBSTRUCTURE
     1 RES1 1

@<TRIPOS>CRYSIN
  12.2100   17.1670    8.7480  90.0000  90.0000  90.0000  19 1

