# MOL2 file generated by ConQuest
# Please check atom types

@<TRIPOS>MOLECULE
PEPPOR
    56    61     1
SMALL
NO_CHARGES
****
Generated from CSD

@<TRIPOS>ATOM
      1 O1        20.6853    9.8598    3.2877 O.2       1 RES1    0.0000
      2 O2        15.6078    5.2471   -0.6242 O.2       1 RES1    0.0000
      3 O3        14.5100    4.1945    0.8890 O.2       1 RES1    0.0000
      4 N1        15.3761    4.9674    0.5390 N.pl3     1 RES1    0.0000
      5 N2        20.5857    4.4198    3.2624 N.pl3     1 RES1    0.0000
      6 H1        19.8484    3.9997    3.1264 H         1 RES1    0.0000
      7 N3        20.5122    7.9422    2.1123 N.am      1 RES1    0.0000
      8 C1        16.1845    5.6594    1.6125 C.3       1 RES1    0.0000
      9 H2        16.1178    5.1322    2.4363 H         1 RES1    0.0000
     10 C2        17.6593    5.7248    1.2011 C.3       1 RES1    0.0000
     11 H3        17.7187    6.2597    0.3828 H         1 RES1    0.0000
     12 C3        18.4334    6.4739    2.3141 C.3       1 RES1    0.0000
     13 H4        18.3202    5.9761    3.1503 H         1 RES1    0.0000
     14 C4        19.9570    6.5713    2.0138 C.3       1 RES1    0.0000
     15 H5        20.0794    6.2847    1.0849 H         1 RES1    0.0000
     16 C5        20.8612    5.7076    2.8549 C.2       1 RES1    0.0000
     17 C6        21.6820    3.9166    3.9228 C.ar      1 RES1    0.0000
     18 C7        21.8920    2.6405    4.4468 C.ar      1 RES1    0.0000
     19 H6        21.2343    1.9844    4.4102 H         1 RES1    0.0000
     20 C8        23.1225    2.3998    5.0227 C.ar      1 RES1    0.0000
     21 H7        23.3015    1.5569    5.3737 H         1 RES1    0.0000
     22 C9        24.1016    3.3815    5.0903 C.ar      1 RES1    0.0000
     23 H8        24.9124    3.1868    5.5030 H         1 RES1    0.0000
     24 C10       23.8973    4.6449    4.5583 C.ar      1 RES1    0.0000
     25 H9        24.5637    5.2920    4.6031 H         1 RES1    0.0000
     26 C11       22.6647    4.9250    3.9510 C.ar      1 RES1    0.0000
     27 C12       22.1265    6.0579    3.2530 C.2       1 RES1    0.0000
     28 C13       22.7756    7.3483    2.8634 C.3       1 RES1    0.0000
     29 H10       23.6720    7.1805    2.5317 H         1 RES1    0.0000
     30 H11       22.8402    7.9315    3.6355 H         1 RES1    0.0000
     31 C14       21.9361    8.0154    1.7770 C.3       1 RES1    0.0000
     32 H12       22.2002    8.9442    1.6865 H         1 RES1    0.0000
     33 H13       22.0925    7.5740    0.9278 H         1 RES1    0.0000
     34 C15       20.0360    8.8733    2.9917 C.2       1 RES1    0.0000
     35 C16       18.6584    8.6242    3.5092 C.3       1 RES1    0.0000
     36 H14       18.2321    9.4725    3.7081 H         1 RES1    0.0000
     37 H15       18.7111    8.1153    4.3336 H         1 RES1    0.0000
     38 C17       17.8188    7.8628    2.5030 C.3       1 RES1    0.0000
     39 H16       17.8684    8.3360    1.6457 H         1 RES1    0.0000
     40 C18       16.3586    7.7647    2.9046 C.3       1 RES1    0.0000
     41 H17       16.2882    7.3053    3.7558 H         1 RES1    0.0000
     42 H18       15.9953    8.6576    3.0160 H         1 RES1    0.0000
     43 C19       15.5481    7.0187    1.8615 C.3       1 RES1    0.0000
     44 H19       15.5243    7.5280    1.0362 H         1 RES1    0.0000
     45 H20       14.6364    6.9029    2.1738 H         1 RES1    0.0000
     46 C20       18.1962    4.3361    0.8891 C.ar      1 RES1    0.0000
     47 C21       17.9940    3.2786    1.7657 C.ar      1 RES1    0.0000
     48 H21       17.5136    3.4195    2.5496 H         1 RES1    0.0000
     49 C22       18.4973    2.0153    1.4896 C.ar      1 RES1    0.0000
     50 H22       18.3536    1.3183    2.0882 H         1 RES1    0.0000
     51 C23       19.2102    1.7906    0.3311 C.ar      1 RES1    0.0000
     52 H23       19.5653    0.9497    0.1541 H         1 RES1    0.0000
     53 C24       19.3913    2.8193   -0.5579 C.ar      1 RES1    0.0000
     54 H24       19.8555    2.6665   -1.3484 H         1 RES1    0.0000
     55 C25       18.8882    4.0866   -0.2900 C.ar      1 RES1    0.0000
     56 H25       19.0154    4.7727   -0.9049 H         1 RES1    0.0000
@<TRIPOS>BOND
     1    1   34 2
     2    2    4 2
     3    3    4 2
     4    4    8 1
     5    5    6 1
     6    7   14 1
     7    8    9 1
     8   10    8 1
     9   11   10 1
    10   12   10 1
    11   13   12 1
    12   14   12 1
    13   15   14 1
    14   16    5 1
    15   17    5 1
    16   18   17 ar
    17   19   18 1
    18   20   18 ar
    19   21   20 1
    20   22   20 ar
    21   23   22 1
    22   24   22 ar
    23   25   24 1
    24   26   17 ar
    25   27   16 2
    26   28   27 1
    27   29   28 1
    28   30   28 1
    29   31    7 1
    30   32   31 1
    31   33   31 1
    32   34    7 1
    33   35   34 1
    34   36   35 1
    35   37   35 1
    36   38   12 1
    37   39   38 1
    38   40   38 1
    39   41   40 1
    40   42   40 1
    41   43    8 1
    42   44   43 1
    43   45   43 1
    44   46   10 1
    45   47   46 ar
    46   48   47 1
    47   49   47 ar
    48   50   49 1
    49   51   49 ar
    50   52   51 1
    51   53   51 ar
    52   54   53 1
    53   55   46 ar
    54   56   55 1
    55   14   16 1
    56   24   26 ar
    57   26   27 1
    58   28   31 1
    59   35   38 1
    60   40   43 1
    61   53   55 ar
@<TRIPOS>SUBSTRUCTURE
     1 RES1 1

@<TRIPOS>CRYSIN
  21.0330    9.9868   10.2026  90.0000 102.9280  90.0000   5 1

