# MOL2 file generated by ConQuest
# Please check atom types

@<TRIPOS>MOLECULE
PEPQOQ
    54    56     1
SMALL
NO_CHARGES
****
Generated from CSD

@<TRIPOS>ATOM
      1 N1        -0.6790    7.5306   -1.2675 N.pl3     1 RES1    0.0000
      2 N2         3.3938    9.8509    0.0395 N.pl3     1 RES1    0.0000
      3 O1         2.4111    6.6704    3.7730 O.3       1 RES1    0.0000
      4 O2         0.2683    6.0733    3.5574 O.2       1 RES1    0.0000
      5 O3        -1.6610    6.9065   -0.9217 O.2       1 RES1    0.0000
      6 O4        -0.4309    7.8745   -2.4271 O.2       1 RES1    0.0000
      7 O5         3.3326   10.3975   -1.0281 O.2       1 RES1    0.0000
      8 O6         4.3142    9.9793    0.8198 O.2       1 RES1    0.0000
      9 C1         3.0276    7.6936    6.5760 C.3       1 RES1    0.0000
     10 C2         3.8467    8.0826    7.8462 C.3       1 RES1    0.0000
     11 H1         4.6585    8.5602    7.5764 H         1 RES1    0.0000
     12 C3         2.9085    9.0474    8.5688 C.3       1 RES1    0.0000
     13 H2         2.9653    9.9358    8.1840 H         1 RES1    0.0000
     14 H3         3.1289    9.0994    9.5117 H         1 RES1    0.0000
     15 C4         1.5050    8.4583    8.3707 C.3       1 RES1    0.0000
     16 H4         0.8642    9.1599    8.1744 H         1 RES1    0.0000
     17 H5         1.2165    7.9870    9.1675 H         1 RES1    0.0000
     18 C5         1.6265    7.4871    7.1812 C.3       1 RES1    0.0000
     19 H6         0.9430    7.6771    6.5199 H         1 RES1    0.0000
     20 H7         1.5206    6.5711    7.4812 H         1 RES1    0.0000
     21 C6         3.5434    6.4045    5.8963 C.3       1 RES1    0.0000
     22 H8         4.3754    6.6146    5.4428 H         1 RES1    0.0000
     23 H9         3.7479    5.7581    6.5897 H         1 RES1    0.0000
     24 C7         2.6163    5.7475    4.8988 C.3       1 RES1    0.0000
     25 H10        1.7568    5.5501    5.3254 H         1 RES1    0.0000
     26 C8         3.2093    4.4749    4.3285 C.3       1 RES1    0.0000
     27 H11        2.5940    4.0875    3.7009 H         1 RES1    0.0000
     28 H12        3.3750    3.8518    5.0398 H         1 RES1    0.0000
     29 H13        4.0347    4.6776    3.8834 H         1 RES1    0.0000
     30 C9         3.1021    8.8830    5.6066 C.ar      1 RES1    0.0000
     31 C10        4.3013    9.1684    4.9513 C.ar      1 RES1    0.0000
     32 H14        5.0364    8.6175    5.0953 H         1 RES1    0.0000
     33 C11        4.4264   10.2446    4.0971 C.ar      1 RES1    0.0000
     34 H15        5.2373   10.4017    3.6692 H         1 RES1    0.0000
     35 C12        3.3659   11.0853    3.8727 C.ar      1 RES1    0.0000
     36 H16        3.4521   11.8091    3.2948 H         1 RES1    0.0000
     37 C13        2.1745   10.8454    4.5130 C.ar      1 RES1    0.0000
     38 H17        1.4534   11.4164    4.3767 H         1 RES1    0.0000
     39 C14        2.0378    9.7479    5.3696 C.ar      1 RES1    0.0000
     40 H18        1.2218    9.5940    5.7886 H         1 RES1    0.0000
     41 C15        4.2227    6.9203    8.7617 C.3       1 RES1    0.0000
     42 H19        4.8135    6.3238    8.2950 H         1 RES1    0.0000
     43 H20        3.4287    6.4459    9.0200 H         1 RES1    0.0000
     44 H21        4.6622    7.2579    9.5451 H         1 RES1    0.0000
     45 C16        1.2311    6.6773    3.1854 C.2       1 RES1    0.0000
     46 C17        1.2492    7.4744    1.9165 C.ar      1 RES1    0.0000
     47 C18        2.2857    8.3415    1.6274 C.ar      1 RES1    0.0000
     48 H22        2.9593    8.5071    2.2479 H         1 RES1    0.0000
     49 C19        2.2914    8.9582    0.3875 C.ar      1 RES1    0.0000
     50 C20        1.3289    8.7205   -0.5711 C.ar      1 RES1    0.0000
     51 H23        1.3604    9.1312   -1.4055 H         1 RES1    0.0000
     52 C21        0.3272    7.8544   -0.2381 C.ar      1 RES1    0.0000
     53 C22        0.2441    7.2494    0.9961 C.ar      1 RES1    0.0000
     54 H24       -0.4756    6.6985    1.2056 H         1 RES1    0.0000
@<TRIPOS>BOND
     1    1    5 2
     2    2    7 2
     3    3   24 1
     4    4   45 2
     5    6    1 2
     6    8    2 2
     7    9   10 1
     8   10   11 1
     9   12   10 1
    10   13   12 1
    11   14   12 1
    12   15   12 1
    13   16   15 1
    14   17   15 1
    15   18    9 1
    16   19   18 1
    17   20   18 1
    18   21    9 1
    19   22   21 1
    20   23   21 1
    21   24   21 1
    22   25   24 1
    23   26   24 1
    24   27   26 1
    25   28   26 1
    26   29   26 1
    27   30    9 1
    28   31   30 ar
    29   32   31 1
    30   33   31 ar
    31   34   33 1
    32   35   33 ar
    33   36   35 1
    34   37   35 ar
    35   38   37 1
    36   39   30 ar
    37   40   39 1
    38   41   10 1
    39   42   41 1
    40   43   41 1
    41   44   41 1
    42   45    3 1
    43   46   45 1
    44   47   46 ar
    45   48   47 1
    46   49    2 1
    47   50   49 ar
    48   51   50 1
    49   52    1 1
    50   53   46 ar
    51   54   53 1
    52   15   18 1
    53   37   39 ar
    54   47   49 ar
    55   50   52 ar
    56   52   53 ar
@<TRIPOS>SUBSTRUCTURE
     1 RES1 1

@<TRIPOS>CRYSIN
   6.1890   10.6140   16.1600  90.0000 100.9930  90.0000   4 1

