# MOL2 file generated by ConQuest
# Please check atom types

@<TRIPOS>MOLECULE
PEPZIV
    38    39     1
SMALL
NO_CHARGES
****
Generated from CSD

@<TRIPOS>ATOM
      1 O1         2.1502    9.0775    5.0288 O.2       1 RES1    0.0000
      2 O2         1.4634   11.1147    4.6613 O.2       1 RES1    0.0000
      3 O3        -2.4367   10.3735   -0.0325 O.2       1 RES1    0.0000
      4 O4        -1.5625   11.9459    1.1762 O.2       1 RES1    0.0000
      5 N1         2.4331    7.7757    2.2932 N.3       1 RES1    0.0000
      6 N2         0.6239    5.3442    2.9163 N.3       1 RES1    0.0000
      7 N3         1.5579    9.9197    4.3285 N.pl3     1 RES1    0.0000
      8 N4        -1.6691   10.7417    0.8731 N.pl3     1 RES1    0.0000
      9 C1         1.2063    8.1976    2.5180 C.ar      1 RES1    0.0000
     10 C2         0.9191    9.4763    3.1349 C.ar      1 RES1    0.0000
     11 C3        -0.0435   10.2794    2.5428 C.ar      1 RES1    0.0000
     12 H1        -0.1371   11.1836    2.8196 H         1 RES1    0.0000
     13 C4        -0.8643    9.7778    1.5575 C.ar      1 RES1    0.0000
     14 C5        -0.9749    8.3381    1.3488 C.ar      1 RES1    0.0000
     15 C6        -2.0087    7.6991    0.6455 C.ar      1 RES1    0.0000
     16 H2        -2.6619    8.2157    0.1884 H         1 RES1    0.0000
     17 C7        -2.0759    6.3165    0.6178 C.ar      1 RES1    0.0000
     18 H3        -2.7505    5.9005    0.0942 H         1 RES1    0.0000
     19 C8        -1.1930    5.5192    1.3266 C.ar      1 RES1    0.0000
     20 H4        -1.2818    4.5739    1.3013 H         1 RES1    0.0000
     21 C9        -0.1673    6.1073    2.0805 C.ar      1 RES1    0.0000
     22 C10        0.0175    7.5217    1.9819 C.ar      1 RES1    0.0000
     23 C11        3.6042    8.5663    2.6907 C.3       1 RES1    0.0000
     24 H5         3.3940    9.5211    2.6169 H         1 RES1    0.0000
     25 H6         4.3588    8.3508    2.1031 H         1 RES1    0.0000
     26 H7         3.8412    8.3549    3.6178 H         1 RES1    0.0000
     27 C12        2.7469    6.6027    1.4702 C.3       1 RES1    0.0000
     28 H8         1.9651    6.3645    0.9298 H         1 RES1    0.0000
     29 H9         2.9834    5.8500    2.0516 H         1 RES1    0.0000
     30 H10        3.5016    6.8104    0.8800 H         1 RES1    0.0000
     31 C13        1.0951    5.8397    4.2076 C.3       1 RES1    0.0000
     32 H11        0.6820    6.7085    4.3947 H         1 RES1    0.0000
     33 H12        2.0700    5.9398    4.1831 H         1 RES1    0.0000
     34 H13        0.8498    5.2024    4.9102 H         1 RES1    0.0000
     35 C14        0.6211    3.8933    2.7916 C.3       1 RES1    0.0000
     36 H14        0.5977    3.6468    1.8436 H         1 RES1    0.0000
     37 H15       -0.1686    3.5278    3.2427 H         1 RES1    0.0000
     38 H16        1.4316    3.5288    3.2036 H         1 RES1    0.0000
@<TRIPOS>BOND
     1    1    7 2
     2    2    7 2
     3    3    8 2
     4    4    8 2
     5    5    9 1
     6    6   21 1
     7    7   10 1
     8    8   13 1
     9    9   10 ar
    10   10   11 ar
    11   11   12 1
    12   13   11 ar
    13   14   13 ar
    14   15   14 ar
    15   16   15 1
    16   17   15 ar
    17   18   17 1
    18   19   17 ar
    19   20   19 1
    20   21   19 ar
    21   22    9 ar
    22   23    5 1
    23   24   23 1
    24   25   23 1
    25   26   23 1
    26   27    5 1
    27   28   27 1
    28   29   27 1
    29   30   27 1
    30   31    6 1
    31   32   31 1
    32   33   31 1
    33   34   31 1
    34   35    6 1
    35   36   35 1
    36   37   35 1
    37   38   35 1
    38   14   22 ar
    39   21   22 ar
@<TRIPOS>SUBSTRUCTURE
     1 RES1 1

@<TRIPOS>CRYSIN
  15.5400   10.0880   17.9710  90.0000  98.4100  90.0000  15 1

