# MOL2 file generated by ConQuest
# Please check atom types

@<TRIPOS>MOLECULE
PEQWIR
    50    53     1
SMALL
NO_CHARGES
****
Generated from CSD

@<TRIPOS>ATOM
      1 O1        -3.7983    7.4488    4.2347 O.2       1 RES1    0.0000
      2 O2        -2.6003   -0.7280    8.6745 O.2       1 RES1    0.0000
      3 O3        -3.2976    1.1848    7.9833 O.2       1 RES1    0.0000
      4 O4         2.3552   -1.9537    5.3720 O.2       1 RES1    0.0000
      5 O5         1.0050   -2.9936    6.7218 O.2       1 RES1    0.0000
      6 N1        -1.4663    3.6845    5.5929 N.2       1 RES1    0.0000
      7 N2        -1.7801    2.6222    6.4356 N.3       1 RES1    0.0000
      8 N3        -2.4762    0.2656    7.9527 N.pl3     1 RES1    0.0000
      9 N4         1.3690   -2.0428    6.0800 N.pl3     1 RES1    0.0000
     10 C1        -3.3725    6.6094    4.9911 C.2       1 RES1    0.0000
     11 C2        -4.1565    6.1266    6.2021 C.3       1 RES1    0.0000
     12 C3        -3.3893    4.8935    6.6671 C.3       1 RES1    0.0000
     13 C4        -2.2239    4.7040    5.7328 C.2       1 RES1    0.0000
     14 C5        -2.0447    5.9000    4.8470 C.3       1 RES1    0.0000
     15 C6        -1.5903    5.6214    3.3751 C.3       1 RES1    0.0000
     16 C7        -0.3270    6.4534    3.2068 C.3       1 RES1    0.0000
     17 C8         0.7513    5.7830    4.0190 C.3       1 RES1    0.0000
     18 C9         0.3925    6.1414    5.4540 C.3       1 RES1    0.0000
     19 C10       -0.9359    6.9140    5.3362 C.3       1 RES1    0.0000
     20 C11       -0.6631    7.6735    3.9874 C.3       1 RES1    0.0000
     21 C12       -5.5897    5.8034    5.7970 C.3       1 RES1    0.0000
     22 C13       -4.1701    7.2260    7.2542 C.3       1 RES1    0.0000
     23 C14       -1.0063    1.5061    6.3830 C.ar      1 RES1    0.0000
     24 C15       -1.3057    0.3213    7.0974 C.ar      1 RES1    0.0000
     25 C16       -0.5221   -0.8023    7.0111 C.ar      1 RES1    0.0000
     26 C17        0.5677   -0.7800    6.1915 C.ar      1 RES1    0.0000
     27 C18        0.9343    0.3287    5.4866 C.ar      1 RES1    0.0000
     28 C19        0.1672    1.4931    5.5613 C.ar      1 RES1    0.0000
     29 H1        -2.4727    2.7615    7.2331 H         1 RES1    0.0000
     30 H2        -3.8680    3.8943    6.7428 H         1 RES1    0.0000
     31 H3        -3.0545    4.8080    7.5992 H         1 RES1    0.0000
     32 H4        -1.5450    4.5406    3.0732 H         1 RES1    0.0000
     33 H5        -2.3050    6.0319    2.7049 H         1 RES1    0.0000
     34 H6        -0.1653    6.4720    2.1673 H         1 RES1    0.0000
     35 H7         0.9486    4.6762    3.7728 H         1 RES1    0.0000
     36 H8         1.7182    6.0579    3.7086 H         1 RES1    0.0000
     37 H9         1.0387    6.8007    5.8549 H         1 RES1    0.0000
     38 H10        0.2622    5.4264    6.0632 H         1 RES1    0.0000
     39 H11       -1.2237    7.5343    6.1400 H         1 RES1    0.0000
     40 H12        0.0821    8.2084    3.8927 H         1 RES1    0.0000
     41 H13       -1.5025    8.2437    3.9979 H         1 RES1    0.0000
     42 H14       -5.9651    6.6373    5.3362 H         1 RES1    0.0000
     43 H15       -5.5547    5.0792    5.0795 H         1 RES1    0.0000
     44 H16       -6.0621    5.5750    6.5493 H         1 RES1    0.0000
     45 H17       -3.2413    7.4767    7.4625 H         1 RES1    0.0000
     46 H18       -4.6068    8.0097    6.8817 H         1 RES1    0.0000
     47 H19       -4.6353    6.9214    8.0790 H         1 RES1    0.0000
     48 H20       -0.8002   -1.5581    7.5203 H         1 RES1    0.0000
     49 H21        1.7356    0.3658    4.7186 H         1 RES1    0.0000
     50 H22        0.3176    2.2099    4.7386 H         1 RES1    0.0000
@<TRIPOS>BOND
     1    1   10 2
     2    2    8 2
     3    3    8 2
     4    4    9 2
     5    5    9 2
     6    6    7 1
     7    7   23 1
     8    8   24 1
     9    9   26 1
    10   10   11 1
    11   11   12 1
    12   12   13 1
    13   13    6 2
    14   14   10 1
    15   15   14 1
    16   16   15 1
    17   17   16 1
    18   18   17 1
    19   19   14 1
    20   20   16 1
    21   21   11 1
    22   22   11 1
    23   23   24 ar
    24   24   25 ar
    25   25   26 ar
    26   26   27 ar
    27   27   28 ar
    28   28   23 ar
    29   29    7 1
    30   30   12 1
    31   31   12 1
    32   32   15 1
    33   33   15 1
    34   34   16 1
    35   35   17 1
    36   36   17 1
    37   37   18 1
    38   38   18 1
    39   39   19 1
    40   40   20 1
    41   41   20 1
    42   42   21 1
    43   43   21 1
    44   44   21 1
    45   45   22 1
    46   46   22 1
    47   47   22 1
    48   48   25 1
    49   49   27 1
    50   50   28 1
    51   13   14 1
    52   18   19 1
    53   19   20 1
@<TRIPOS>SUBSTRUCTURE
     1 RES1 1

@<TRIPOS>CRYSIN
   9.7560   18.5710   11.0400  90.0000 107.6400  90.0000 231 1

