# MOL2 file generated by ConQuest
# Please check atom types

@<TRIPOS>MOLECULE
PERTUB
    51    52     2
SMALL
NO_CHARGES
****
Generated from CSD

@<TRIPOS>ATOM
      1 C1         3.6115    1.2913   19.2200 C.2       1 RES1    0.0000
      2 C2         3.7502    1.6057   17.7583 C.3       1 RES1    0.0000
      3 C3         4.1792    0.3344   16.9743 C.3       1 RES1    0.0000
      4 C4         3.0582   -0.6400   17.0262 C.2       1 RES1    0.0000
      5 C5         1.7859   -0.2480   17.1392 C.2       1 RES1    0.0000
      6 C6         1.3462    1.1536   17.2251 C.3       1 RES1    0.0000
      7 C7         2.4954    2.1681   17.1302 C.3       1 RES1    0.0000
      8 C8         2.7823    2.5676   15.6910 C.3       1 RES1    0.0000
      9 C9         3.3342    1.4178   14.8596 C.3       1 RES1    0.0000
     10 C10        4.5286    0.7991   15.5374 C.3       1 RES1    0.0000
     11 C11        5.1239   -0.3494   14.7376 C.2       1 RES1    0.0000
     12 C12        6.9567   -1.0534   13.4362 C.3       1 RES1    0.0000
     13 C13        7.5735   -0.3319   12.2613 C.3       1 RES1    0.0000
     14 C14        1.5728    1.8161   21.9877 C.ar      1 RES1    0.0000
     15 C15        1.4268    1.4880   23.3589 C.ar      1 RES1    0.0000
     16 C16        0.2923    1.8524   24.0844 C.ar      1 RES1    0.0000
     17 C17       -0.6835    2.5701   23.4540 C.ar      1 RES1    0.0000
     18 C18       -0.5802    2.9334   22.1142 C.ar      1 RES1    0.0000
     19 C19        0.5304    2.5651   21.4071 C.ar      1 RES1    0.0000
     20 N1         2.6455    1.4341   21.2421 N.pl3     1 RES1    0.0000
     21 N2         2.6416    1.7735   19.8945 N.2       1 RES1    0.0000
     22 N3         2.4117    0.7265   24.0760 N.pl3     1 RES1    0.0000
     23 N4        -1.9028    2.9246   24.1996 N.pl3     1 RES1    0.0000
     24 O1         4.5766   -1.3452   14.4461 O.2       1 RES1    0.0000
     25 O2         6.2535   -0.0789   14.2654 O.3       1 RES1    0.0000
     26 O3         3.4442    0.3507   23.4782 O.2       1 RES1    0.0000
     27 O4         2.2336    0.4722   25.2615 O.2       1 RES1    0.0000
     28 O5        -1.9623    2.6290   25.3832 O.2       1 RES1    0.0000
     29 O6        -2.7971    3.5020   23.5986 O.2       1 RES1    0.0000
     30 H1         4.3090    0.7139   19.6561 H         1 RES1    0.0000
     31 H2         4.4962    2.3297   17.6227 H         1 RES1    0.0000
     32 H3         5.0322   -0.0626   17.4420 H         1 RES1    0.0000
     33 H4         3.2024   -1.6408   16.9223 H         1 RES1    0.0000
     34 H5         1.0729   -0.9394   17.1934 H         1 RES1    0.0000
     35 H6         0.6884    1.3402   16.4253 H         1 RES1    0.0000
     36 H7         0.8072    1.3026   18.0520 H         1 RES1    0.0000
     37 H8         2.2054    3.0060   17.6679 H         1 RES1    0.0000
     38 H9         1.9043    2.9309   15.2504 H         1 RES1    0.0000
     39 H10        3.4367    3.3567   15.6571 H         1 RES1    0.0000
     40 H11        3.5618    1.7034   13.9400 H         1 RES1    0.0000
     41 H12        2.6214    0.6889   14.7986 H         1 RES1    0.0000
     42 H13        5.2430    1.5907   15.6345 H         1 RES1    0.0000
     43 H14        6.2884   -1.7159   12.9911 H         1 RES1    0.0000
     44 H15        7.6427   -1.5907   13.8948 H         1 RES1    0.0000
     45 H16        8.0719   -0.9895   11.7259 H         1 RES1    0.0000
     46 H17        8.0860    0.4760   12.6070 H         1 RES1    0.0000
     47 H18        7.1456   -0.7515   13.1492 Du        2 SUP2    0.0000
     48 H19        0.1722    1.5656   25.0785 H         1 RES1    0.0000
     49 H20       -1.3449    3.4945   21.6895 H         1 RES1    0.0000
     50 H21        0.6131    2.8307   20.4017 H         1 RES1    0.0000
     51 H22        3.4357    0.9269   21.6669 H         1 RES1    0.0000
@<TRIPOS>BOND
     1    1    2 1
     2    2    3 1
     3    3    4 1
     4    4    5 2
     5    5    6 1
     6    6    7 1
     7    7    2 1
     8    8    7 1
     9    9    8 1
    10   10    3 1
    11   11   10 1
    12   12   13 1
    13   13   45 1
    14   14   15 ar
    15   15   16 ar
    16   16   17 ar
    17   17   18 ar
    18   18   19 ar
    19   19   14 ar
    20   20   14 1
    21   21    1 2
    22   22   15 1
    23   23   17 1
    24   24   11 2
    25   25   11 1
    26   26   22 2
    27   27   22 2
    28   28   23 2
    29   29   23 2
    30   30    1 1
    31   31    2 1
    32   32    3 1
    33   33    4 1
    34   34    5 1
    35   35    6 1
    36   36    6 1
    37   37    7 1
    38   38    8 1
    39   39    8 1
    40   40    9 1
    41   41    9 1
    42   42   10 1
    43   43   12 1
    44   44   12 1
    45   46   13 1
    46   48   16 1
    47   49   18 1
    48   50   19 1
    49   51   20 1
    50    9   10 1
    51   12   25 1
    52   20   21 1
@<TRIPOS>SUBSTRUCTURE
     1 RES1 1
     2 SUP2 47

@<TRIPOS>CRYSIN
   6.8850   12.5250   22.7270  90.0000  96.2200  90.0000  14 1

