# MOL2 file generated by ConQuest
# Please check atom types

@<TRIPOS>MOLECULE
PERYTN11
    29    28     1
SMALL
NO_CHARGES
****
Generated from CSD

@<TRIPOS>ATOM
      1 C1         4.6513    4.6513    0.0000 C.3       1 RES1    0.0000
      2 C2         5.7911    5.2265    0.8496 C.3       1 RES1    0.0000
      3 H1         6.5649    5.4598    0.2776 H         1 RES1    0.0000
      4 H2         5.4914    6.0421    1.3234 H         1 RES1    0.0000
      5 O1         6.1576    4.1925    1.8018 O.3       1 RES1    0.0000
      6 N1         7.3502    4.4874    2.4899 N.pl3     1 RES1    0.0000
      7 O2         7.9442    5.4854    2.1888 O.2       1 RES1    0.0000
      8 O3         7.6126    3.6533    3.3213 O.2       1 RES1    0.0000
      9 C2A        3.5116    4.0762    0.8496 C.3       1 RES1    0.0000
     10 H1A        2.7378    3.8429    0.2776 H         1 RES1    0.0000
     11 H2A        3.8113    3.2606    1.3234 H         1 RES1    0.0000
     12 O1A        3.1451    5.1102    1.8018 O.3       1 RES1    0.0000
     13 N1A        1.9525    4.8153    2.4899 N.pl3     1 RES1    0.0000
     14 O2A        1.3585    3.8173    2.1888 O.2       1 RES1    0.0000
     15 O3A        1.6901    5.6494    3.3213 O.2       1 RES1    0.0000
     16 C2B        5.2265    3.5116   -0.8496 C.3       1 RES1    0.0000
     17 H1B        5.4598    2.7378   -0.2776 H         1 RES1    0.0000
     18 H2B        6.0421    3.8113   -1.3234 H         1 RES1    0.0000
     19 O1B        4.1925    3.1451   -1.8018 O.3       1 RES1    0.0000
     20 N1B        4.4874    1.9525   -2.4899 N.pl3     1 RES1    0.0000
     21 O2B        5.4854    1.3585   -2.1888 O.2       1 RES1    0.0000
     22 O3B        3.6533    1.6901   -3.3213 O.2       1 RES1    0.0000
     23 C2C        4.0762    5.7911   -0.8496 C.3       1 RES1    0.0000
     24 H1C        3.8429    6.5649   -0.2776 H         1 RES1    0.0000
     25 H2C        3.2606    5.4914   -1.3234 H         1 RES1    0.0000
     26 O1C        5.1102    6.1576   -1.8018 O.3       1 RES1    0.0000
     27 N1C        4.8153    7.3502   -2.4899 N.pl3     1 RES1    0.0000
     28 O2C        3.8173    7.9442   -2.1888 O.2       1 RES1    0.0000
     29 O3C        5.6494    7.6126   -3.3213 O.2       1 RES1    0.0000
@<TRIPOS>BOND
     1    1    2 1
     2    2    3 1
     3    4    2 1
     4    5    2 1
     5    6    5 1
     6    7    6 2
     7    8    6 2
     8    9    1 1
     9   10    9 1
    10   11    9 1
    11   12    9 1
    12   13   12 1
    13   14   13 2
    14   15   13 2
    15   16    1 1
    16   17   16 1
    17   18   16 1
    18   19   16 1
    19   20   19 1
    20   21   20 2
    21   22   20 2
    22   23    1 1
    23   24   23 1
    24   25   23 1
    25   26   23 1
    26   27   26 1
    27   28   27 2
    28   29   27 2
@<TRIPOS>SUBSTRUCTURE
     1 RES1 1

@<TRIPOS>CRYSIN
   9.3027    9.3027    6.6403  90.0000  90.0000  90.0000 114 1

