# MOL2 file generated by ConQuest
# Please check atom types

@<TRIPOS>MOLECULE
PERYTN12
    29    28     1
SMALL
NO_CHARGES
****
Generated from CSD

@<TRIPOS>ATOM
      1 C1         0.0000    0.0000    0.0000 C.3       1 RES1    0.0000
      2 C2        -0.5698    1.1417    0.8514 C.3       1 RES1    0.0000
      3 O1        -0.8233    3.2972    2.1856 O.2       1 RES1    0.0000
      4 O2         1.0076    2.9618    3.3183 O.2       1 RES1    0.0000
      5 O3         0.4608    1.5076    1.8006 O.3       1 RES1    0.0000
      6 N1         0.1733    2.6970    2.4873 N.pl3     1 RES1    0.0000
      7 H1        -0.8260    1.9949    0.2197 H         1 RES1    0.0000
      8 H2        -1.4700    0.8134    1.3752 H         1 RES1    0.0000
      9 C2A        0.5698   -1.1417    0.8514 C.3       1 RES1    0.0000
     10 C2B        1.1417    0.5698   -0.8514 C.3       1 RES1    0.0000
     11 C2C       -1.1417   -0.5698   -0.8514 C.3       1 RES1    0.0000
     12 O1A        0.8233   -3.2972    2.1856 O.2       1 RES1    0.0000
     13 O1B        3.2972    0.8233   -2.1856 O.2       1 RES1    0.0000
     14 O1C       -3.2972   -0.8233   -2.1856 O.2       1 RES1    0.0000
     15 O2A       -1.0076   -2.9618    3.3183 O.2       1 RES1    0.0000
     16 O2B        2.9618   -1.0076   -3.3183 O.2       1 RES1    0.0000
     17 O2C       -2.9618    1.0076   -3.3183 O.2       1 RES1    0.0000
     18 O3A       -0.4608   -1.5076    1.8006 O.3       1 RES1    0.0000
     19 O3B        1.5076   -0.4608   -1.8006 O.3       1 RES1    0.0000
     20 O3C       -1.5076    0.4608   -1.8006 O.3       1 RES1    0.0000
     21 N1A       -0.1733   -2.6970    2.4873 N.pl3     1 RES1    0.0000
     22 N1B        2.6970   -0.1733   -2.4873 N.pl3     1 RES1    0.0000
     23 N1C       -2.6970    0.1733   -2.4873 N.pl3     1 RES1    0.0000
     24 H1A        0.8260   -1.9949    0.2197 H         1 RES1    0.0000
     25 H1B        1.9949    0.8260   -0.2197 H         1 RES1    0.0000
     26 H1C       -1.9949   -0.8260   -0.2197 H         1 RES1    0.0000
     27 H2A        1.4700   -0.8134    1.3752 H         1 RES1    0.0000
     28 H2B        0.8134    1.4700   -1.3752 H         1 RES1    0.0000
     29 H2C       -0.8134   -1.4700   -1.3752 H         1 RES1    0.0000
@<TRIPOS>BOND
     1    1    2 1
     2    2    5 1
     3    3    6 2
     4    4    6 2
     5    5    6 1
     6    7    2 1
     7    8    2 1
     8    9    1 1
     9   10    1 1
    10   11    1 1
    11   12   21 2
    12   13   22 2
    13   14   23 2
    14   15   21 2
    15   16   22 2
    16   17   23 2
    17   18    9 1
    18   19   10 1
    19   20   11 1
    20   21   18 1
    21   22   19 1
    22   23   20 1
    23   24    9 1
    24   25   10 1
    25   26   11 1
    26   27    9 1
    27   28   10 1
    28   29   11 1
@<TRIPOS>SUBSTRUCTURE
     1 RES1 1

@<TRIPOS>CRYSIN
   9.2759    9.2759    6.6127  90.0000  90.0000  90.0000 114 1

