# MOL2 file generated by ConQuest
# Please check atom types

@<TRIPOS>MOLECULE
PERYTN01
    29    28     1
SMALL
NO_CHARGES
****
Generated from CSD

@<TRIPOS>ATOM
      1 C1         0.0000    3.3725    1.1871 C.3       1 RES1    0.0000
      2 C2         1.2240    3.0960    2.0777 C.3       1 RES1    0.0000
      3 C3        -0.2751    2.1449    0.3033 C.3       1 RES1    0.0000
      4 H1         2.0374    2.8437    1.4924 H         1 RES1    0.0000
      5 H2        -0.5941    1.3503    0.8886 H         1 RES1    0.0000
      6 H3         1.4313    3.9081    2.6733 H         1 RES1    0.0000
      7 H4         0.5569    1.8967   -0.2493 H         1 RES1    0.0000
      8 N1         1.9337    1.4191    3.6650 N.pl3     1 RES1    0.0000
      9 N2        -1.9164    1.4691   -1.3366 N.pl3     1 RES1    0.0000
     10 O1         0.8997    1.9844    2.9232 O.3       1 RES1    0.0000
     11 O2        -1.3317    2.4903   -0.6031 O.3       1 RES1    0.0000
     12 O3         1.5270    0.6394    4.4996 O.2       1 RES1    0.0000
     13 O4        -2.6115    1.8940   -2.2355 O.2       1 RES1    0.0000
     14 O5         3.0966    1.6350    3.3330 O.2       1 RES1    0.0000
     15 O6        -1.6533    0.3022   -1.0873 O.2       1 RES1    0.0000
     16 C2C       -1.2240    3.6490    2.0777 C.3       1 RES1    0.0000
     17 C3C        0.2751    4.6001    0.3033 C.3       1 RES1    0.0000
     18 H1C       -2.0374    3.9013    1.4924 H         1 RES1    0.0000
     19 H3C       -1.4313    2.8369    2.6733 H         1 RES1    0.0000
     20 O1C       -0.8997    4.7606    2.9232 O.3       1 RES1    0.0000
     21 H2C        0.5941    5.3947    0.8886 H         1 RES1    0.0000
     22 H4C       -0.5569    4.8483   -0.2493 H         1 RES1    0.0000
     23 O2C        1.3317    4.2547   -0.6031 O.3       1 RES1    0.0000
     24 N1C       -1.9337    5.3259    3.6650 N.pl3     1 RES1    0.0000
     25 N2C        1.9164    5.2759   -1.3366 N.pl3     1 RES1    0.0000
     26 O3C       -1.5270    6.1056    4.4996 O.2       1 RES1    0.0000
     27 O5C       -3.0966    5.1100    3.3330 O.2       1 RES1    0.0000
     28 O4C        2.6115    4.8510   -2.2355 O.2       1 RES1    0.0000
     29 O6C        1.6533    6.4428   -1.0873 O.2       1 RES1    0.0000
@<TRIPOS>BOND
     1    1    2 1
     2    2    4 1
     3    3    1 1
     4    5    3 1
     5    6    2 1
     6    7    3 1
     7    8   10 1
     8    9   11 1
     9   10    2 1
    10   11    3 1
    11   12    8 2
    12   13    9 2
    13   14    8 2
    14   15    9 2
    15   16    1 1
    16   17    1 1
    17   18   16 1
    18   19   16 1
    19   20   16 1
    20   21   17 1
    21   22   17 1
    22   23   17 1
    23   24   20 1
    24   25   23 1
    25   26   24 2
    26   27   24 2
    27   28   25 2
    28   29   25 2
@<TRIPOS>SUBSTRUCTURE
     1 RES1 1

@<TRIPOS>CRYSIN
  13.2900   13.4900    6.8300  90.0000  90.0000  90.0000  60 4

