# MOL2 file generated by ConQuest
# Please check atom types

@<TRIPOS>MOLECULE
PESCIB
    54    53     1
SMALL
NO_CHARGES
****
Generated from CSD

@<TRIPOS>ATOM
      1 O1         2.4941    7.2800    3.0962 O.3       1 RES1    0.0000
      2 O2         2.3652    5.5517    1.6337 O.2       1 RES1    0.0000
      3 O3        -1.6823    4.2016    5.2459 O.2       1 RES1    0.0000
      4 O4        -2.2589    2.9382    3.6063 O.2       1 RES1    0.0000
      5 O5         1.1374    1.6722    6.7887 O.2       1 RES1    0.0000
      6 O6         1.8485   -0.0159    5.5066 O.3       1 RES1    0.0000
      7 N1         2.4025    5.2402    3.8932 N.am      1 RES1    0.0000
      8 H1         2.4410    5.6419    4.6534 H         1 RES1    0.0000
      9 N2        -1.4585    3.6804    4.1732 N.pl3     1 RES1    0.0000
     10 C1         2.5224    8.3217    2.0507 C.3       1 RES1    0.0000
     11 C2         3.7785    8.1860    1.2103 C.3       1 RES1    0.0000
     12 H2         4.5461    8.1490    1.7858 H         1 RES1    0.0000
     13 H3         3.8542    8.9423    0.6247 H         1 RES1    0.0000
     14 H4         3.7287    7.3813    0.6895 H         1 RES1    0.0000
     15 C3         2.5959    9.5893    2.9024 C.3       1 RES1    0.0000
     16 H5         1.8644    9.5985    3.5233 H         1 RES1    0.0000
     17 H6         2.5439   10.3599    2.3334 H         1 RES1    0.0000
     18 H7         3.4257    9.6017    3.3847 H         1 RES1    0.0000
     19 C4         1.2719    8.3000    1.2189 C.3       1 RES1    0.0000
     20 H8         1.2177    7.4673    0.7446 H         1 RES1    0.0000
     21 H9         1.2934    9.0251    0.5904 H         1 RES1    0.0000
     22 H10        0.5065    8.3943    1.7900 H         1 RES1    0.0000
     23 C5         2.4048    5.9901    2.7718 C.2       1 RES1    0.0000
     24 C6         2.3370    3.7868    3.8809 C.3       1 RES1    0.0000
     25 H11        2.4319    3.4883    2.9522 H         1 RES1    0.0000
     26 C7         3.4969    3.2077    4.6764 C.3       1 RES1    0.0000
     27 H12        3.4947    2.2427    4.5666 H         1 RES1    0.0000
     28 H13        3.3500    3.3960    5.6164 H         1 RES1    0.0000
     29 C8         4.9373    3.7623    4.2669 C.3       1 RES1    0.0000
     30 H14        5.1861    4.6193    4.6726 H         1 RES1    0.0000
     31 C9         5.3715    3.5775    2.9227 C.3       1 RES1    0.0000
     32 H15        6.3257    3.4756    2.9051 H         1 RES1    0.0000
     33 H16        5.1216    4.3421    2.3981 H         1 RES1    0.0000
     34 H17        4.9588    2.7907    2.5582 H         1 RES1    0.0000
     35 C10        5.7615    2.4848    4.7963 C.3       1 RES1    0.0000
     36 H18        6.1245    2.0038    4.0501 H         1 RES1    0.0000
     37 H19        5.1748    1.9082    5.2936 H         1 RES1    0.0000
     38 H20        6.4772    2.7811    5.3664 H         1 RES1    0.0000
     39 C11        0.9667    3.3249    4.3846 C.3       1 RES1    0.0000
     40 H21        0.8547    3.6604    5.2979 H         1 RES1    0.0000
     41 C12       -0.1334    3.9133    3.5383 C.3       1 RES1    0.0000
     42 H22        0.0124    4.8677    3.4318 H         1 RES1    0.0000
     43 H23       -0.1198    3.5075    2.6583 H         1 RES1    0.0000
     44 C13        0.8310    1.7986    4.4280 C.3       1 RES1    0.0000
     45 H24       -0.1018    1.5642    4.2936 H         1 RES1    0.0000
     46 H25        1.3375    1.4208    3.6925 H         1 RES1    0.0000
     47 C14        1.3025    1.1768    5.7068 C.2       1 RES1    0.0000
     48 C15        2.2454   -0.7588    6.7073 C.3       1 RES1    0.0000
     49 H26        2.3166   -1.7043    6.4991 H         1 RES1    0.0000
     50 H27        1.5704   -0.6499    7.3962 H         1 RES1    0.0000
     51 C16        3.5625   -0.2507    7.2073 C.3       1 RES1    0.0000
     52 H28        4.2251   -0.3472    6.5194 H         1 RES1    0.0000
     53 H29        3.8282   -0.7550    7.9797 H         1 RES1    0.0000
     54 H30        3.4800    0.6754    7.4433 H         1 RES1    0.0000
@<TRIPOS>BOND
     1    1   10 1
     2    2   23 2
     3    3    9 2
     4    4    9 2
     5    5   47 2
     6    6   47 1
     7    7    8 1
     8    9   41 1
     9   10   11 1
    10   11   12 1
    11   13   11 1
    12   14   11 1
    13   15   10 1
    14   16   15 1
    15   17   15 1
    16   18   15 1
    17   19   10 1
    18   20   19 1
    19   21   19 1
    20   22   19 1
    21   23    1 1
    22   24    7 1
    23   25   24 1
    24   26   24 1
    25   27   26 1
    26   28   26 1
    27   29   26 1
    28   30   29 1
    29   31   29 1
    30   32   31 1
    31   33   31 1
    32   34   31 1
    33   35   29 1
    34   36   35 1
    35   37   35 1
    36   38   35 1
    37   39   24 1
    38   40   39 1
    39   41   39 1
    40   42   41 1
    41   43   41 1
    42   44   39 1
    43   45   44 1
    44   46   44 1
    45   47   44 1
    46   48    6 1
    47   49   48 1
    48   50   48 1
    49   51   48 1
    50   52   51 1
    51   53   51 1
    52   54   51 1
    53    7   23 1
@<TRIPOS>SUBSTRUCTURE
     1 RES1 1

@<TRIPOS>CRYSIN
  11.3060   31.8570    5.3530  90.0000  90.0000  90.0000  18 1

