# MOL2 file generated by ConQuest
# Please check atom types

@<TRIPOS>MOLECULE
PESFOJ
    48    50     1
SMALL
NO_CHARGES
****
Generated from CSD

@<TRIPOS>ATOM
      1 O1        16.2932    3.5536    5.4838 O.2       1 RES1    0.0000
      2 O2        15.4823    1.8713    6.5582 O.2       1 RES1    0.0000
      3 O3        16.2748    7.0337   11.1017 O.3       1 RES1    0.0000
      4 O4        15.0525    9.1178   10.3258 O.3       1 RES1    0.0000
      5 O5        12.1503   13.7761   14.1981 O.2       1 RES1    0.0000
      6 N1        16.0189    2.9554    6.5215 N.pl3     1 RES1    0.0000
      7 N2        13.3353   11.3994   14.6145 N.2       1 RES1    0.0000
      8 N3        12.8135   12.1639   15.6422 N.am      1 RES1    0.0000
      9 H1        12.8413   11.8843   16.4544 H         1 RES1    0.0000
     10 N4        10.8994   15.9087   18.5246 N.ar      1 RES1    0.0000
     11 C1        17.2443    5.4551    8.9437 C.ar      1 RES1    0.0000
     12 H2        17.7314    6.2477    8.9423 H         1 RES1    0.0000
     13 C2        17.0227    4.8062    7.7708 C.ar      1 RES1    0.0000
     14 H3        17.3326    5.1582    6.9683 H         1 RES1    0.0000
     15 C3        16.3350    3.6270    7.7943 C.ar      1 RES1    0.0000
     16 C4        15.8783    3.0677    8.9643 C.ar      1 RES1    0.0000
     17 H4        15.4351    2.2503    8.9643 H         1 RES1    0.0000
     18 C5        16.0973    3.7555   10.1343 C.ar      1 RES1    0.0000
     19 H5        15.7938    3.4003   10.9368 H         1 RES1    0.0000
     20 C6        16.7598    4.9628   10.1357 C.ar      1 RES1    0.0000
     21 C7        16.8537    5.7651   11.3968 C.3       1 RES1    0.0000
     22 H6        16.3673    5.3288   12.1141 H         1 RES1    0.0000
     23 H7        17.7810    5.8687   11.6658 H         1 RES1    0.0000
     24 C8        15.7678    7.7918   12.1082 C.ar      1 RES1    0.0000
     25 C9        15.8832    7.5338   13.4516 C.ar      1 RES1    0.0000
     26 H8        16.3673    6.7952   13.7426 H         1 RES1    0.0000
     27 C10       15.2772    8.3738   14.3776 C.ar      1 RES1    0.0000
     28 H9        15.3643    8.1957   15.2859 H         1 RES1    0.0000
     29 C11       14.5521    9.4623   13.9680 C.ar      1 RES1    0.0000
     30 C12       14.4662    9.7452   12.6056 C.ar      1 RES1    0.0000
     31 H10       14.0001   10.4978   12.3213 H         1 RES1    0.0000
     32 C13       15.0640    8.9256   11.6805 C.ar      1 RES1    0.0000
     33 C14       14.3183   10.2214    9.8359 C.3       1 RES1    0.0000
     34 H11       13.3841   10.0918   10.0196 H         1 RES1    0.0000
     35 H12       14.4509   10.2991    8.8879 H         1 RES1    0.0000
     36 H13       14.6208   11.0237   10.2680 H         1 RES1    0.0000
     37 C15       13.9380   10.3315   14.9611 C.2       1 RES1    0.0000
     38 H14       13.9860   10.1037   15.8606 H         1 RES1    0.0000
     39 C16       12.2607   13.3593   15.3418 C.2       1 RES1    0.0000
     40 C17       11.7767   14.1853   16.4956 C.ar      1 RES1    0.0000
     41 C18       12.0858   13.9543   17.8207 C.ar      1 RES1    0.0000
     42 H15       12.5935   13.2124   18.0594 H         1 RES1    0.0000
     43 C19       11.6360   14.8278   18.7892 C.ar      1 RES1    0.0000
     44 H16       11.8595   14.6550   19.6747 H         1 RES1    0.0000
     45 C20       10.6039   16.1139   17.2437 C.ar      1 RES1    0.0000
     46 H17       10.0847   16.8568   17.0291 H         1 RES1    0.0000
     47 C21       11.0165   15.2986   16.2178 C.ar      1 RES1    0.0000
     48 H18       10.7833   15.4984   15.3403 H         1 RES1    0.0000
@<TRIPOS>BOND
     1    1    6 2
     2    2    6 2
     3    3   21 1
     4    4   32 1
     5    5   39 2
     6    6   15 1
     7    7    8 1
     8    8    9 1
     9   10   43 ar
    10   11   12 1
    11   13   11 ar
    12   14   13 1
    13   15   13 ar
    14   16   15 ar
    15   17   16 1
    16   18   16 ar
    17   19   18 1
    18   20   11 ar
    19   21   20 1
    20   22   21 1
    21   23   21 1
    22   24    3 1
    23   25   24 ar
    24   26   25 1
    25   27   25 ar
    26   28   27 1
    27   29   27 ar
    28   30   29 ar
    29   31   30 1
    30   32   24 ar
    31   33    4 1
    32   34   33 1
    33   35   33 1
    34   36   33 1
    35   37    7 2
    36   38   37 1
    37   39    8 1
    38   40   39 1
    39   41   40 ar
    40   42   41 1
    41   43   41 ar
    42   44   43 1
    43   45   10 ar
    44   46   45 1
    45   47   40 ar
    46   48   47 1
    47   18   20 ar
    48   29   37 1
    49   30   32 ar
    50   45   47 ar
@<TRIPOS>SUBSTRUCTURE
     1 RES1 1

@<TRIPOS>CRYSIN
  23.6010   10.7980   14.6980  90.0000  90.0000  90.0000  56 1

