# MOL2 file generated by ConQuest
# Please check atom types

@<TRIPOS>MOLECULE
PESWAN
    39    41     1
SMALL
NO_CHARGES
****
Generated from CSD

@<TRIPOS>ATOM
      1 C1         4.2789    8.0518    2.8791 C.ar      1 RES1    0.0000
      2 C2         5.5888    8.1401    3.2794 C.ar      1 RES1    0.0000
      3 H1         6.2471    8.4739    2.6811 H         1 RES1    0.0000
      4 C3         5.9604    7.7314    4.5896 C.ar      1 RES1    0.0000
      5 C4         7.3022    7.7800    5.0493 C.ar      1 RES1    0.0000
      6 C5         8.9845    9.3913    4.5992 C.3       1 RES1    0.0000
      7 H2         9.6612    9.1310    5.2725 H         1 RES1    0.0000
      8 H3         8.3551   10.0254    5.0241 H         1 RES1    0.0000
      9 C6         9.6613   10.0555    3.4329 C.ar      1 RES1    0.0000
     10 C7        10.7223   10.9188    3.7021 C.ar      1 RES1    0.0000
     11 H4        11.0183   11.0315    4.5977 H         1 RES1    0.0000
     12 C8        11.3508   11.6149    2.6848 C.ar      1 RES1    0.0000
     13 H5        12.0695   12.2088    2.8702 H         1 RES1    0.0000
     14 C9        10.9028   11.4221    1.3895 C.ar      1 RES1    0.0000
     15 C10        3.2811    7.5503    3.7532 C.ar      1 RES1    0.0000
     16 H6         2.3799    7.4882    3.4596 H         1 RES1    0.0000
     17 C11        3.6168    7.1576    5.0159 C.ar      1 RES1    0.0000
     18 H7         2.9413    6.8288    5.5980 H         1 RES1    0.0000
     19 C12        4.9595    7.2306    5.4756 C.ar      1 RES1    0.0000
     20 C13        5.3292    6.8142    6.7709 C.ar      1 RES1    0.0000
     21 H8         4.6592    6.4980    7.3663 H         1 RES1    0.0000
     22 C14        6.6323    6.8555    7.1899 C.ar      1 RES1    0.0000
     23 H9         6.8595    6.5710    8.0677 H         1 RES1    0.0000
     24 C15        7.6408    7.3228    6.3127 C.ar      1 RES1    0.0000
     25 C16        9.3633    6.6682    7.8475 C.3       1 RES1    0.0000
     26 H10        8.9308    7.0935    8.6172 H         1 RES1    0.0000
     27 H11       10.3369    6.7216    7.9498 H         1 RES1    0.0000
     28 H12        9.0902    5.7291    7.7993 H         1 RES1    0.0000
     29 C17        9.8659   10.5563    1.0773 C.ar      1 RES1    0.0000
     30 H13        9.5885   10.4315    0.1772 H         1 RES1    0.0000
     31 C18        9.2441    9.8766    2.1161 C.ar      1 RES1    0.0000
     32 H14        8.5271    9.2838    1.9263 H         1 RES1    0.0000
     33 N1        11.5367   12.1892    0.3177 N.pl3     1 RES1    0.0000
     34 O1         3.8263    8.4255    1.6446 O.3       1 RES1    0.0000
     35 H15        4.4631    8.7408    1.1967 H         1 RES1    0.0000
     36 O2         8.2700    8.2252    4.1551 O.3       1 RES1    0.0000
     37 O3         8.9713    7.3429    6.6442 O.3       1 RES1    0.0000
     38 O4        12.5994   12.7658    0.5571 O.2       1 RES1    0.0000
     39 O5        10.9715   12.2506   -0.7742 O.2       1 RES1    0.0000
@<TRIPOS>BOND
     1    1    2 ar
     2    2    3 1
     3    4    2 ar
     4    5    4 ar
     5    6    7 1
     6    8    6 1
     7    9    6 1
     8   10    9 ar
     9   11   10 1
    10   12   10 ar
    11   13   12 1
    12   14   12 ar
    13   15    1 ar
    14   16   15 1
    15   17   15 ar
    16   18   17 1
    17   19    4 ar
    18   20   19 ar
    19   21   20 1
    20   22   20 ar
    21   23   22 1
    22   24    5 ar
    23   25   26 1
    24   27   25 1
    25   28   25 1
    26   29   14 ar
    27   30   29 1
    28   31    9 ar
    29   32   31 1
    30   33   14 1
    31   34    1 1
    32   35   34 1
    33   36    5 1
    34   37   24 1
    35   38   33 2
    36   39   33 2
    37    6   36 1
    38   17   19 ar
    39   22   24 ar
    40   25   37 1
    41   29   31 ar
@<TRIPOS>SUBSTRUCTURE
     1 RES1 1

@<TRIPOS>CRYSIN
   8.6976   22.8160    7.4313  90.0000  93.8510  90.0000  14 1

