# MOL2 file generated by ConQuest
# Please check atom types

@<TRIPOS>MOLECULE
PEVNOV
    42    44     1
SMALL
NO_CHARGES
****
Generated from CSD

@<TRIPOS>ATOM
      1 C1         9.6349    2.7907    6.8937 C.ar      1 RES1    0.0000
      2 H1         9.7737    1.9265    6.5780 H         1 RES1    0.0000
      3 C2        10.2425    3.2170    8.0551 C.ar      1 RES1    0.0000
      4 H2        10.8017    2.6400    8.5236 H         1 RES1    0.0000
      5 C3        10.0263    4.4915    8.5263 C.ar      1 RES1    0.0000
      6 H3        10.4276    4.7615    9.3211 H         1 RES1    0.0000
      7 C4         9.2250    5.3704    7.8370 C.ar      1 RES1    0.0000
      8 H4         9.0818    6.2310    8.1597 H         1 RES1    0.0000
      9 C5         8.6326    4.9577    6.6561 C.ar      1 RES1    0.0000
     10 C6         8.8150    3.6666    6.2025 C.ar      1 RES1    0.0000
     11 C7         8.0192    3.3898    4.9603 C.3       1 RES1    0.0000
     12 H5         7.4087    2.6492    5.0990 H         1 RES1    0.0000
     13 H6         8.6043    3.1770    4.2155 H         1 RES1    0.0000
     14 C8         7.2349    4.7086    4.6877 C.3       1 RES1    0.0000
     15 C9         7.7903    5.7567    5.7041 C.3       1 RES1    0.0000
     16 H7         8.3248    6.4272    5.2512 H         1 RES1    0.0000
     17 H8         7.0654    6.1990    6.1743 H         1 RES1    0.0000
     18 C10        7.4191    5.1625    3.2374 C.2       1 RES1    0.0000
     19 C11        6.8668    4.3119    2.1220 C.ar      1 RES1    0.0000
     20 C12        6.9670    4.8181    0.8309 C.ar      1 RES1    0.0000
     21 H9         7.3455    5.6565    0.6982 H         1 RES1    0.0000
     22 C13        6.5168    4.1027   -0.2498 C.ar      1 RES1    0.0000
     23 H10        6.5971    4.4435   -1.1118 H         1 RES1    0.0000
     24 C14        5.9476    2.8811   -0.0347 C.ar      1 RES1    0.0000
     25 C15        5.8123    2.3491    1.2256 C.ar      1 RES1    0.0000
     26 H11        5.4189    1.5150    1.3467 H         1 RES1    0.0000
     27 C16        6.2692    3.0706    2.3013 C.ar      1 RES1    0.0000
     28 H12        6.1777    2.7243    3.1600 H         1 RES1    0.0000
     29 C17        5.7464    4.5690    4.9686 C.2       1 RES1    0.0000
     30 C18        3.6789    5.7475    4.7125 C.3       1 RES1    0.0000
     31 H13        3.4796    5.7856    5.6615 H         1 RES1    0.0000
     32 H14        3.2228    4.9811    4.3313 H         1 RES1    0.0000
     33 C19        3.2379    6.9998    4.0395 C.3       1 RES1    0.0000
     34 H15        3.6485    7.7546    4.4670 H         1 RES1    0.0000
     35 H16        2.2834    7.0767    4.0997 H         1 RES1    0.0000
     36 H17        3.4984    6.9752    3.1169 H         1 RES1    0.0000
     37 N1         5.4800    2.0956   -1.1879 N.pl3     1 RES1    0.0000
     38 O1         5.2156    3.6740    5.5496 O.2       1 RES1    0.0000
     39 O2         5.1151    5.6405    4.5001 O.3       1 RES1    0.0000
     40 O3         8.0074    6.1799    2.9677 O.2       1 RES1    0.0000
     41 O4         4.9288    1.0377   -0.9778 O.2       1 RES1    0.0000
     42 O5         5.6607    2.5477   -2.2937 O.2       1 RES1    0.0000
@<TRIPOS>BOND
     1    1    2 1
     2    3    1 ar
     3    4    3 1
     4    5    3 ar
     5    6    5 1
     6    7    5 ar
     7    8    7 1
     8    9    7 ar
     9   10    1 ar
    10   11   10 1
    11   12   11 1
    12   13   11 1
    13   14   11 1
    14   15    9 1
    15   16   15 1
    16   17   15 1
    17   18   14 1
    18   19   18 1
    19   20   19 ar
    20   21   20 1
    21   22   20 ar
    22   23   22 1
    23   24   22 ar
    24   25   24 ar
    25   26   25 1
    26   27   19 ar
    27   28   27 1
    28   29   14 1
    29   30   31 1
    30   32   30 1
    31   33   30 1
    32   34   33 1
    33   35   33 1
    34   36   33 1
    35   37   24 1
    36   38   29 2
    37   39   29 1
    38   40   18 2
    39   41   37 2
    40   42   37 2
    41    9   10 ar
    42   14   15 1
    43   25   27 ar
    44   30   39 1
@<TRIPOS>SUBSTRUCTURE
     1 RES1 1

@<TRIPOS>CRYSIN
   8.0757    6.1510   33.1160  90.0000  92.3300  90.0000  14 1

