# MOL2 file generated by ConQuest
# Please check atom types

@<TRIPOS>MOLECULE
PEWNIO
    52    54     1
SMALL
NO_CHARGES
****
Generated from CSD

@<TRIPOS>ATOM
      1 C1         3.4823    4.2176    2.0794 C.2       1 RES1    0.0000
      2 C2         2.6155    3.9565    1.0355 C.2       1 RES1    0.0000
      3 C3         1.9926    5.0349    0.3023 C.2       1 RES1    0.0000
      4 C4         1.9361    6.2513    0.8318 C.2       1 RES1    0.0000
      5 C5         2.3897    6.5098    2.2347 C.3       1 RES1    0.0000
      6 C6         3.6169    5.6587    2.5087 C.3       1 RES1    0.0000
      7 C7         4.5398    3.9659    5.0274 C.ar      1 RES1    0.0000
      8 C8         3.3567    3.3760    5.4115 C.ar      1 RES1    0.0000
      9 C9         2.8075    3.7048    6.6408 C.ar      1 RES1    0.0000
     10 C10        3.4100    4.6249    7.4508 C.ar      1 RES1    0.0000
     11 C11        4.5842    5.2054    7.0717 C.ar      1 RES1    0.0000
     12 C12        5.1643    4.8928    5.8441 C.ar      1 RES1    0.0000
     13 C13        6.4377    3.2393    3.5826 C.ar      1 RES1    0.0000
     14 C14        7.0547    3.2907    2.3366 C.ar      1 RES1    0.0000
     15 C15        8.3393    2.8334    2.1796 C.ar      1 RES1    0.0000
     16 C16        9.0370    2.3165    3.2452 C.ar      1 RES1    0.0000
     17 C17        8.4332    2.2732    4.4778 C.ar      1 RES1    0.0000
     18 C18        7.1518    2.7278    4.6683 C.ar      1 RES1    0.0000
     19 C19        1.2739    6.1634    3.2352 C.3       1 RES1    0.0000
     20 C20        1.4867    6.6857    4.6165 C.2       1 RES1    0.0000
     21 C21        0.4733    6.3393    5.6437 C.3       1 RES1    0.0000
     22 N1         2.4040    2.6399    0.5428 N.pl3     1 RES1    0.0000
     23 N2         1.3926    7.3419    0.0768 N.pl3     1 RES1    0.0000
     24 N3         4.8083    6.2540    1.7671 N.pl3     1 RES1    0.0000
     25 N4         4.2200    3.3192    2.7358 N.3       1 RES1    0.0000
     26 N5         5.1203    3.7359    3.7313 N.3       1 RES1    0.0000
     27 O1         2.9933    1.7049    1.0890 O.2       1 RES1    0.0000
     28 O2         1.6363    2.4829   -0.4059 O.2       1 RES1    0.0000
     29 O3         1.2454    8.4217    0.6480 O.2       1 RES1    0.0000
     30 O4         1.0995    7.1565   -1.1040 O.2       1 RES1    0.0000
     31 O5         2.4523    7.3920    4.8703 O.2       1 RES1    0.0000
     32 O6         5.2231    7.3176    2.1780 O.2       1 RES1    0.0000
     33 O7         5.2447    5.6654    0.8084 O.2       1 RES1    0.0000
     34 H1         1.5344    4.8441   -0.5679 H         1 RES1    0.0000
     35 H2         2.7966    7.4285    2.3216 H         1 RES1    0.0000
     36 H3         0.5444    6.5490    2.9396 H         1 RES1    0.0000
     37 H4         1.1367    5.1688    3.2903 H         1 RES1    0.0000
     38 H5        -0.3755    6.8602    5.3447 H         1 RES1    0.0000
     39 H6         0.5495    5.3583    5.7288 H         1 RES1    0.0000
     40 H7         0.8999    6.5490    6.5305 H         1 RES1    0.0000
     41 H8         3.7816    5.7371    3.4239 H         1 RES1    0.0000
     42 H9         4.0393    2.3409    2.4719 H         1 RES1    0.0000
     43 H10        3.0780    2.6385    4.8603 H         1 RES1    0.0000
     44 H11        1.7425    3.1527    6.8479 H         1 RES1    0.0000
     45 H12        3.1020    4.9659    8.3177 H         1 RES1    0.0000
     46 H13        5.0625    5.8995    7.7164 H         1 RES1    0.0000
     47 H14        5.9194    5.3042    5.5284 H         1 RES1    0.0000
     48 H15        6.4383    3.6940    1.6034 H         1 RES1    0.0000
     49 H16        8.6306    2.8686    1.3195 H         1 RES1    0.0000
     50 H17       10.0223    1.9891    3.1567 H         1 RES1    0.0000
     51 H18        8.8305    1.9485    5.1276 H         1 RES1    0.0000
     52 H19        6.6999    2.6791    5.6453 H         1 RES1    0.0000
@<TRIPOS>BOND
     1    1    2 2
     2    2    3 1
     3    3    4 2
     4    4    5 1
     5    5    6 1
     6    6    1 1
     7    7    8 ar
     8    8    9 ar
     9    9   10 ar
    10   10   11 ar
    11   11   12 ar
    12   12    7 ar
    13   13   14 ar
    14   14   15 ar
    15   15   16 ar
    16   16   17 ar
    17   17   18 ar
    18   18   13 ar
    19   19    5 1
    20   20   19 1
    21   21   20 1
    22   22    2 1
    23   23    4 1
    24   24    6 1
    25   25    1 1
    26   26    7 1
    27   27   22 2
    28   28   22 2
    29   29   23 2
    30   30   23 2
    31   31   20 2
    32   32   24 2
    33   33   24 2
    34   34    3 1
    35   35    5 1
    36   36   19 1
    37   37   19 1
    38   38   21 1
    39   39   21 1
    40   40   21 1
    41   41    6 1
    42   42   25 1
    43   43    8 1
    44   44    9 1
    45   45   10 1
    46   46   11 1
    47   47   12 1
    48   48   14 1
    49   49   15 1
    50   50   16 1
    51   51   17 1
    52   52   18 1
    53   13   26 1
    54   25   26 1
@<TRIPOS>SUBSTRUCTURE
     1 RES1 1

@<TRIPOS>CRYSIN
   9.2540   13.5310   17.3910  90.0000 106.1800  90.0000  14 1

