# MOL2 file generated by ConQuest
# Please check atom types

@<TRIPOS>MOLECULE
PEWROB
    30    23     2
SMALL
NO_CHARGES
****
Generated from CSD

@<TRIPOS>ATOM
      1 O1        10.0123    1.9350   11.0693 Du        2 SUP2    0.0000
      2 C1         8.6198    3.9524   10.5208 C.3       1 RES1    0.0000
      3 H1         8.3728    4.9003   10.4973 H         1 RES1    0.0000
      4 C2         7.7482    3.0325   11.2889 C.3       1 RES1    0.0000
      5 H2         6.9647    3.4117   11.7370 H         1 RES1    0.0000
      6 C3         5.3307    2.6599    7.6449 C.3       1 RES1    0.0000
      7 H3         4.3976    2.5080    7.4790 H         1 RES1    0.0000
      8 H4         5.8467    2.3133    6.9125 H         1 RES1    0.0000
      9 H5         5.4907    3.6021    7.7308 H         1 RES1    0.0000
     10 C4         5.7324    1.9673    8.9104 C.2       1 RES1    0.0000
     11 C5         7.5848    1.7394   10.5870 C.3       1 RES1    0.0000
     12 H6         7.0205    1.1154   11.0894 H         1 RES1    0.0000
     13 C6         9.0128    1.1316   10.2700 C.2       1 RES1    0.0000
     14 H7         9.2804    0.2848   10.5442 H         1 RES1    0.0000
     15 C7         9.7773    1.9392    9.5851 C.2       1 RES1    0.0000
     16 H8        10.6449    1.7411    9.3141 H         1 RES1    0.0000
     17 C8         9.0128    3.3269    9.2726 C.3       1 RES1    0.0000
     18 H9         9.5906    3.9269    8.7572 H         1 RES1    0.0000
     19 N1         7.0469    2.0158    9.2410 N.am      1 RES1    0.0000
     20 O2         4.9501    1.3296    9.6109 O.2       1 RES1    0.0000
     21 O3         7.8487    2.9333    8.4794 O.3       1 RES1    0.0000
     22 O4         9.0835    3.3968   11.8054 O.3       1 RES1    0.0000
     23 C9         8.9061    1.2361   10.4215 Du        2 SUP2    0.0000
     24 H10        9.0131    0.2789   10.2380 Du        2 SUP2    0.0000
     25 C10        9.7311    2.1892    9.6395 Du        2 SUP2    0.0000
     26 H11       10.3545    1.8151    8.9823 Du        2 SUP2    0.0000
     27 C11        8.3294    4.0043   10.5325 Du        2 SUP2    0.0000
     28 H12        8.4314    4.9020   10.7544 Du        2 SUP2    0.0000
     29 C12        7.6082    3.1651   11.2228 Du        2 SUP2    0.0000
     30 H13        7.1612    3.3904   12.0059 Du        2 SUP2    0.0000
@<TRIPOS>BOND
     1    2    3 1
     2    4    2 1
     3    5    4 1
     4    6    7 1
     5    8    6 1
     6    9    6 1
     7   10    6 1
     8   11    4 1
     9   12   11 1
    10   13   11 1
    11   14   13 1
    12   15   13 2
    13   16   15 1
    14   17    2 1
    15   18   17 1
    16   19   10 1
    17   20   10 2
    18   21   17 1
    19   22    2 1
    20    4   22 1
    21   11   19 1
    22   15   17 1
    23   19   21 1
@<TRIPOS>SUBSTRUCTURE
     1 RES1 2
     2 SUP2 1

@<TRIPOS>CRYSIN
   8.1886    8.5016   10.8520  90.0000 100.5350  90.0000  14 1

