# MOL2 file generated by ConQuest
# Please check atom types

@<TRIPOS>MOLECULE
PEWVUK
    53    58     1
SMALL
NO_CHARGES
****
Generated from CSD

@<TRIPOS>ATOM
      1 C1        -0.9066    7.8004   10.0829 C.ar      1 RES1    0.0000
      2 C2        -1.1538    6.5743   10.6939 C.ar      1 RES1    0.0000
      3 H1        -1.9926    6.1796   10.6219 H         1 RES1    0.0000
      4 C3        -0.1502    5.9432   11.4088 C.ar      1 RES1    0.0000
      5 H2        -0.3206    5.1348   11.8335 H         1 RES1    0.0000
      6 C4         1.1057    6.5148   11.4919 C.ar      1 RES1    0.0000
      7 H3         1.7818    6.0834   11.9629 H         1 RES1    0.0000
      8 C5         1.3609    7.7270   10.8765 C.ar      1 RES1    0.0000
      9 H4         2.2084    8.1060   10.9305 H         1 RES1    0.0000
     10 C6         0.3580    8.3734   10.1821 C.ar      1 RES1    0.0000
     11 H5         0.5280    9.1934    9.7798 H         1 RES1    0.0000
     12 C7        -1.9789    8.5672    9.3836 C.2       1 RES1    0.0000
     13 C8        -3.1408    7.8047    8.7366 C.3       1 RES1    0.0000
     14 H6        -3.8355    7.6518    9.4103 H         1 RES1    0.0000
     15 C9        -3.7574    8.5651    7.5455 C.3       1 RES1    0.0000
     16 H7        -3.2892    9.4216    7.4555 H         1 RES1    0.0000
     17 C10       -5.2420    8.8484    7.6483 C.ar      1 RES1    0.0000
     18 C11       -5.7257   10.0684    7.1883 C.ar      1 RES1    0.0000
     19 H8        -5.1327   10.7126    6.8730 H         1 RES1    0.0000
     20 C12       -7.0870   10.3309    7.1974 C.ar      1 RES1    0.0000
     21 H9        -7.4009   11.1489    6.8874 H         1 RES1    0.0000
     22 C13       -7.9789    9.3874    7.6632 C.ar      1 RES1    0.0000
     23 H10       -8.8925    9.5626    7.6568 H         1 RES1    0.0000
     24 C14       -7.5028    8.1776    8.1404 C.ar      1 RES1    0.0000
     25 H11       -8.0983    7.5422    8.4684 H         1 RES1    0.0000
     26 C15       -6.1439    7.9069    8.1324 C.ar      1 RES1    0.0000
     27 H12       -5.8328    7.0903    8.4524 H         1 RES1    0.0000
     28 C16       -3.3692    7.6709    6.3306 C.3       1 RES1    0.0000
     29 C17       -4.4831    6.8871    5.6426 C.3       1 RES1    0.0000
     30 H13       -4.6322    6.0409    6.0935 H         1 RES1    0.0000
     31 H14       -5.3106    7.3945    5.6504 H         1 RES1    0.0000
     32 C18       -2.9967    7.4836    3.9749 C.2       1 RES1    0.0000
     33 C19       -2.5851    8.2920    5.1870 C.3       1 RES1    0.0000
     34 H15       -2.7932    9.2426    5.0780 H         1 RES1    0.0000
     35 C20       -1.0918    8.0675    5.5611 C.3       1 RES1    0.0000
     36 H16       -0.7122    7.3766    4.9791 H         1 RES1    0.0000
     37 C21       -0.2173    9.2932    5.5116 C.ar      1 RES1    0.0000
     38 C22        0.9032    9.2907    4.6997 C.ar      1 RES1    0.0000
     39 H17        1.1286    8.5222    4.2283 H         1 RES1    0.0000
     40 C23        1.6929   10.4246    4.5825 C.ar      1 RES1    0.0000
     41 H18        2.4353   10.4195    4.0220 H         1 RES1    0.0000
     42 C24        1.3771   11.5614    5.2980 C.ar      1 RES1    0.0000
     43 H19        1.9053   12.3235    5.2192 H         1 RES1    0.0000
     44 C25        0.2760   11.5675    6.1307 C.ar      1 RES1    0.0000
     45 H20        0.0711   12.3302    6.6219 H         1 RES1    0.0000
     46 C26       -0.5241   10.4425    6.2373 C.ar      1 RES1    0.0000
     47 H21       -1.2686   10.4530    6.7952 H         1 RES1    0.0000
     48 N1        -2.3648    6.7016    6.8721 N.3       1 RES1    0.0000
     49 O1        -1.9733    9.7823    9.3627 O.2       1 RES1    0.0000
     50 O2        -2.7093    6.5188    8.2056 O.3       1 RES1    0.0000
     51 O3        -1.1557    7.5708    6.9090 O.3       1 RES1    0.0000
     52 O4        -4.0341    6.6665    4.2820 O.3       1 RES1    0.0000
     53 O5        -2.5156    7.4975    2.8774 O.2       1 RES1    0.0000
@<TRIPOS>BOND
     1    1    2 ar
     2    2    3 1
     3    4    2 ar
     4    5    4 1
     5    6    4 ar
     6    7    6 1
     7    8    6 ar
     8    9    8 1
     9   10    1 ar
    10   11   10 1
    11   12    1 1
    12   13   12 1
    13   14   13 1
    14   15   13 1
    15   16   15 1
    16   17   15 1
    17   18   17 ar
    18   19   18 1
    19   20   18 ar
    20   21   20 1
    21   22   20 ar
    22   23   22 1
    23   24   22 ar
    24   25   24 1
    25   26   17 ar
    26   27   26 1
    27   28   15 1
    28   29   28 1
    29   30   29 1
    30   31   29 1
    31   32   33 1
    32   33   28 1
    33   34   33 1
    34   35   33 1
    35   36   35 1
    36   37   35 1
    37   38   37 ar
    38   39   38 1
    39   40   38 ar
    40   41   40 1
    41   42   40 ar
    42   43   42 1
    43   44   42 ar
    44   45   44 1
    45   46   37 ar
    46   47   46 1
    47   48   28 1
    48   49   12 2
    49   50   13 1
    50   51   35 1
    51   52   29 1
    52   53   32 2
    53    8   10 ar
    54   24   26 ar
    55   32   52 1
    56   44   46 ar
    57   48   50 1
    58   48   51 1
@<TRIPOS>SUBSTRUCTURE
     1 RES1 1

@<TRIPOS>CRYSIN
  11.1729   22.3738    8.8833  90.0000 107.8660  90.0000  14 1

