# MOL2 file generated by ConQuest
# Please check atom types

@<TRIPOS>MOLECULE
PEWYOH
    44    48     1
SMALL
USER_CHARGES
****
Generated from CSD

@<TRIPOS>ATOM
      1 C1         2.9496   20.2689    0.1188 C.3       1 RES1    0.0000
      2 H1         3.1468   20.5038   -0.7904 H         1 RES1    0.0000
      3 H2         3.5606   20.7197    0.7063 H         1 RES1    0.0000
      4 H3         2.0509   20.5334    0.3295 H         1 RES1    0.0000
      5 C2         3.0888   18.7746    0.2955 C.ar      1 RES1    0.0000
      6 C3         4.0857   18.2395    1.0838 C.ar      1 RES1    0.0000
      7 H4         4.6619   18.8140    1.5335 H         1 RES1    0.0000
      8 C4         4.2557   16.8621    1.2281 C.ar      1 RES1    0.0000
      9 C5         3.3580   16.0079    0.5741 C.ar      1 RES1    0.0000
     10 C6         2.3418   16.5328   -0.2291 C.ar      1 RES1    0.0000
     11 H5         1.7490   15.9723   -0.6738 H         1 RES1    0.0000
     12 C7         2.2386   17.9026   -0.3464 C.ar      1 RES1    0.0000
     13 H6         1.5653   18.2528   -0.8837 H         1 RES1    0.0000
     14 C8         5.5619   15.1340    2.0793 C.2       1 RES1    0.0000
     15 C9         4.7166   14.1659    1.4338 C.2       1 RES1    0.0000
     16 C10        4.6942   12.8016    1.2903 C.2       1 RES1    0.0000
     17 H7         5.3248   12.2074    1.6289 H         1 RES1    0.0000
     18 C11        3.5621   12.4562    0.5472 C.2       1 RES1    0.0000
     19 C12        3.0904   11.1391    0.1138 C.ar      1 RES1    0.0000
     20 C13        3.8876   10.0285    0.3394 C.ar      1 RES1    0.0000
     21 H8         4.7038   10.1365    0.7728 H         1 RES1    0.0000
     22 C14        3.4988    8.7671   -0.0636 C.ar      1 RES1    0.0000
     23 H9         4.0502    8.0380    0.1032 H         1 RES1    0.0000
     24 C15        2.3200    8.5888   -0.7006 C.ar      1 RES1    0.0000
     25 H10        2.0691    7.7416   -0.9912 H         1 RES1    0.0000
     26 C16        1.4997    9.6622   -0.9156 C.ar      1 RES1    0.0000
     27 H11        0.6804    9.5372   -1.3355 H         1 RES1    0.0000
     28 C17        1.8781   10.9341   -0.5140 C.ar      1 RES1    0.0000
     29 H12        1.3105   11.6547   -0.6688 H         1 RES1    0.0000
     30 C18        6.7728   14.7139    2.8322 C.ar      1 RES1    0.0000
     31 C19        7.8889   15.5475    2.8025 C.ar      1 RES1    0.0000
     32 H13        7.8605   16.3365    2.3098 H         1 RES1    0.0000
     33 C20        9.0275   15.2210    3.4912 C.ar      1 RES1    0.0000
     34 H14        9.7660   15.7860    3.4565 H         1 RES1    0.0000
     35 C21        9.0855   14.0574    4.2370 C.ar      1 RES1    0.0000
     36 H15        9.8586   13.8379    4.7044 H         1 RES1    0.0000
     37 C22        7.9865   13.2278    4.2816 C.ar      1 RES1    0.0000
     38 H16        8.0199   12.4445    4.7836 H         1 RES1    0.0000
     39 C23        6.8346   13.5473    3.5880 C.ar      1 RES1    0.0000
     40 H17        6.0982   12.9803    3.6255 H         1 RES1    0.0000
     41 N1         5.3296   16.4113    1.9973 N.2       1 RES1    0.0000
     42 N2         3.6128   14.6495    0.7593 N.pl3     1 RES1    0.0000
     43 N3         2.9099   13.6047    0.2390 N.pl3     1 RES1    1.0000
     44 O1         1.8092   13.7915   -0.3853 O.2       1 RES1   -1.0000
@<TRIPOS>BOND
     1    1    2 1
     2    3    1 1
     3    4    1 1
     4    5    1 1
     5    6    5 ar
     6    7    6 1
     7    8    6 ar
     8    9    8 ar
     9   10    9 ar
    10   11   10 1
    11   12    5 ar
    12   13   12 1
    13   14   15 1
    14   15   16 2
    15   16   17 1
    16   18   16 1
    17   19   18 1
    18   20   19 ar
    19   21   20 1
    20   22   20 ar
    21   23   22 1
    22   24   22 ar
    23   25   24 1
    24   26   24 ar
    25   27   26 1
    26   28   19 ar
    27   29   28 1
    28   30   14 1
    29   31   30 ar
    30   32   31 1
    31   33   31 ar
    32   34   33 1
    33   35   33 ar
    34   36   35 1
    35   37   35 ar
    36   38   37 1
    37   39   30 ar
    38   40   39 1
    39   41    8 1
    40   42    9 1
    41   43   18 2
    42   44   43 1
    43   10   12 ar
    44   14   41 2
    45   15   42 1
    46   26   28 ar
    47   37   39 ar
    48   42   43 1
@<TRIPOS>SUBSTRUCTURE
     1 RES1 1

@<TRIPOS>CRYSIN
  11.5610   21.1750    7.3777  90.0000 106.6060  90.0000  14 1

