# MOL2 file generated by ConQuest
# Please check atom types

@<TRIPOS>MOLECULE
PEYDUU
    35    36     1
SMALL
NO_CHARGES
****
Generated from CSD

@<TRIPOS>ATOM
      1 C1         0.8196   11.7139   12.6423 C.3       1 RES1    0.0000
      2 H1        -0.0719   12.0204   12.8239 H         1 RES1    0.0000
      3 H2         1.4506   12.2799   13.0918 H         1 RES1    0.0000
      4 H3         0.9184   10.8126   12.9578 H         1 RES1    0.0000
      5 O1         7.6300    8.5800    7.3684 O.3       1 RES1    0.0000
      6 O2         8.3960    7.2217    8.9446 O.2       1 RES1    0.0000
      7 C2         7.3815    7.8568   11.6734 C.ar      1 RES1    0.0000
      8 H4         8.1723    8.2984   11.4605 H         1 RES1    0.0000
      9 O3         1.0585   11.7543   11.2361 O.3       1 RES1    0.0000
     10 C3         6.3594    7.8144   10.7431 C.ar      1 RES1    0.0000
     11 C4         5.6227    9.4303    8.9779 C.2       1 RES1    0.0000
     12 H5         5.7819    9.7156    8.1072 H         1 RES1    0.0000
     13 C5         4.5041   10.0767    9.6283 C.ar      1 RES1    0.0000
     14 C6         4.3518   10.2087   11.0095 C.ar      1 RES1    0.0000
     15 H6         5.0277    9.8931   11.5647 H         1 RES1    0.0000
     16 C7         2.3725   11.1859    9.4006 C.ar      1 RES1    0.0000
     17 H7         1.7064   11.5319    8.8514 H         1 RES1    0.0000
     18 C8         7.5650    8.0693    8.5492 C.2       1 RES1    0.0000
     19 C9         5.0801    6.5064   12.2985 C.ar      1 RES1    0.0000
     20 H8         4.3054    6.0375   12.5128 H         1 RES1    0.0000
     21 C10        6.4703    8.4835    9.4228 C.2       1 RES1    0.0000
     22 C11        2.2372   11.2466   10.7744 C.ar      1 RES1    0.0000
     23 C12        6.0917    6.5990   13.1900 C.ar      1 RES1    0.0000
     24 C13        3.2511   10.7823   11.5781 C.ar      1 RES1    0.0000
     25 H9         3.1884   10.8597   12.5024 H         1 RES1    0.0000
     26 C14        5.2111    7.1133   11.0706 C.ar      1 RES1    0.0000
     27 H10        4.5192    7.0526   10.4529 H         1 RES1    0.0000
     28 C15        7.2539    7.2590   12.9057 C.ar      1 RES1    0.0000
     29 H11        7.9413    7.3045   13.5294 H         1 RES1    0.0000
     30 C16        3.4916   10.6154    8.8499 C.ar      1 RES1    0.0000
     31 H12        3.5733   10.5881    7.9241 H         1 RES1    0.0000
     32 N1         5.9575    5.9768   14.5147 N.pl3     1 RES1    0.0000
     33 O4         4.9195    5.3820   14.7640 O.2       1 RES1    0.0000
     34 O5         6.8674    6.0633   15.3007 O.2       1 RES1    0.0000
     35 H13        8.5865    8.2240    6.7275 H         1 RES1    0.0000
@<TRIPOS>BOND
     1    1    2 1
     2    3    1 1
     3    4    1 1
     4    5   18 1
     5    6   18 2
     6    7    8 1
     7    9    1 1
     8   10    7 ar
     9   11   12 1
    10   13   11 1
    11   14   13 ar
    12   15   14 1
    13   16   17 1
    14   18   21 1
    15   19   20 1
    16   21   10 1
    17   22    9 1
    18   23   19 ar
    19   24   14 ar
    20   25   24 1
    21   26   10 ar
    22   27   26 1
    23   28    7 ar
    24   29   28 1
    25   30   13 ar
    26   31   30 1
    27   32   23 1
    28   33   32 2
    29   34   32 2
    30   35    5 1
    31   11   21 2
    32   16   22 ar
    33   16   30 ar
    34   19   26 ar
    35   22   24 ar
    36   23   28 ar
@<TRIPOS>SUBSTRUCTURE
     1 RES1 1

@<TRIPOS>CRYSIN
   6.5267   15.1735   14.9585  90.0000  95.7290  90.0000  14 1

