# MOL2 file generated by ConQuest
# Please check atom types

@<TRIPOS>MOLECULE
PEYTIX
    40    41     1
SMALL
NO_CHARGES
****
Generated from CSD

@<TRIPOS>ATOM
      1 C1        11.4930    3.5519   33.0852 C.ar      1 RES1    0.0000
      2 C2        11.2763    4.9049   33.2652 C.ar      1 RES1    0.0000
      3 H1        11.1900    5.2728   34.1368 H         1 RES1    0.0000
      4 C3        11.1884    5.7075   32.1492 C.ar      1 RES1    0.0000
      5 H2        11.0359    6.6390   32.2613 H         1 RES1    0.0000
      6 C4        11.3173    5.1899   30.8571 C.ar      1 RES1    0.0000
      7 C5        11.5671    3.8201   30.7270 C.ar      1 RES1    0.0000
      8 H3        11.6795    3.4481   29.8598 H         1 RES1    0.0000
      9 C6        11.6543    3.0022   31.8246 C.ar      1 RES1    0.0000
     10 H4        11.8231    2.0734   31.7215 H         1 RES1    0.0000
     11 C7        11.1567    6.0761   29.7141 C.2       1 RES1    0.0000
     12 H5        10.9785    6.9881   29.9117 H         1 RES1    0.0000
     13 C8        11.2298    5.7570   28.4158 C.2       1 RES1    0.0000
     14 H6        11.4550    4.8631   28.1850 H         1 RES1    0.0000
     15 C9        10.9866    6.6912   27.3517 C.2       1 RES1    0.0000
     16 H7        10.7892    7.5845   27.6071 H         1 RES1    0.0000
     17 C10       11.0097    6.4339   26.0322 C.2       1 RES1    0.0000
     18 H8        10.7957    7.1602   25.4582 H         1 RES1    0.0000
     19 C11       11.3204    5.1844   25.3883 C.2       1 RES1    0.0000
     20 H9        11.6155    4.4576   25.9253 H         1 RES1    0.0000
     21 C12       11.2122    5.0017   24.0685 C.2       1 RES1    0.0000
     22 H10       10.9367    5.7577   23.5653 H         1 RES1    0.0000
     23 C13       11.4655    3.7829   23.3089 C.ar      1 RES1    0.0000
     24 C14       11.1344    3.7318   21.9552 C.ar      1 RES1    0.0000
     25 H11       10.7840    4.5113   21.5410 H         1 RES1    0.0000
     26 C15       11.2968    2.5883   21.1963 C.ar      1 RES1    0.0000
     27 H12       11.0503    2.5841   20.2779 H         1 RES1    0.0000
     28 C16       11.8202    1.4510   21.7825 C.ar      1 RES1    0.0000
     29 C17       12.1987    1.4833   23.1262 C.ar      1 RES1    0.0000
     30 H13       12.5868    0.7141   23.5273 H         1 RES1    0.0000
     31 C18       12.0124    2.6222   23.8750 C.ar      1 RES1    0.0000
     32 H14       12.2591    2.6225   24.7938 H         1 RES1    0.0000
     33 C19       11.6321    0.1644   19.7734 C.3       1 RES1    0.0000
     34 H15       10.6809    0.3874   19.6897 H         1 RES1    0.0000
     35 H16       11.7826   -0.7504   19.4544 H         1 RES1    0.0000
     36 H17       12.1625    0.7887   19.2364 H         1 RES1    0.0000
     37 N1        11.5317    2.6733   34.2458 N.pl3     1 RES1    0.0000
     38 O1        11.3759    3.1651   35.3570 O.2       1 RES1    0.0000
     39 O2        11.7127    1.4738   34.0777 O.2       1 RES1    0.0000
     40 O3        12.0244    0.2633   21.1417 O.3       1 RES1    0.0000
@<TRIPOS>BOND
     1    1    2 ar
     2    2    3 1
     3    4    2 ar
     4    5    4 1
     5    6    4 ar
     6    7    6 ar
     7    8    7 1
     8    9    1 ar
     9   10    9 1
    10   11    6 1
    11   12   11 1
    12   13   11 2
    13   14   13 1
    14   15   13 1
    15   16   15 1
    16   17   15 2
    17   18   17 1
    18   19   17 1
    19   20   19 1
    20   21   19 2
    21   22   21 1
    22   23   21 1
    23   24   23 ar
    24   25   24 1
    25   26   24 ar
    26   27   26 1
    27   28   26 ar
    28   29   28 ar
    29   30   29 1
    30   31   23 ar
    31   32   31 1
    32   33   34 1
    33   35   33 1
    34   36   33 1
    35   37    1 1
    36   38   37 2
    37   39   37 2
    38   40   28 1
    39    7    9 ar
    40   29   31 ar
    41   33   40 1
@<TRIPOS>SUBSTRUCTURE
     1 RES1 1

@<TRIPOS>CRYSIN
  13.0541    6.9672   34.6040  90.0000  90.0000  90.0000  60 1

