# MOL2 file generated by ConQuest
# Please check atom types

@<TRIPOS>MOLECULE
PEZGOS
    50    52     1
SMALL
NO_CHARGES
****
Generated from CSD

@<TRIPOS>ATOM
      1 C1         3.1143    3.2313    9.1862 C.3       1 RES1    0.0000
      2 C2         3.7895    4.3933    8.3776 C.2       1 RES1    0.0000
      3 C3         3.5401    4.1872    6.9196 C.3       1 RES1    0.0000
      4 H1         4.3343    3.8328    6.4905 H         1 RES1    0.0000
      5 H2         3.3108    5.0284    6.4963 H         1 RES1    0.0000
      6 C4         2.3790    3.1935    6.7880 C.3       1 RES1    0.0000
      7 C5         2.4675    2.3649    8.1015 C.3       1 RES1    0.0000
      8 H3         1.5796    2.0925    8.3819 H         1 RES1    0.0000
      9 H4         2.9991    1.5678    7.9542 H         1 RES1    0.0000
     10 C6         2.5399    2.2934    5.5664 C.3       1 RES1    0.0000
     11 H5         1.8350    1.6414    5.5549 H         1 RES1    0.0000
     12 H6         3.3886    1.8465    5.6080 H         1 RES1    0.0000
     13 H7         2.4965    2.8254    4.7685 H         1 RES1    0.0000
     14 C7         1.0497    3.9180    6.6828 C.3       1 RES1    0.0000
     15 H8         1.0062    4.3859    5.8462 H         1 RES1    0.0000
     16 H9         0.9689    4.5447    7.4046 H         1 RES1    0.0000
     17 H10        0.3337    3.2797    6.7287 H         1 RES1    0.0000
     18 C8         2.1422    3.9201   10.1631 C.2       1 RES1    0.0000
     19 C9         2.1864    5.3743   12.1828 C.ar      1 RES1    0.0000
     20 C10        2.9503    5.6309   13.3082 C.ar      1 RES1    0.0000
     21 H11        3.7871    5.2355   13.3987 H         1 RES1    0.0000
     22 C11        2.4763    6.4711   14.2941 C.ar      1 RES1    0.0000
     23 H12        3.0025    6.6330   15.0432 H         1 RES1    0.0000
     24 C12        1.2435    7.0736   14.1965 C.ar      1 RES1    0.0000
     25 C13        0.4788    6.7949   13.0686 C.ar      1 RES1    0.0000
     26 H13       -0.3621    7.1840   12.9868 H         1 RES1    0.0000
     27 C14        0.9339    5.9516   12.0598 C.ar      1 RES1    0.0000
     28 H14        0.4056    5.7781   11.3150 H         1 RES1    0.0000
     29 C15        3.8487    1.2902   10.5319 C.ar      1 RES1    0.0000
     30 C16        2.5882    1.0368   11.0481 C.ar      1 RES1    0.0000
     31 H15        1.9207    1.6803   10.9778 H         1 RES1    0.0000
     32 C17        2.3172   -0.1777   11.6723 C.ar      1 RES1    0.0000
     33 H16        1.4728   -0.3281   12.0311 H         1 RES1    0.0000
     34 C18        3.2750   -1.1556   11.7642 C.ar      1 RES1    0.0000
     35 H17        3.0836   -1.9705   12.1703 H         1 RES1    0.0000
     36 C19        4.5212   -0.9054   11.2461 C.ar      1 RES1    0.0000
     37 H18        5.1795   -1.5594   11.3021 H         1 RES1    0.0000
     38 C20        4.8161    0.3134   10.6391 C.ar      1 RES1    0.0000
     39 H19        5.6699    0.4690   10.3033 H         1 RES1    0.0000
     40 C21        0.7315    8.0315   15.2512 C.3       1 RES1    0.0000
     41 H20        1.1432    7.8286   16.0950 H         1 RES1    0.0000
     42 H21       -0.2209    7.9421   15.3302 H         1 RES1    0.0000
     43 H22        0.9487    8.9316   14.9987 H         1 RES1    0.0000
     44 N1         2.7531    4.5278   11.1916 N.am      1 RES1    0.0000
     45 H23        3.6788    4.2061   11.2791 H         1 RES1    0.0000
     46 N2         4.1857    2.5647    9.9582 N.3       1 RES1    0.0000
     47 O1         4.3966    5.2976    8.8924 O.2       1 RES1    0.0000
     48 O2         0.9302    3.9558    9.9743 O.2       1 RES1    0.0000
     49 O3         5.2827    2.3796    9.0407 O.3       1 RES1    0.0000
     50 H24        5.8531    2.9527    9.1783 H         1 RES1    0.0000
@<TRIPOS>BOND
     1    1    2 1
     2    2    3 1
     3    3    4 1
     4    5    3 1
     5    6    3 1
     6    7    1 1
     7    8    7 1
     8    9    7 1
     9   10    6 1
    10   11   10 1
    11   12   10 1
    12   13   10 1
    13   14    6 1
    14   15   14 1
    15   16   14 1
    16   17   14 1
    17   18    1 1
    18   19   20 ar
    19   20   21 1
    20   22   20 ar
    21   23   22 1
    22   24   22 ar
    23   25   24 ar
    24   26   25 1
    25   27   19 ar
    26   28   27 1
    27   29   30 ar
    28   30   31 1
    29   32   30 ar
    30   33   32 1
    31   34   32 ar
    32   35   34 1
    33   36   34 ar
    34   37   36 1
    35   38   29 ar
    36   39   38 1
    37   40   24 1
    38   41   40 1
    39   42   40 1
    40   43   40 1
    41   44   18 1
    42   45   44 1
    43   46    1 1
    44   47    2 2
    45   48   18 2
    46   49   46 1
    47   50   49 1
    48    6    7 1
    49   19   44 1
    50   25   27 ar
    51   29   46 1
    52   36   38 ar
@<TRIPOS>SUBSTRUCTURE
     1 RES1 1

@<TRIPOS>CRYSIN
   6.3189   10.5152   14.6184  90.0000 100.9950  90.0000   4 1

