# MOL2 file generated by ConQuest
# Please check atom types

@<TRIPOS>MOLECULE
PEZPAN
    45    46     2
SMALL
NO_CHARGES
****
Generated from CSD

@<TRIPOS>ATOM
      1 C1         0.0962    1.6542    8.3894 C.3       1 RES1    0.0000
      2 H1         0.0334    0.8055    8.8749 H         1 RES1    0.0000
      3 H2        -0.5311    2.2996    8.7765 H         1 RES1    0.0000
      4 H3         1.0094    2.0041    8.4603 H         1 RES1    0.0000
      5 C2        -0.2489    1.4279    6.9256 C.3       1 RES1    0.0000
      6 H4        -1.1855    1.1158    6.8578 H         1 RES1    0.0000
      7 H5        -0.1790    2.2866    6.4386 H         1 RES1    0.0000
      8 C3         0.6583    0.4149    6.2754 C.3       1 RES1    0.0000
      9 H6         0.5951   -0.4367    6.7761 H         1 RES1    0.0000
     10 H7         1.5932    0.7346    6.3433 H         1 RES1    0.0000
     11 C4         0.3373    0.1454    4.8107 C.3       1 RES1    0.0000
     12 H8        -0.5893   -0.1962    4.7439 H         1 RES1    0.0000
     13 H9         0.3809    0.9994    4.3111 H         1 RES1    0.0000
     14 C5         1.2770   -0.8522    4.1589 C.3       1 RES1    0.0000
     15 H10        1.2462   -1.7009    4.6667 H         1 RES1    0.0000
     16 H11        0.9598   -1.0390    3.2397 H         1 RES1    0.0000
     17 C6         2.7118   -0.3688    4.0942 C.3       1 RES1    0.0000
     18 H12        3.0480   -0.2364    5.0162 H         1 RES1    0.0000
     19 H13        2.7360    0.5077    3.6347 H         1 RES1    0.0000
     20 C7         3.6332   -1.3357    3.3649 C.3       1 RES1    0.0000
     21 H14        3.5350   -2.2375    3.7603 H         1 RES1    0.0000
     22 H15        3.3590   -1.3900    2.4151 H         1 RES1    0.0000
     23 C8         5.0538   -0.9285    3.4359 C.2       1 RES1    0.0000
     24 C9         6.8894    0.2606    3.1334 C.2       1 RES1    0.0000
     25 C10        6.3922    1.8475    1.8765 C.2       1 RES1    0.0000
     26 C11        6.5062    3.0354    1.0264 C.ar      1 RES1    0.0000
     27 C12        7.7446    3.5880    0.7515 C.ar      1 RES1    0.0000
     28 H16        8.5297    3.1997    1.1213 H         1 RES1    0.0000
     29 C13        7.8450    4.7055   -0.0596 C.ar      1 RES1    0.0000
     30 H17        8.6949    5.0773   -0.2663 H         1 RES1    0.0000
     31 C14        6.6980    5.2670   -0.5606 C.ar      1 RES1    0.0000
     32 C15        5.4558    4.7386   -0.3135 C.ar      1 RES1    0.0000
     33 H18        4.6756    5.1417   -0.6764 H         1 RES1    0.0000
     34 C16        5.3647    3.6104    0.4727 C.ar      1 RES1    0.0000
     35 H19        4.5136    3.2204    0.6386 H         1 RES1    0.0000
     36 N1         6.0026   -1.5319    4.0976 N.2       1 RES1    0.0000
     37 N2         7.1595   -0.7925    3.9115 N.3       1 RES1    0.0000
     38 H20        7.9165   -1.0224    4.2854 H         1 RES1    0.0000
     39 N3         7.4662    1.3032    2.5425 N.2       1 RES1    0.0000
     40 N4         5.5858    0.1915    2.8338 N.pl3     1 RES1    0.0000
     41 N5         5.2200    1.2204    2.0023 N.2       1 RES1    0.0000
     42 N6         6.8106    6.4774   -1.3949 N.pl3     1 RES1    0.0000
     43 O1         5.7903    6.8899   -1.9334 O.2       1 RES1    0.0000
     44 O2         7.9027    7.0087   -1.4972 O.2       1 RES1    0.0000
     45 H21        8.2405    1.5307    2.7237 Du        2 SUP2    0.0000
@<TRIPOS>BOND
     1    1    2 1
     2    3    1 1
     3    4    1 1
     4    5    1 1
     5    6    5 1
     6    7    5 1
     7    8    5 1
     8    9    8 1
     9   10    8 1
    10   11    8 1
    11   12   11 1
    12   13   11 1
    13   14   11 1
    14   15   14 1
    15   16   14 1
    16   17   14 1
    17   18   17 1
    18   19   17 1
    19   20   17 1
    20   21   20 1
    21   22   20 1
    22   23   20 1
    23   24   37 1
    24   25   26 1
    25   26   27 ar
    26   27   28 1
    27   29   27 ar
    28   30   29 1
    29   31   29 ar
    30   32   31 ar
    31   33   32 1
    32   34   26 ar
    33   35   34 1
    34   36   23 2
    35   37   36 1
    36   38   37 1
    37   39   24 2
    38   40   23 1
    39   41   25 2
    40   42   31 1
    41   43   42 2
    42   44   42 2
    43   24   40 1
    44   25   39 1
    45   32   34 ar
    46   40   41 1
@<TRIPOS>SUBSTRUCTURE
     1 RES1 1
     2 SUP2 45

@<TRIPOS>CRYSIN
  18.5940    5.9100   15.4220  90.0000 101.1300  90.0000  14 1

