# MOL2 file generated by ConQuest
# Please check atom types

@<TRIPOS>MOLECULE
PEZZEC
    53    55     1
SMALL
NO_CHARGES
****
Generated from CSD

@<TRIPOS>ATOM
      1 O1         3.5826   13.5208    4.7902 O.3       1 RES1    0.0000
      2 O2        -1.6080   12.3882    5.8784 O.2       1 RES1    0.0000
      3 O3         0.5793   14.7261    6.6376 O.3       1 RES1    0.0000
      4 O4         1.1525   16.4633    7.9291 O.2       1 RES1    0.0000
      5 O5        -5.1010   19.1215    6.5521 O.2       1 RES1    0.0000
      6 O6        -5.4032   17.5933    5.0531 O.2       1 RES1    0.0000
      7 N1        -4.7200   18.1576    5.9042 N.pl3     1 RES1    0.0000
      8 C1         1.9374   12.6748    6.4222 C.3       1 RES1    0.0000
      9 C2         2.3879   12.7764    4.9458 C.3       1 RES1    0.0000
     10 H1         2.5497   11.8681    4.6142 H         1 RES1    0.0000
     11 C3         1.3420   13.4236    4.0548 C.3       1 RES1    0.0000
     12 H2         1.6491   13.4041    3.1352 H         1 RES1    0.0000
     13 H3         1.2317   14.3526    4.3133 H         1 RES1    0.0000
     14 C4        -0.0038   12.7118    4.1509 C.3       1 RES1    0.0000
     15 H4        -0.6810   13.2782    3.7492 H         1 RES1    0.0000
     16 H5         0.0417   11.8951    3.6288 H         1 RES1    0.0000
     17 C5        -0.4407   12.3626    5.5436 C.2       1 RES1    0.0000
     18 C6         0.6230   11.8713    6.5113 C.3       1 RES1    0.0000
     19 H6         0.2697   11.9895    7.4175 H         1 RES1    0.0000
     20 C7         0.8075   10.3519    6.2824 C.3       1 RES1    0.0000
     21 H7        -0.0341    9.9006    6.4544 H         1 RES1    0.0000
     22 H8         1.0446   10.1973    5.3555 H         1 RES1    0.0000
     23 C8         1.8938    9.7539    7.1867 C.3       1 RES1    0.0000
     24 H9         1.6301    9.9440    8.1106 H         1 RES1    0.0000
     25 C9         3.1982   10.4929    6.9404 C.3       1 RES1    0.0000
     26 H10        3.4618   10.3906    6.0124 H         1 RES1    0.0000
     27 H11        3.8973   10.1179    7.4983 H         1 RES1    0.0000
     28 C10        3.0186   11.9739    7.2658 C.3       1 RES1    0.0000
     29 H12        3.8648   12.4286    7.1286 H         1 RES1    0.0000
     30 H13        2.7876   12.0614    8.2034 H         1 RES1    0.0000
     31 C11        1.7945   14.0556    7.0663 C.3       1 RES1    0.0000
     32 H14        1.7832   13.9585    8.0315 H         1 RES1    0.0000
     33 H15        2.5611   14.5999    6.8293 H         1 RES1    0.0000
     34 C12        0.3757   15.9355    7.1802 C.2       1 RES1    0.0000
     35 C13       -0.9340   16.5297    6.7635 C.ar      1 RES1    0.0000
     36 C14       -1.7915   15.8799    5.8901 C.ar      1 RES1    0.0000
     37 H16       -1.5355   15.0734    5.5051 H         1 RES1    0.0000
     38 C15       -3.0247   16.4243    5.5883 C.ar      1 RES1    0.0000
     39 H17       -3.6027   15.9950    4.9995 H         1 RES1    0.0000
     40 C16       -3.3800   17.6153    6.1758 C.ar      1 RES1    0.0000
     41 C17       -2.5399   18.3064    7.0328 C.ar      1 RES1    0.0000
     42 H18       -2.8012   19.1149    7.4106 H         1 RES1    0.0000
     43 C18       -1.3067   17.7599    7.3090 C.ar      1 RES1    0.0000
     44 H19       -0.7158   18.2143    7.8646 H         1 RES1    0.0000
     45 C19        1.9733    8.2395    7.0531 C.2       1 RES1    0.0000
     46 C20        3.0376    7.6169    6.5793 C.2       1 RES1    0.0000
     47 H20        3.0558    6.6878    6.5438 H         1 RES1    0.0000
     48 H21        3.7686    8.1069    6.2807 H         1 RES1    0.0000
     49 C21        0.7825    7.4772    7.5412 C.3       1 RES1    0.0000
     50 H22        0.9537    6.5350    7.4691 H         1 RES1    0.0000
     51 H23        0.0167    7.7053    7.0082 H         1 RES1    0.0000
     52 H24        0.6128    7.7023    8.4580 H         1 RES1    0.0000
     53 H25        4.1738   13.1134    4.9651 H         1 RES1    0.0000
@<TRIPOS>BOND
     1    1    9 1
     2    2   17 2
     3    3   31 1
     4    4   34 2
     5    5    7 2
     6    6    7 2
     7    7   40 1
     8    8    9 1
     9    9   10 1
    10   11    9 1
    11   12   11 1
    12   13   11 1
    13   14   11 1
    14   15   14 1
    15   16   14 1
    16   17   14 1
    17   18    8 1
    18   19   18 1
    19   20   18 1
    20   21   20 1
    21   22   20 1
    22   23   20 1
    23   24   23 1
    24   25   23 1
    25   26   25 1
    26   27   25 1
    27   28    8 1
    28   29   28 1
    29   30   28 1
    30   31    8 1
    31   32   31 1
    32   33   31 1
    33   34    3 1
    34   35   34 1
    35   36   35 ar
    36   37   36 1
    37   38   36 ar
    38   39   38 1
    39   40   38 ar
    40   41   40 ar
    41   42   41 1
    42   43   35 ar
    43   44   43 1
    44   45   23 1
    45   46   45 2
    46   47   46 1
    47   48   46 1
    48   49   45 1
    49   50   49 1
    50   51   49 1
    51   52   49 1
    52   53    1 1
    53   17   18 1
    54   25   28 1
    55   41   43 ar
@<TRIPOS>SUBSTRUCTURE
     1 RES1 1

@<TRIPOS>CRYSIN
   7.5750   14.9850   17.1980  90.0000  90.0000  90.0000  19 1

