# MOL2 file generated by ConQuest
# Please check atom types

@<TRIPOS>MOLECULE
PHAZOX01
    16    18     1
SMALL
USER_CHARGES
****
Generated from CSD

@<TRIPOS>ATOM
      1 C1         0.0876    0.6268    1.2189 C.ar      1 RES1    0.0000
      2 C2         0.1561    1.3268    2.4232 C.ar      1 RES1    0.0000
      3 C3         1.3870    1.8356    2.8197 C.ar      1 RES1    0.0000
      4 C4         2.4995    1.7420    1.9679 C.ar      1 RES1    0.0000
      5 C5         2.4234    1.0704    0.7637 C.ar      1 RES1    0.0000
      6 C6         1.1964    0.5372    0.3525 C.ar      1 RES1    0.0000
      7 N1        -1.1087    0.1465    0.8077 N.pl3     1 RES1    1.0000
      8 O1        -2.1138    0.2157    1.5714 O.2       1 RES1   -1.0000
      9 N1B        1.1087   -0.1465   -0.8077 N.pl3     1 RES1    1.0000
     10 C6B       -1.1964   -0.5372   -0.3525 C.ar      1 RES1    0.0000
     11 C1B       -0.0876   -0.6268   -1.2189 C.ar      1 RES1    0.0000
     12 O1B        2.1138   -0.2157   -1.5714 O.2       1 RES1   -1.0000
     13 C5B       -2.4234   -1.0704   -0.7637 C.ar      1 RES1    0.0000
     14 C2B       -0.1561   -1.3268   -2.4232 C.ar      1 RES1    0.0000
     15 C4B       -2.4995   -1.7420   -1.9679 C.ar      1 RES1    0.0000
     16 C3B       -1.3870   -1.8356   -2.8197 C.ar      1 RES1    0.0000
@<TRIPOS>BOND
     1    1    2 ar
     2    2    3 ar
     3    3    4 ar
     4    4    5 ar
     5    5    6 ar
     6    6    1 ar
     7    7    1 ar
     8    8    7 1
     9    9    6 ar
    10   10    7 ar
    11   11    9 ar
    12   12    9 1
    13   13   10 ar
    14   14   11 ar
    15   15   13 ar
    16   16   14 ar
    17   10   11 ar
    18   15   16 ar
@<TRIPOS>SUBSTRUCTURE
     1 RES1 1

@<TRIPOS>CRYSIN
   7.6700    4.0700   15.1800  90.0000 104.6600  90.0000  14 1

