# MOL2 file generated by ConQuest
# Please check atom types

@<TRIPOS>MOLECULE
PHTGLY01
    24    25     1
SMALL
NO_CHARGES
****
Generated from CSD

@<TRIPOS>ATOM
      1 C1         2.8811    3.4298    3.2741 C.2       1 RES1    0.0000
      2 C2         5.2445    1.7937    4.6166 C.2       1 RES1    0.0000
      3 C3         6.0116    0.0857    6.4244 C.ar      1 RES1    0.0000
      4 C4         5.1696   -2.1466    6.0644 C.ar      1 RES1    0.0000
      5 C5         4.6189   -0.4369    4.5197 C.ar      1 RES1    0.0000
      6 O1         1.5287    5.3143    3.1341 O.3       1 RES1    0.0000
      7 O2         5.7092    2.8696    4.9433 O.2       1 RES1    0.0000
      8 N1         2.4442    4.4389    2.5463 N.am      1 RES1    0.0000
      9 H1         4.8011    3.3065    2.5109 H         1 RES1    0.0000
     10 H2         6.5423    0.7538    6.9811 H         1 RES1    0.0000
     11 H3         5.1293   -3.0838    6.3516 H         1 RES1    0.0000
     12 H4         0.8293    5.3794    2.5109 H         1 RES1    0.0000
     13 C6         4.0480    2.6880    2.6375 C.3       1 RES1    0.0000
     14 C7         5.3531    0.4694    5.2722 C.ar      1 RES1    0.0000
     15 C8         5.9026   -1.2421    6.8163 C.ar      1 RES1    0.0000
     16 C9         4.5180   -1.7612    4.8967 C.ar      1 RES1    0.0000
     17 C10        4.0359    0.2861    3.3590 C.2       1 RES1    0.0000
     18 O3         2.4054    3.0786    4.3513 O.2       1 RES1    0.0000
     19 O4         3.3449   -0.1096    2.4607 O.2       1 RES1    0.0000
     20 N2         4.4794    1.6087    3.4898 N.am      1 RES1    0.0000
     21 H5         3.7474    2.3128    1.7753 H         1 RES1    0.0000
     22 H6         6.3391   -1.5419    7.5894 H         1 RES1    0.0000
     23 H7         3.9926   -2.3985    4.3570 H         1 RES1    0.0000
     24 H8         3.1145    4.8655    2.1431 H         1 RES1    0.0000
@<TRIPOS>BOND
     1    1    8 1
     2    2    7 2
     3    3   10 1
     4    4   11 1
     5    5   14 ar
     6    6    8 1
     7    8   24 1
     8    9   13 1
     9   12    6 1
    10   13    1 1
    11   14    2 1
    12   15    3 ar
    13   16    4 ar
    14   17    5 1
    15   18    1 2
    16   19   17 2
    17   20    2 1
    18   21   13 1
    19   22   15 1
    20   23   16 1
    21    3   14 ar
    22    4   15 ar
    23    5   16 ar
    24   13   20 1
    25   17   20 1
@<TRIPOS>SUBSTRUCTURE
     1 RES1 1

@<TRIPOS>CRYSIN
   8.1390   17.1320    8.0660  90.0000 118.7300  90.0000  14 1

