# MOL2 file generated by ConQuest
# Please check atom types

@<TRIPOS>MOLECULE
PHTGLY
    24    25     1
SMALL
NO_CHARGES
****
Generated from CSD

@<TRIPOS>ATOM
      1 C1        -0.7685    1.2493   10.3181 C.2       1 RES1    0.0000
      2 C2         1.1300    1.3449    7.5605 C.2       1 RES1    0.0000
      3 C3         3.0861    2.4589    6.2590 C.ar      1 RES1    0.0000
      4 C4         5.0971    2.6828    7.5545 C.ar      1 RES1    0.0000
      5 C5         3.2057    1.6667    8.5317 C.ar      1 RES1    0.0000
      6 O1        -2.3306    1.5983   12.0108 O.3       1 RES1    0.0000
      7 O2         0.1792    1.3480    6.8168 O.2       1 RES1    0.0000
      8 N1        -1.5139    0.7175   11.2909 N.am      1 RES1    0.0000
      9 H1        -0.6341   -0.0544    8.7905 H         1 RES1    0.0000
     10 H2         2.5499    2.5576    5.3695 H         1 RES1    0.0000
     11 H3         5.9218    2.9386    7.4519 H         1 RES1    0.0000
     12 H4        -1.8794    1.8735   12.6875 H         1 RES1    0.0000
     13 C6        -0.0616    0.2247    9.4614 C.3       1 RES1    0.0000
     14 C7         2.5055    1.8665    7.3552 C.ar      1 RES1    0.0000
     15 C8         4.4153    2.8686    6.4018 C.ar      1 RES1    0.0000
     16 C9         4.5198    2.0741    8.6552 C.ar      1 RES1    0.0000
     17 C10        2.3116    0.9974    9.5090 C.2       1 RES1    0.0000
     18 O3        -0.6399    2.4558   10.1456 O.2       1 RES1    0.0000
     19 O4         2.5055    0.6538   10.6379 O.2       1 RES1    0.0000
     20 N2         1.1019    0.8046    8.8277 N.am      1 RES1    0.0000
     21 H5         0.2527   -0.5908    9.9358 H         1 RES1    0.0000
     22 H6         4.8100    3.2806    5.7265 H         1 RES1    0.0000
     23 H7         4.9559    1.9202    9.5491 H         1 RES1    0.0000
     24 H8        -1.9703   -0.0544   11.0960 H         1 RES1    0.0000
@<TRIPOS>BOND
     1    1    8 1
     2    2    7 2
     3    3   10 1
     4    4   11 1
     5    5   14 ar
     6    6    8 1
     7    8   24 1
     8    9   13 1
     9   12    6 1
    10   13    1 1
    11   14    2 1
    12   15    3 ar
    13   16    4 ar
    14   17    5 1
    15   18    1 2
    16   19   17 2
    17   20    2 1
    18   21   13 1
    19   22   15 1
    20   23   16 1
    21    3   14 ar
    22    4   15 ar
    23    5   16 ar
    24   13   20 1
    25   17   20 1
@<TRIPOS>SUBSTRUCTURE
     1 RES1 1

@<TRIPOS>CRYSIN
   8.3530    7.7740   15.0970  90.0000  99.8600  90.0000  14 1

