# MOL2 file generated by ConQuest
# Please check atom types

@<TRIPOS>MOLECULE
PHTHIB
    27    28     1
SMALL
NO_CHARGES
****
Generated from CSD

@<TRIPOS>ATOM
      1 N1         7.2043    6.8303    6.3018 N.pl3     1 RES1    0.0000
      2 N2         6.1493    6.7072    7.0572 N.2       1 RES1    0.0000
      3 N3         5.2526    5.8469    6.4216 N.am      1 RES1    0.0000
      4 C1         5.2561    4.4559    6.5453 C.2       1 RES1    0.0000
      5 C2         4.0936    3.9996    5.7665 C.ar      1 RES1    0.0000
      6 C3         3.6331    2.7229    5.5215 C.ar      1 RES1    0.0000
      7 C4         2.5625    2.5812    4.6657 C.ar      1 RES1    0.0000
      8 C5         1.9664    3.6844    4.0752 C.ar      1 RES1    0.0000
      9 C6         2.4209    4.9734    4.3296 C.ar      1 RES1    0.0000
     10 C7         3.4842    5.1072    5.1854 C.ar      1 RES1    0.0000
     11 C8         4.2094    6.3199    5.6226 C.2       1 RES1    0.0000
     12 O1         3.9998    7.4793    5.3908 O.2       1 RES1    0.0000
     13 O2         6.0753    3.8149    7.1560 O.2       1 RES1    0.0000
     14 O3         7.4247    6.2549    5.2367 O.2       1 RES1    0.0000
     15 N4         8.1458    7.6612    6.7880 N.3       1 RES1    0.0000
     16 C9         7.8295    8.4818    7.9247 C.3       1 RES1    0.0000
     17 C10        9.2744    7.9318    5.9641 C.3       1 RES1    0.0000
     18 H1         4.0573    1.9526    5.9011 H         1 RES1    0.0000
     19 H2         2.1880    1.6906    4.4416 H         1 RES1    0.0000
     20 H3         1.2378    3.5720    3.4675 H         1 RES1    0.0000
     21 H4         2.0264    5.7359    3.9102 H         1 RES1    0.0000
     22 H5         8.6222    8.9076    8.1814 H         1 RES1    0.0000
     23 H6         7.5518    7.9216    8.7323 H         1 RES1    0.0000
     24 H7         7.0647    8.9632    7.8057 H         1 RES1    0.0000
     25 H8         9.0987    8.0823    5.1115 H         1 RES1    0.0000
     26 H9         9.8898    8.4067    6.4410 H         1 RES1    0.0000
     27 H10        9.7441    7.1016    5.7385 H         1 RES1    0.0000
@<TRIPOS>BOND
     1    1    2 un
     2    2    3 1
     3    3    4 1
     4    4    5 1
     5    5    6 ar
     6    6    7 ar
     7    7    8 ar
     8    8    9 ar
     9    9   10 ar
    10   10    5 ar
    11   11    3 1
    12   12   11 2
    13   13    4 2
    14   14    1 un
    15   15    1 1
    16   16   15 1
    17   17   15 1
    18   18    6 1
    19   19    7 1
    20   20    8 1
    21   21    9 1
    22   22   16 1
    23   23   16 1
    24   24   16 1
    25   25   17 1
    26   26   17 1
    27   27   17 1
    28   10   11 1
@<TRIPOS>SUBSTRUCTURE
     1 RES1 1

@<TRIPOS>CRYSIN
   8.7260    7.9200    7.9410 101.4100  92.2100  88.0100   2 1

