# MOL2 file generated by ConQuest
# Please check atom types

@<TRIPOS>MOLECULE
PIBGUD
    38    38     1
SMALL
USER_CHARGES
****
Generated from CSD

@<TRIPOS>ATOM
      1 O1         2.9758    2.6426    4.5989 O.2       1 RES1    0.0000
      2 O2         0.8961    1.5140    1.8999 O.2       1 RES1   -1.0000
      3 N1         1.8150    4.1866    3.3877 N.am      1 RES1    0.0000
      4 N2         2.1581    1.5725    1.6397 N.pl3     1 RES1    1.0000
      5 C1         2.7816    5.5844    5.1985 C.3       1 RES1    0.0000
      6 C2         0.6345    4.2928    5.5803 C.3       1 RES1    0.0000
      7 C3         1.5102    5.0251    4.5745 C.3       1 RES1    0.0000
      8 C4         1.2999    4.6389    2.0731 C.3       1 RES1    0.0000
      9 C5         1.9072    5.9690    1.6640 C.3       1 RES1    0.0000
     10 C6        -0.2200    4.6707    2.0635 C.3       1 RES1    0.0000
     11 C7         2.5476    3.0781    3.5209 C.2       1 RES1    0.0000
     12 C8         2.9806    2.3416    2.2934 C.2       1 RES1    0.0000
     13 C9         2.6187    0.7934    0.4904 C.ar      1 RES1    0.0000
     14 C10        3.9255    0.3352    0.4091 C.ar      1 RES1    0.0000
     15 C11        4.3053   -0.3829   -0.7198 C.ar      1 RES1    0.0000
     16 C12        3.3960   -0.6312   -1.7351 C.ar      1 RES1    0.0000
     17 C13        2.0894   -0.1873   -1.6161 C.ar      1 RES1    0.0000
     18 C14        1.6920    0.5317   -0.4995 C.ar      1 RES1    0.0000
     19 H1         3.3549    4.8822    5.4462 H         1 RES1    0.0000
     20 H2         2.6604    6.1504    5.9976 H         1 RES1    0.0000
     21 H3         3.2733    6.0108    4.5376 H         1 RES1    0.0000
     22 H4         0.3181    4.9800    6.3356 H         1 RES1    0.0000
     23 H5         1.1769    3.4944    5.9443 H         1 RES1    0.0000
     24 H6        -0.1416    3.8965    5.0808 H         1 RES1    0.0000
     25 H7         0.9931    5.7901    4.2529 H         1 RES1    0.0000
     26 H8         1.6160    3.9250    1.3615 H         1 RES1    0.0000
     27 H9         2.8577    5.8921    1.7461 H         1 RES1    0.0000
     28 H10        1.6122    6.7540    2.3276 H         1 RES1    0.0000
     29 H11        1.6663    6.1278    0.7909 H         1 RES1    0.0000
     30 H12       -0.6180    5.4749    2.6273 H         1 RES1    0.0000
     31 H13       -0.5604    4.8103    1.1522 H         1 RES1    0.0000
     32 H14       -0.5819    3.7887    2.3755 H         1 RES1    0.0000
     33 H15        3.9240    2.3784    2.0238 H         1 RES1    0.0000
     34 H16        4.5357    0.5534    1.1330 H         1 RES1    0.0000
     35 H17        5.2457   -0.7164   -0.8840 H         1 RES1    0.0000
     36 H18        3.6610   -1.1487   -2.5356 H         1 RES1    0.0000
     37 H19        1.4525   -0.3762   -2.3235 H         1 RES1    0.0000
     38 H20        0.7984    0.8753   -0.3749 H         1 RES1    0.0000
@<TRIPOS>BOND
     1    1   11 2
     2    2    4 1
     3    3    7 1
     4    4   12 2
     5    5    7 1
     6    6    7 1
     7    7   25 1
     8    8    3 1
     9    9    8 1
    10   10    8 1
    11   11    3 1
    12   12   11 1
    13   13    4 1
    14   14   13 ar
    15   15   14 ar
    16   16   15 ar
    17   17   16 ar
    18   18   13 ar
    19   19    5 1
    20   20    5 1
    21   21    5 1
    22   22    6 1
    23   23    6 1
    24   24    6 1
    25   26    8 1
    26   27    9 1
    27   28    9 1
    28   29    9 1
    29   30   10 1
    30   31   10 1
    31   32   10 1
    32   33   12 1
    33   34   14 1
    34   35   15 1
    35   36   16 1
    36   37   17 1
    37   38   18 1
    38   17   18 ar
@<TRIPOS>SUBSTRUCTURE
     1 RES1 1

@<TRIPOS>CRYSIN
  12.4460    8.3599   15.2360  90.0000 116.0870  90.0000  13 1

