# MOL2 file generated by ConQuest
# Please check atom types

@<TRIPOS>MOLECULE
PIBLIY
    23    24     1
SMALL
NO_CHARGES
****
Generated from CSD

@<TRIPOS>ATOM
      1 O1        -0.1534    3.8505    3.0019 O.3       1 RES1    0.0000
      2 N1        -0.4063    3.3109    1.7022 N.2       1 RES1    0.0000
      3 N2        -1.1025    1.2284    0.8905 N.pl3     1 RES1    0.0000
      4 H1        -1.0576    1.5070    0.0775 H         1 RES1    0.0000
      5 H2        -1.3472    0.4206    1.0553 H         1 RES1    0.0000
      6 C1        -0.7846    2.0696    1.9206 C.2       1 RES1    0.0000
      7 C2        -0.8021    1.7613    3.2974 C.2       1 RES1    0.0000
      8 H3        -1.0417    0.9535    3.6913 H         1 RES1    0.0000
      9 C3        -0.3985    2.8854    3.9181 C.2       1 RES1    0.0000
     10 C4        -0.1233    3.2072    5.3188 C.ar      1 RES1    0.0000
     11 C5        -0.5283    2.3266    6.3248 C.ar      1 RES1    0.0000
     12 H4        -1.0100    1.5626    6.1034 H         1 RES1    0.0000
     13 C6        -0.2191    2.5809    7.6460 C.ar      1 RES1    0.0000
     14 H5        -0.4910    1.9800    8.3022 H         1 RES1    0.0000
     15 C7         0.4925    3.7196    8.0171 C.ar      1 RES1    0.0000
     16 C8         0.8827    4.5906    7.0105 C.ar      1 RES1    0.0000
     17 H6         1.3538    5.3605    7.2362 H         1 RES1    0.0000
     18 C9         0.5899    4.3444    5.6819 C.ar      1 RES1    0.0000
     19 H7         0.8717    4.9421    5.0287 H         1 RES1    0.0000
     20 C10        0.8321    3.9966    9.4607 C.3       1 RES1    0.0000
     21 H8         0.0283    4.1948    9.9455 H         1 RES1    0.0000
     22 H9         1.4292    4.7466    9.5104 H         1 RES1    0.0000
     23 H10        1.2552    3.2245    9.8442 H         1 RES1    0.0000
@<TRIPOS>BOND
     1    1    2 1
     2    2    6 2
     3    3    4 1
     4    5    3 1
     5    6    3 1
     6    7    6 1
     7    8    7 1
     8    9    1 1
     9   10    9 1
    10   11   10 ar
    11   12   11 1
    12   13   11 ar
    13   14   13 1
    14   15   13 ar
    15   16   15 ar
    16   17   16 1
    17   18   10 ar
    18   19   18 1
    19   20   15 1
    20   21   20 1
    21   22   20 1
    22   23   20 1
    23    7    9 2
    24   16   18 ar
@<TRIPOS>SUBSTRUCTURE
     1 RES1 1

@<TRIPOS>CRYSIN
   7.8225    5.3994   21.5375  90.0000  90.6030  90.0000 231 1

