# MOL2 file generated by ConQuest
# Please check atom types

@<TRIPOS>MOLECULE
PICANO04
    15    15     1
SMALL
NO_CHARGES
****
Generated from CSD

@<TRIPOS>ATOM
      1 O1         2.6272    1.5087    3.1330 O.2       1 RES1    0.0000
      2 O2         1.6734    1.5087    5.3618 O.3       1 RES1    0.0000
      3 O3        -0.5467    1.5087    5.6012 O.2       1 RES1    0.0000
      4 N1         1.4021    1.5087    2.6034 N.pl3     1 RES1    0.0000
      5 C1         0.2972    1.5087    3.4011 C.ar      1 RES1    0.0000
      6 C2        -0.9580    1.5087    2.8097 C.ar      1 RES1    0.0000
      7 C3        -1.0884    1.5087    1.4273 C.ar      1 RES1    0.0000
      8 C4         0.0629    1.5087    0.6538 C.ar      1 RES1    0.0000
      9 C5         1.3060    1.5087    1.2626 C.ar      1 RES1    0.0000
     10 C6         0.4443    1.5087    4.9020 C.2       1 RES1    0.0000
     11 H1         2.2413    1.5087    4.5249 H         1 RES1    0.0000
     12 H2        -1.7900    1.5087    3.4199 H         1 RES1    0.0000
     13 H3        -2.0379    1.5087    0.9438 H         1 RES1    0.0000
     14 H4         0.0389    1.5087   -0.4100 H         1 RES1    0.0000
     15 H5         2.2391    1.5087    0.7079 H         1 RES1    0.0000
@<TRIPOS>BOND
     1    1    4 1
     2    2   10 1
     3    3   10 2
     4    4    5 ar
     5    5    6 ar
     6    6    7 ar
     7    7    8 ar
     8    8    9 ar
     9    9    4 ar
    10   10    5 1
    11   11    2 1
    12   12    6 1
    13   13    7 1
    14   14    8 1
    15   15    9 1
@<TRIPOS>SUBSTRUCTURE
     1 RES1 1

@<TRIPOS>CRYSIN
   6.7970    6.0349    7.7927  90.0000 112.6100  90.0000  11 1

