# MOL2 file generated by ConQuest
# Please check atom types

@<TRIPOS>MOLECULE
PICANO03
    15    15     1
SMALL
NO_CHARGES
****
Generated from CSD

@<TRIPOS>ATOM
      1 O1         2.6341    1.5165    3.1397 O.2       1 RES1    0.0000
      2 O2         1.6725    1.5165    5.3656 O.3       1 RES1    0.0000
      3 O3        -0.5466    1.5165    5.6047 O.2       1 RES1    0.0000
      4 N1         1.4015    1.5165    2.6081 N.pl3     1 RES1    0.0000
      5 C1         0.2958    1.5165    3.4040 C.ar      1 RES1    0.0000
      6 C2        -0.9493    1.5165    2.8118 C.ar      1 RES1    0.0000
      7 C3        -1.0737    1.5165    1.4300 C.ar      1 RES1    0.0000
      8 C4         0.0694    1.5165    0.6599 C.ar      1 RES1    0.0000
      9 C5         1.3026    1.5165    1.2593 C.ar      1 RES1    0.0000
     10 C6         0.4443    1.5165    4.9126 C.2       1 RES1    0.0000
     11 H1         2.2748    1.5165    4.5170 H         1 RES1    0.0000
     12 H2        -1.6702    1.5165    3.3572 H         1 RES1    0.0000
     13 H3        -1.9225    1.5165    1.0230 H         1 RES1    0.0000
     14 H4         0.0534    1.5165   -0.3242 H         1 RES1    0.0000
     15 H5         2.1527    1.5165    0.7925 H         1 RES1    0.0000
@<TRIPOS>BOND
     1    1    4 1
     2    2   10 1
     3    3   10 2
     4    4    5 ar
     5    5    6 ar
     6    6    7 ar
     7    7    8 ar
     8    8    9 ar
     9    9    4 ar
    10   10    5 1
    11   11    2 1
    12   12    6 1
    13   13    7 1
    14   14    8 1
    15   15    9 1
@<TRIPOS>SUBSTRUCTURE
     1 RES1 1

@<TRIPOS>CRYSIN
   6.8020    6.0660    7.8040  90.0000 112.6100  90.0000  11 1

