# MOL2 file generated by ConQuest
# Please check atom types

@<TRIPOS>MOLECULE
PICNEX
    20    20     1
SMALL
USER_CHARGES
****
Generated from CSD

@<TRIPOS>ATOM
      1 C1         4.5466    8.5656    4.3773 C.ar      1 RES1    0.0000
      2 C2         3.4701    9.3866    4.1017 C.ar      1 RES1    0.0000
      3 H1         2.9515    9.2426    3.3431 H         1 RES1    0.0000
      4 C3         3.1778   10.4065    4.9513 C.ar      1 RES1    0.0000
      5 C4         3.9402   10.6773    6.0626 C.ar      1 RES1    0.0000
      6 H2         3.7625   11.4084    6.6098 H         1 RES1    0.0000
      7 C5         4.9723    9.8206    6.3253 C.ar      1 RES1    0.0000
      8 C6         5.3008    8.7133    5.5393 C.ar      1 RES1    0.0000
      9 N1         4.9041    7.6006    3.3318 N.pl3     1 RES1    0.0000
     10 N2         2.0042   11.2436    4.6821 N.pl3     1 RES1    0.0000
     11 N3         5.7781   10.0635    7.5322 N.pl3     1 RES1    0.0000
     12 N4         6.3938    7.9858    6.0058 N.2       1 RES1    0.0000
     13 N5         6.4413    6.7533    5.8011 N.1       1 RES1    1.0000
     14 N6         6.6459    5.6604    5.7266 N.2       1 RES1   -1.0000
     15 O1         6.0417    7.1560    3.3340 O.2       1 RES1    0.0000
     16 O2         4.0784    7.3314    2.4855 O.2       1 RES1    0.0000
     17 O3         1.3277   10.9764    3.7109 O.2       1 RES1    0.0000
     18 O4         1.7649   12.1546    5.4596 O.2       1 RES1    0.0000
     19 O5         6.5260   10.9986    7.5111 O.2       1 RES1    0.0000
     20 O6         5.6107    9.3370    8.4736 O.2       1 RES1    0.0000
@<TRIPOS>BOND
     1    1    2 ar
     2    2    3 1
     3    4    2 ar
     4    5    4 ar
     5    6    5 1
     6    7    5 ar
     7    8    1 ar
     8    9    1 1
     9   10    4 1
    10   11    7 1
    11   12    8 1
    12   13   12 2
    13   14   13 2
    14   15    9 2
    15   16    9 2
    16   17   10 2
    17   18   10 2
    18   19   11 2
    19   20   11 2
    20    7    8 ar
@<TRIPOS>SUBSTRUCTURE
     1 RES1 1

@<TRIPOS>CRYSIN
  10.3309   12.5340   14.6950  90.0000  90.0000  90.0000  61 1

