# MOL2 file generated by ConQuest
# Please check atom types

@<TRIPOS>MOLECULE
PICWEA
    30    33     1
SMALL
NO_CHARGES
****
Generated from CSD

@<TRIPOS>ATOM
      1 O1         6.1365    2.8919    5.8896 O.3       1 RES1    0.0000
      2 O2         4.1629    3.1099    7.9271 O.3       1 RES1    0.0000
      3 O3         3.2239    5.7873    7.0701 O.3       1 RES1    0.0000
      4 O4         4.7773    5.8576    8.7015 O.3       1 RES1    0.0000
      5 O5         5.8106    3.7461   10.5287 O.2       1 RES1    0.0000
      6 O6         7.2908    0.7661    7.3725 O.2       1 RES1    0.0000
      7 N1         6.4351    2.9346    7.2678 N.am      1 RES1    0.0000
      8 N2         6.6665    1.9932    9.2844 N.am      1 RES1    0.0000
      9 C1         5.4674    3.6019    8.1009 C.3       1 RES1    0.0000
     10 C2         5.3754    5.1252    7.6540 C.3       1 RES1    0.0000
     11 C3         4.3082    5.0194    6.5133 C.3       1 RES1    0.0000
     12 C4         3.8619    3.5209    6.5521 C.3       1 RES1    0.0000
     13 C5         4.7034    2.6721    5.6238 C.3       1 RES1    0.0000
     14 C6         6.8457    1.7591    7.8999 C.2       1 RES1    0.0000
     15 C7         5.9772    3.1899    9.4812 C.2       1 RES1    0.0000
     16 C8         3.6469    6.6255    8.1427 C.3       1 RES1    0.0000
     17 C9         2.5765    6.7171    9.1976 C.3       1 RES1    0.0000
     18 C10        4.2094    7.9486    7.6394 C.3       1 RES1    0.0000
     19 H1         7.0154    1.4771    9.9730 H         1 RES1    0.0000
     20 H2         6.2067    5.5079    7.4091 H         1 RES1    0.0000
     21 H3         4.5971    5.3388    5.5882 H         1 RES1    0.0000
     22 H4         2.9076    3.3901    6.3103 H         1 RES1    0.0000
     23 H5         4.5345    2.9274    4.7197 H         1 RES1    0.0000
     24 H6         4.4743    1.7351    5.7871 H         1 RES1    0.0000
     25 H7         2.8709    7.2964    9.9626 H         1 RES1    0.0000
     26 H8         2.4471    5.8727    9.5230 H         1 RES1    0.0000
     27 H9         1.7811    7.0828    8.8219 H         1 RES1    0.0000
     28 H10        3.4931    8.4264    7.2626 H         1 RES1    0.0000
     29 H11        4.8946    7.7680    6.9173 H         1 RES1    0.0000
     30 H12        4.5828    8.3908    8.4033 H         1 RES1    0.0000
@<TRIPOS>BOND
     1    1    7 1
     2    2    9 1
     3    3   11 1
     4    4   10 1
     5    5   15 2
     6    6   14 2
     7    7    9 1
     8    8   14 1
     9    9   10 1
    10   10   11 1
    11   11   12 1
    12   12    2 1
    13   13    1 1
    14   14    7 1
    15   15    8 1
    16   16    3 1
    17   17   16 1
    18   18   16 1
    19   19    8 1
    20   20   10 1
    21   21   11 1
    22   22   12 1
    23   23   13 1
    24   24   13 1
    25   25   17 1
    26   26   17 1
    27   27   17 1
    28   28   18 1
    29   29   18 1
    30   30   18 1
    31    4   16 1
    32    9   15 1
    33   12   13 1
@<TRIPOS>SUBSTRUCTURE
     1 RES1 1

@<TRIPOS>CRYSIN
   6.0860    8.8980   10.4650  90.0000  90.2900  90.0000   4 1

