# MOL2 file generated by ConQuest
# Please check atom types

@<TRIPOS>MOLECULE
PIDFOX01
    27    28     1
SMALL
NO_CHARGES
****
Generated from CSD

@<TRIPOS>ATOM
      1 O1         3.7624    3.6456    7.4815 O.3       1 RES1    0.0000
      2 O2         5.3453    2.1696    6.8474 O.2       1 RES1    0.0000
      3 N1         4.6121    2.6173    7.8175 N.pl3     1 RES1    0.0000
      4 C1         4.5583    2.1548    9.0406 C.2       1 RES1    0.0000
      5 C2         5.3656    1.0045    9.4594 C.ar      1 RES1    0.0000
      6 C3         5.6763    0.9034   10.8136 C.ar      1 RES1    0.0000
      7 C4         6.4648   -0.1257   11.2782 C.ar      1 RES1    0.0000
      8 C5         6.9487   -1.0841   10.4127 C.ar      1 RES1    0.0000
      9 C6         6.6168   -1.0142    9.0801 C.ar      1 RES1    0.0000
     10 C7         5.8321    0.0119    8.5964 C.ar      1 RES1    0.0000
     11 C8         3.7113    2.8931   10.0181 C.ar      1 RES1    0.0000
     12 C9         2.6405    2.2678   10.6342 C.ar      1 RES1    0.0000
     13 C10        1.8838    2.9496   11.5722 C.ar      1 RES1    0.0000
     14 C11        2.1983    4.2426   11.9159 C.ar      1 RES1    0.0000
     15 C12        3.2712    4.8635   11.3151 C.ar      1 RES1    0.0000
     16 C13        4.0246    4.1876   10.3758 C.ar      1 RES1    0.0000
     17 H1         4.2521    4.1490    6.8731 H         1 RES1    0.0000
     18 H2         5.2921    1.6060   11.3788 H         1 RES1    0.0000
     19 H3         6.6763   -0.1859   12.2061 H         1 RES1    0.0000
     20 H4         7.4189   -1.8068   10.7296 H         1 RES1    0.0000
     21 H5         6.9633   -1.7176    8.5277 H         1 RES1    0.0000
     22 H6         5.6052    0.0297    7.6622 H         1 RES1    0.0000
     23 H7         2.4222    1.3532   10.3860 H         1 RES1    0.0000
     24 H8         1.1297    2.4834   12.0024 H         1 RES1    0.0000
     25 H9         1.7548    4.7438   12.6006 H         1 RES1    0.0000
     26 H10        3.4486    5.7550   11.5188 H         1 RES1    0.0000
     27 H11        4.7564    4.6099    9.9914 H         1 RES1    0.0000
@<TRIPOS>BOND
     1    1    3 1
     2    2    3 un
     3    3    4 un
     4    4    5 1
     5    5    6 ar
     6    6    7 ar
     7    7    8 ar
     8    8    9 ar
     9    9   10 ar
    10   10    5 ar
    11   11    4 1
    12   12   11 ar
    13   13   12 ar
    14   14   13 ar
    15   15   14 ar
    16   16   11 ar
    17   17    1 1
    18   18    6 1
    19   19    7 1
    20   20    8 1
    21   21    9 1
    22   22   10 1
    23   23   12 1
    24   24   13 1
    25   25   14 1
    26   26   15 1
    27   27   16 1
    28   15   16 ar
@<TRIPOS>SUBSTRUCTURE
     1 RES1 1

@<TRIPOS>CRYSIN
  11.4480    7.4354   12.7730  90.0000  94.8150  90.0000 231 1

