# MOL2 file generated by ConQuest
# Please check atom types

@<TRIPOS>MOLECULE
PIDKOF
    65    69     1
SMALL
NO_CHARGES
****
Generated from CSD

@<TRIPOS>ATOM
      1 C1         1.6449   10.5467    3.8545 C.3       1 RES1    0.0000
      2 H1         0.8814   11.1545    3.7587 H         1 RES1    0.0000
      3 O1         0.1710   10.7822    1.3386 O.3       1 RES1    0.0000
      4 C2         0.3994    9.6036    5.8179 C.3       1 RES1    0.0000
      5 H2        -0.3584   10.1861    5.5983 H         1 RES1    0.0000
      6 C3         1.3093   10.4054    6.7742 C.3       1 RES1    0.0000
      7 H3         2.0401    9.8095    7.0435 H         1 RES1    0.0000
      8 C4         0.5768   10.8255    8.0539 C.3       1 RES1    0.0000
      9 H4         1.2511   11.2034    8.6562 H         1 RES1    0.0000
     10 C5         1.0810    9.2379    4.4741 C.3       1 RES1    0.0000
     11 C6         2.2065   10.3433    2.4467 C.3       1 RES1    0.0000
     12 H5         2.5002   11.1981    2.0954 H         1 RES1    0.0000
     13 H6         2.9795    9.7593    2.4943 H         1 RES1    0.0000
     14 C7         0.5585    8.4937    2.0668 C.3       1 RES1    0.0000
     15 H7         1.2160    7.7803    2.0694 H         1 RES1    0.0000
     16 H8        -0.1735    8.2215    1.4914 H         1 RES1    0.0000
     17 O2        -0.4460    9.9415   -0.6422 O.2       1 RES1    0.0000
     18 C8         0.0286    8.6905    3.4902 C.3       1 RES1    0.0000
     19 H9        -0.2985    7.8410    3.8223 H         1 RES1    0.0000
     20 H10       -0.7222    9.3049    3.4625 H         1 RES1    0.0000
     21 C9         1.9446   11.6116    6.0830 C.3       1 RES1    0.0000
     22 H11        1.2576   12.2735    5.9062 H         1 RES1    0.0000
     23 H12        2.5954   12.0132    6.6807 H         1 RES1    0.0000
     24 C10        1.1887    9.7435    1.5049 C.3       1 RES1    0.0000
     25 H13        1.6083    9.5453    0.6416 H         1 RES1    0.0000
     26 C11       -0.5286   11.8877    7.8997 C.3       1 RES1    0.0000
     27 H14       -0.1445   12.7716    7.7891 H         1 RES1    0.0000
     28 H15       -1.0908   11.6922    7.1345 H         1 RES1    0.0000
     29 C12       -0.1777    8.3999    6.5820 C.3       1 RES1    0.0000
     30 H16       -0.7702    7.9031    5.9958 H         1 RES1    0.0000
     31 H17        0.5460    7.8106    6.8440 H         1 RES1    0.0000
     32 C13       -0.5635   10.7740    0.2295 C.2       1 RES1    0.0000
     33 C14       -0.9468    8.8359    7.8228 C.3       1 RES1    0.0000
     34 H18       -1.2788    8.0458    8.2776 H         1 RES1    0.0000
     35 H19       -1.7143    9.3603    7.5478 H         1 RES1    0.0000
     36 C15       -1.5507   11.8824    0.2013 C.ar      1 RES1    0.0000
     37 C16        2.1775    8.1832    4.6794 C.3       1 RES1    0.0000
     38 H20        2.6728    8.0749    3.8642 H         1 RES1    0.0000
     39 H21        1.7752    7.3469    4.9235 H         1 RES1    0.0000
     40 H22        2.7702    8.4699    5.3787 H         1 RES1    0.0000
     41 C17       -0.1048    9.6655    8.8166 C.3       1 RES1    0.0000
     42 C18       -1.4971   12.9354    1.1044 C.ar      1 RES1    0.0000
     43 H23       -0.8001   12.9856    1.7182 H         1 RES1    0.0000
     44 O3        -2.4407   10.8163   11.3915 O.3       1 RES1    0.0000
     45 H24       -2.7758   10.4688   12.0536 H         1 RES1    0.0000
     46 C19        2.6266   11.2456    4.7816 C.3       1 RES1    0.0000
     47 H25        3.3786   10.6604    4.9611 H         1 RES1    0.0000
     48 H26        2.9645   12.0489    4.3541 H         1 RES1    0.0000
     49 C20       -1.0544   10.4186    9.7238 C.2       1 RES1    0.0000
     50 N1        -1.5551    9.8888   10.7629 N.2       1 RES1    0.0000
     51 C21       -1.3255   11.7992    9.1942 C.3       1 RES1    0.0000
     52 H27       -1.0304   12.4743    9.8253 H         1 RES1    0.0000
     53 H28       -2.2723   11.9234    9.0233 H         1 RES1    0.0000
     54 C22       -2.4743   13.9064    1.0925 C.ar      1 RES1    0.0000
     55 H29       -2.4296   14.6198    1.6879 H         1 RES1    0.0000
     56 C23       -2.5901   11.8217   -0.7223 C.ar      1 RES1    0.0000
     57 H30       -2.6274   11.1280   -1.3411 H         1 RES1    0.0000
     58 C24        0.8835    8.7804    9.5811 C.3       1 RES1    0.0000
     59 H31        1.4536    8.3246    8.9582 H         1 RES1    0.0000
     60 H32        0.3980    8.1356   10.1013 H         1 RES1    0.0000
     61 H33        1.4173    9.3247   10.1634 H         1 RES1    0.0000
     62 C25       -3.5182   13.8192    0.1965 C.ar      1 RES1    0.0000
     63 H34       -4.1949   14.4560    0.2095 H         1 RES1    0.0000
     64 C26       -3.5632   12.7953   -0.7124 C.ar      1 RES1    0.0000
     65 H35       -4.2574   12.7583   -1.3309 H         1 RES1    0.0000
@<TRIPOS>BOND
     1    1    2 1
     2    3   24 1
     3    4    5 1
     4    6    4 1
     5    7    6 1
     6    8    6 1
     7    9    8 1
     8   10    1 1
     9   11    1 1
    10   12   11 1
    11   13   11 1
    12   14   15 1
    13   16   14 1
    14   17   32 2
    15   18   10 1
    16   19   18 1
    17   20   18 1
    18   21    6 1
    19   22   21 1
    20   23   21 1
    21   24   11 1
    22   25   24 1
    23   26    8 1
    24   27   26 1
    25   28   26 1
    26   29    4 1
    27   30   29 1
    28   31   29 1
    29   32    3 1
    30   33   29 1
    31   34   33 1
    32   35   33 1
    33   36   32 1
    34   37   10 1
    35   38   37 1
    36   39   37 1
    37   40   37 1
    38   41    8 1
    39   42   36 ar
    40   43   42 1
    41   44   45 1
    42   46    1 1
    43   47   46 1
    44   48   46 1
    45   49   41 1
    46   50   44 1
    47   51   26 1
    48   52   51 1
    49   53   51 1
    50   54   42 ar
    51   55   54 1
    52   56   36 ar
    53   57   56 1
    54   58   41 1
    55   59   58 1
    56   60   58 1
    57   61   58 1
    58   62   54 ar
    59   63   62 1
    60   64   56 ar
    61   65   64 1
    62    4   10 1
    63   14   18 1
    64   14   24 1
    65   21   46 1
    66   33   41 1
    67   49   50 2
    68   49   51 1
    69   62   64 ar
@<TRIPOS>SUBSTRUCTURE
     1 RES1 1

@<TRIPOS>CRYSIN
   6.1268   13.2115   14.7663  90.0000 101.8600  90.0000   4 1

