# MOL2 file generated by ConQuest
# Please check atom types

@<TRIPOS>MOLECULE
PIGLOI
    31    32     1
SMALL
NO_CHARGES
****
Generated from CSD

@<TRIPOS>ATOM
      1 N1         4.0814    0.9433    7.8655 N.pl3     1 RES1    0.0000
      2 O1         2.3885    4.3555   10.1945 O.2       1 RES1    0.0000
      3 C1         3.3051    0.6625    8.9993 C.2       1 RES1    0.0000
      4 H1         3.1173   -0.1940    9.3081 H         1 RES1    0.0000
      5 N2         2.8736    1.7743    9.5728 N.2       1 RES1    0.0000
      6 C2         3.4214    2.8045    8.8469 C.2       1 RES1    0.0000
      7 O2         3.5871    5.0307    8.5394 O.2       1 RES1    0.0000
      8 N3         3.1037    4.1742    9.2333 N.pl3     1 RES1    0.0000
      9 C3         4.1451    2.3475    7.8308 C.2       1 RES1    0.0000
     10 O3         5.5288    3.9240    6.8307 O.2       1 RES1    0.0000
     11 C4         4.8255   -0.0485    7.0834 C.ar      1 RES1    0.0000
     12 N4         4.8034    2.9117    6.7224 N.pl3     1 RES1    0.0000
     13 O4         4.9376    2.4356    5.6715 O.2       1 RES1    0.0000
     14 C5         6.1327   -0.3791    7.3361 C.ar      1 RES1    0.0000
     15 O5         6.4581    1.2306    9.1330 O.2       1 RES1    0.0000
     16 N5         6.9601    0.3383    8.3843 N.pl3     1 RES1    0.0000
     17 O6         8.0660   -0.0255    8.6236 O.2       1 RES1    0.0000
     18 C6         6.7520   -1.3327    6.5954 C.ar      1 RES1    0.0000
     19 H2         7.6540   -1.5012    6.7451 H         1 RES1    0.0000
     20 N6         6.8624   -3.0917    4.8800 N.pl3     1 RES1    0.0000
     21 O7         8.0456   -3.2372    5.1902 O.2       1 RES1    0.0000
     22 N7         2.7665   -0.4391    5.8172 N.pl3     1 RES1    0.0000
     23 C7         6.0758   -2.0769    5.6087 C.ar      1 RES1    0.0000
     24 O8         6.2746   -3.7695    4.0631 O.2       1 RES1    0.0000
     25 C8         4.7397   -1.8152    5.2811 C.ar      1 RES1    0.0000
     26 N8         4.0058   -2.4573    4.3693 N.3       1 RES1    0.0000
     27 H3         4.3507   -3.1006    3.9147 H         1 RES1    0.0000
     28 H4         3.1878   -2.2262    4.2356 H         1 RES1    0.0000
     29 C9         4.1511   -0.7327    6.0820 C.ar      1 RES1    0.0000
     30 O9         1.9197   -1.0876    6.3333 O.2       1 RES1    0.0000
     31 O10        2.5686    0.3868    4.9108 O.2       1 RES1    0.0000
@<TRIPOS>BOND
     1    1    3 1
     2    2    8 2
     3    3    4 1
     4    5    3 2
     5    6    5 1
     6    7    8 2
     7    8    6 1
     8    9    1 1
     9   10   12 2
    10   11    1 1
    11   12    9 1
    12   13   12 2
    13   14   11 ar
    14   15   16 2
    15   16   14 1
    16   17   16 2
    17   18   14 ar
    18   19   18 1
    19   20   21 2
    20   22   29 1
    21   23   18 ar
    22   24   20 2
    23   25   23 ar
    24   26   25 1
    25   27   26 1
    26   28   26 1
    27   29   11 ar
    28   30   22 2
    29   31   22 2
    30    6    9 2
    31   20   23 1
    32   25   29 ar
@<TRIPOS>SUBSTRUCTURE
     1 RES1 1

@<TRIPOS>CRYSIN
   8.4941   12.7651   13.3699  90.0000  90.0000  90.0000  19 1

