# MOL2 file generated by ConQuest
# Please check atom types

@<TRIPOS>MOLECULE
PIGPOK
    45    46     1
SMALL
NO_CHARGES
****
Generated from CSD

@<TRIPOS>ATOM
      1 O1         5.2363    0.4416    4.9320 O.3       1 RES1    0.0000
      2 O2         4.8195   -0.6417    0.7202 O.3       1 RES1    0.0000
      3 O3         4.6562   -2.8289    1.1498 O.2       1 RES1    0.0000
      4 O4         2.8272    0.9930    1.4001 O.3       1 RES1    0.0000
      5 O5         3.5838    2.1348   -0.3617 O.2       1 RES1    0.0000
      6 O6         3.2687    3.0071    3.2469 O.3       1 RES1    0.0000
      7 O7         1.1306    2.4776    3.6123 O.2       1 RES1    0.0000
      8 O8         3.4259    1.7286    6.4437 O.3       1 RES1    0.0000
      9 O9         2.0920    3.5084    6.5036 O.2       1 RES1    0.0000
     10 N1         6.1247   -0.1183    4.0656 N.pl3     1 RES1    0.0000
     11 N2         7.3697   -0.4453    4.4831 N.2       1 RES1    0.0000
     12 N3         7.8949   -1.0125    3.4471 N.2       1 RES1    0.0000
     13 N4         7.0412   -1.0455    2.3755 N.2       1 RES1    0.0000
     14 C1         5.9207   -0.4928    2.8108 C.2       1 RES1    0.0000
     15 C2         4.6107   -0.3379    2.1009 C.3       1 RES1    0.0000
     16 C3         4.0689    1.0894    2.1187 C.3       1 RES1    0.0000
     17 C4         3.6875    1.6517    3.4784 C.3       1 RES1    0.0000
     18 C5         4.8375    1.7823    4.4898 C.3       1 RES1    0.0000
     19 C6         4.4381    2.4959    5.7601 C.3       1 RES1    0.0000
     20 C7         4.7920   -1.9445    0.3639 C.2       1 RES1    0.0000
     21 C8         4.9519   -2.0897   -1.1051 C.3       1 RES1    0.0000
     22 C9         2.7449    1.4736    0.1496 C.2       1 RES1    0.0000
     23 C10        1.4491    1.0467   -0.4733 C.3       1 RES1    0.0000
     24 C11        1.9261    3.3023    3.3712 C.2       1 RES1    0.0000
     25 C12        1.7307    4.7588    3.1859 C.3       1 RES1    0.0000
     26 C13        2.2706    2.3556    6.7558 C.2       1 RES1    0.0000
     27 C14        1.3561    1.4053    7.4346 C.3       1 RES1    0.0000
     28 H1         3.9872   -0.9637    2.5228 H         1 RES1    0.0000
     29 H2         4.6027    1.7689    1.6521 H         1 RES1    0.0000
     30 H3         3.1109    1.1223    3.8401 H         1 RES1    0.0000
     31 H4         5.4992    2.1348    4.0410 H         1 RES1    0.0000
     32 H5         4.0675    3.4523    5.5368 H         1 RES1    0.0000
     33 H6         5.0911    2.6228    6.2959 H         1 RES1    0.0000
     34 H7         4.4957   -2.9766   -1.4065 H         1 RES1    0.0000
     35 H8         4.4957   -1.4029   -1.4958 H         1 RES1    0.0000
     36 H9         5.7333   -1.9152   -1.3619 H         1 RES1    0.0000
     37 H10        1.3781    0.0732   -0.4242 H         1 RES1    0.0000
     38 H11        1.4049    1.5249   -1.2949 H         1 RES1    0.0000
     39 H12        0.8095    1.7811    0.0223 H         1 RES1    0.0000
     40 H13        2.0806    5.2944    3.9517 H         1 RES1    0.0000
     41 H14        1.8464    5.0260    2.2549 H         1 RES1    0.0000
     42 H15        1.0035    4.9528    3.3266 H         1 RES1    0.0000
     43 H16        1.1039    0.7075    6.8764 H         1 RES1    0.0000
     44 H17        0.8162    2.0250    7.9257 H         1 RES1    0.0000
     45 H18        1.8598    1.0979    8.3723 H         1 RES1    0.0000
@<TRIPOS>BOND
     1    1   10 1
     2    2   15 1
     3    3   20 2
     4    4   16 1
     5    5   22 2
     6    6   17 1
     7    7   24 2
     8    8   19 1
     9    9   26 2
    10   10   11 1
    11   11   12 2
    12   12   13 1
    13   13   14 2
    14   14   10 1
    15   15   14 1
    16   16   15 1
    17   17   16 1
    18   18    1 1
    19   19   18 1
    20   20    2 1
    21   21   20 1
    22   22    4 1
    23   23   22 1
    24   24    6 1
    25   25   24 1
    26   26    8 1
    27   27   26 1
    28   28   15 1
    29   29   16 1
    30   30   17 1
    31   31   18 1
    32   32   19 1
    33   33   19 1
    34   34   21 1
    35   35   21 1
    36   36   21 1
    37   37   23 1
    38   38   23 1
    39   39   23 1
    40   40   25 1
    41   41   25 1
    42   42   25 1
    43   43   27 1
    44   44   27 1
    45   45   27 1
    46   17   18 1
@<TRIPOS>SUBSTRUCTURE
     1 RES1 1

@<TRIPOS>CRYSIN
   6.6900   12.1990   22.3260  90.0000  90.0000  90.0000  19 1

