# MOL2 file generated by ConQuest
# Please check atom types

@<TRIPOS>MOLECULE
PIGSEF
    33    34     1
SMALL
NO_CHARGES
****
Generated from CSD

@<TRIPOS>ATOM
      1 N1        -0.5069    3.6709    8.0494 N.pl3     1 RES1    0.0000
      2 C1        -1.1955    3.3319    9.2737 C.ar      1 RES1    0.0000
      3 O1         0.6597    3.3254    7.9240 O.2       1 RES1    0.0000
      4 O2        -1.0702    4.2871    7.1782 O.2       1 RES1    0.0000
      5 C2        -2.3034    4.1318    9.7142 C.ar      1 RES1    0.0000
      6 N2        -2.6487    5.2121    9.0389 N.3       1 RES1    0.0000
      7 H1        -3.2907    5.7100    9.3230 H         1 RES1    0.0000
      8 H2        -2.2322    5.4183    8.3147 H         1 RES1    0.0000
      9 N3        -4.0198    4.5466   11.4454 N.pl3     1 RES1    0.0000
     10 O3        -4.4398    5.4958   10.8044 O.2       1 RES1    0.0000
     11 C3        -2.9518    3.7319   10.9206 C.ar      1 RES1    0.0000
     12 N4        -3.2685    2.0921   12.6685 N.pl3     1 RES1    0.0000
     13 H3        -3.9648    2.5126   12.9456 H         1 RES1    0.0000
     14 H4        -3.0135    1.3731   13.0666 H         1 RES1    0.0000
     15 C4        -2.5892    2.5491   11.6292 C.ar      1 RES1    0.0000
     16 O4        -4.5037    4.3016   12.5447 O.2       1 RES1    0.0000
     17 C5        -1.4272    1.8551   11.1641 C.ar      1 RES1    0.0000
     18 N5        -0.8762    0.7589   11.9427 N.pl3     1 RES1    0.0000
     19 O5        -1.6428    0.0399   12.5856 O.2       1 RES1    0.0000
     20 N6         0.1981    1.3406    9.4513 N.pl3     1 RES1    0.0000
     21 C6        -0.7838    2.2391   10.0050 C.ar      1 RES1    0.0000
     22 O6         0.3260    0.5891   11.9394 O.2       1 RES1    0.0000
     23 N7         2.1302    0.4205    8.8077 N.2       1 RES1    0.0000
     24 C7        -0.1335    0.2997    8.6358 C.2       1 RES1    0.0000
     25 H5        -0.9839    0.0137    8.3912 H         1 RES1    0.0000
     26 O7         3.4848    2.3018   10.2366 O.2       1 RES1    0.0000
     27 C8         1.0642   -0.2233    8.2633 C.2       1 RES1    0.0000
     28 O8         1.6232    3.1940   10.8378 O.2       1 RES1    0.0000
     29 N8         2.2840    2.3531   10.2532 N.pl3     1 RES1    0.0000
     30 C9         1.5617    1.3560    9.5058 C.2       1 RES1    0.0000
     31 N9         1.2435   -1.3116    7.3443 N.pl3     1 RES1    0.0000
     32 O9         0.2274   -1.7286    6.8116 O.2       1 RES1    0.0000
     33 O10        2.3543   -1.7377    7.1325 O.2       1 RES1    0.0000
@<TRIPOS>BOND
     1    1    2 1
     2    2    5 ar
     3    3    1 2
     4    4    1 2
     5    5    6 1
     6    6    7 1
     7    8    6 1
     8    9   10 2
     9   11    5 ar
    10   12   13 1
    11   14   12 1
    12   15   11 ar
    13   16    9 2
    14   17   15 ar
    15   18   17 1
    16   19   18 2
    17   20   21 1
    18   21    2 ar
    19   22   18 2
    20   23   27 1
    21   24   20 1
    22   25   24 1
    23   26   29 2
    24   27   24 2
    25   28   29 2
    26   29   30 1
    27   30   20 1
    28   31   27 1
    29   32   31 2
    30   33   31 2
    31    9   11 1
    32   12   15 1
    33   17   21 ar
    34   23   30 2
@<TRIPOS>SUBSTRUCTURE
     1 RES1 1

@<TRIPOS>CRYSIN
   9.0830   11.3950   14.0890  90.0000  99.2300  90.0000 231 1

