# MOL2 file generated by ConQuest
# Please check atom types

@<TRIPOS>MOLECULE
PIGSOP
    29    30     1
SMALL
NO_CHARGES
****
Generated from CSD

@<TRIPOS>ATOM
      1 N1         3.3725    5.5811    5.4518 N.2       1 RES1    0.0000
      2 C1         2.9206    4.5485    4.7832 C.2       1 RES1    0.0000
      3 O1         4.9148    3.8875    3.9225 O.2       1 RES1    0.0000
      4 N2         1.5645    4.3942    4.8566 N.pl3     1 RES1    0.0000
      5 C2         1.1288    5.4181    5.6503 C.2       1 RES1    0.0000
      6 H1         0.2514    5.6016    5.8994 H         1 RES1    0.0000
      7 O2         3.1836    2.6213    3.5406 O.2       1 RES1    0.0000
      8 C3         2.2470    6.1145    6.0028 C.2       1 RES1    0.0000
      9 O3         1.2329    7.5186    7.4887 O.2       1 RES1    0.0000
     10 N3         3.7387    3.6140    4.0173 N.pl3     1 RES1    0.0000
     11 C4         0.6743    3.4362    4.2239 C.ar      1 RES1    0.0000
     12 N4         2.2683    7.2861    6.8692 N.pl3     1 RES1    0.0000
     13 O4         3.2834    7.9597    6.9534 O.2       1 RES1    0.0000
     14 N5         0.7379    1.9705    6.2537 N.pl3     1 RES1    0.0000
     15 C5         0.1721    2.3352    4.9265 C.ar      1 RES1    0.0000
     16 O5         0.0068    1.3961    7.0382 O.2       1 RES1    0.0000
     17 N6        -2.4903    1.1066    2.6382 N.pl3     1 RES1    0.0000
     18 O6         1.9121    2.2441    6.4590 O.2       1 RES1    0.0000
     19 C6        -0.8627    1.5591    4.4348 C.ar      1 RES1    0.0000
     20 H2        -1.1977    0.8365    4.9145 H         1 RES1    0.0000
     21 C7        -1.3793    1.9067    3.1953 C.ar      1 RES1    0.0000
     22 N7         0.6403    4.8734    2.1529 N.pl3     1 RES1    0.0000
     23 O7        -2.9905    0.2507    3.3353 O.2       1 RES1    0.0000
     24 C8        -0.9113    2.9780    2.4403 C.ar      1 RES1    0.0000
     25 H3        -1.2779    3.1809    1.6103 H         1 RES1    0.0000
     26 O8        -2.8662    1.3654    1.5038 O.2       1 RES1    0.0000
     27 C9         0.1258    3.7314    2.9773 C.ar      1 RES1    0.0000
     28 O9        -0.1334    5.4159    1.4005 O.2       1 RES1    0.0000
     29 O10        1.8137    5.1845    2.2765 O.2       1 RES1    0.0000
@<TRIPOS>BOND
     1    1    2 2
     2    2    4 1
     3    3   10 2
     4    4    5 1
     5    5    6 1
     6    7   10 2
     7    8    1 1
     8    9   12 2
     9   10    2 1
    10   11    4 1
    11   12    8 1
    12   13   12 2
    13   14   15 1
    14   15   11 ar
    15   16   14 2
    16   17   21 1
    17   18   14 2
    18   19   15 ar
    19   20   19 1
    20   21   19 ar
    21   22   27 1
    22   23   17 2
    23   24   21 ar
    24   25   24 1
    25   26   17 2
    26   27   11 ar
    27   28   22 2
    28   29   22 2
    29    5    8 2
    30   24   27 ar
@<TRIPOS>SUBSTRUCTURE
     1 RES1 1

@<TRIPOS>CRYSIN
   8.7000   11.3970   14.1640  90.0000  92.5000  90.0000 231 1

