# MOL2 file generated by ConQuest
# Please check atom types

@<TRIPOS>MOLECULE
PIGSIJ
    29    30     1
SMALL
NO_CHARGES
****
Generated from CSD

@<TRIPOS>ATOM
      1 N1         7.8062    0.1970    8.1784 N.2       1 RES1    0.0000
      2 O1         7.0295    0.9670    4.8926 O.2       1 RES1    0.0000
      3 C1         7.2947    0.7841    9.2440 C.2       1 RES1    0.0000
      4 H1         7.3935    0.4745   10.1145 H         1 RES1    0.0000
      5 N2         6.5987    1.9071    8.8965 N.pl3     1 RES1    0.0000
      6 C2         7.3705    0.9248    7.1464 C.2       1 RES1    0.0000
      7 O2         8.4701   -0.4029    5.6546 O.2       1 RES1    0.0000
      8 N3         7.6176    0.4682    5.7980 N.pl3     1 RES1    0.0000
      9 C3         6.5896    1.9634    7.5326 C.2       1 RES1    0.0000
     10 O3         6.4240    3.4421    5.8897 O.2       1 RES1    0.0000
     11 N4         5.9249    3.0954    6.8041 N.pl3     1 RES1    0.0000
     12 C4         5.8516    2.7181    9.8368 C.ar      1 RES1    0.0000
     13 O4         5.3928    3.7260    7.4112 O.2       1 RES1    0.0000
     14 N5         8.0220    3.7772   10.3625 N.pl3     1 RES1    0.0000
     15 C5         6.5756    3.6467   10.5911 C.ar      1 RES1    0.0000
     16 O5         8.3993    4.1481    9.2556 O.2       1 RES1    0.0000
     17 O6         8.7559    3.5342   11.3131 O.2       1 RES1    0.0000
     18 N6         4.0180    5.1049   12.8010 N.pl3     1 RES1    0.0000
     19 C6         5.9949    4.4385   11.5379 C.ar      1 RES1    0.0000
     20 H2         6.4990    5.0448   12.0300 H         1 RES1    0.0000
     21 O7         4.7017    5.8608   13.4494 O.2       1 RES1    0.0000
     22 N7         3.6581    1.6078    9.4132 N.pl3     1 RES1    0.0000
     23 C7         4.6638    4.3131   11.7355 C.ar      1 RES1    0.0000
     24 O8         2.8245    4.9898   12.9418 O.2       1 RES1    0.0000
     25 C8         3.8788    3.4178   11.0354 C.ar      1 RES1    0.0000
     26 H3         2.9661    3.3704   11.2072 H         1 RES1    0.0000
     27 O9         2.4497    1.6270    9.6547 O.2       1 RES1    0.0000
     28 C9         4.4422    2.5953   10.0809 C.ar      1 RES1    0.0000
     29 O10        4.1696    0.7969    8.6899 O.2       1 RES1    0.0000
@<TRIPOS>BOND
     1    1    3 2
     2    2    8 2
     3    3    4 1
     4    5    3 1
     5    6    1 1
     6    7    8 2
     7    8    6 1
     8    9    5 1
     9   10   11 2
    10   11    9 1
    11   12    5 1
    12   13   11 2
    13   14   15 1
    14   15   12 ar
    15   16   14 2
    16   17   14 2
    17   18   21 2
    18   19   15 ar
    19   20   19 1
    20   22   27 2
    21   23   18 1
    22   24   18 2
    23   25   23 ar
    24   26   25 1
    25   28   12 ar
    26   29   22 2
    27    6    9 2
    28   19   23 ar
    29   22   28 1
    30   25   28 ar
@<TRIPOS>SUBSTRUCTURE
     1 RES1 1

@<TRIPOS>CRYSIN
   8.2370   12.7910   12.9160  90.0000  90.0000  90.0000  19 1

