# MOL2 file generated by ConQuest
# Please check atom types

@<TRIPOS>MOLECULE
PIGXUA
    51    53     2
SMALL
NO_CHARGES
****
Generated from CSD

@<TRIPOS>ATOM
      1 O1         1.6059   -1.7788   -6.0495 O.3       1 RES1    0.0000
      2 C1         0.4032   -2.8768   -4.1843 C.2       1 RES1    0.0000
      3 O2         0.2861   -1.7930   -3.6257 O.2       1 RES1    0.0000
      4 C2         0.3751   -2.2291   -6.6600 C.3       1 RES1    0.0000
      5 H1        -0.4250   -1.7157   -6.4177 H         1 RES1    0.0000
      6 C3        -0.8099   -5.3468   -5.6262 C.ar      1 RES1    0.0000
      7 C4         0.4483   -2.6524   -8.0715 C.ar      1 RES1    0.0000
      8 N1         0.0184   -4.0379   -3.6319 N.am      1 RES1    0.0000
      9 C5        -2.0209   -4.6789   -5.7845 C.ar      1 RES1    0.0000
     10 H2        -2.3715   -4.1895   -5.0757 H         1 RES1    0.0000
     11 C6         0.5476   -3.2956  -10.7153 C.ar      1 RES1    0.0000
     12 C7         1.0010   -2.9781   -5.5555 C.3       1 RES1    0.0000
     13 H3         1.4397   -3.8233   -5.7857 H         1 RES1    0.0000
     14 C8        -0.0799   -5.3498   -4.3146 C.3       1 RES1    0.0000
     15 H4         0.8186   -5.7184   -4.4425 H         1 RES1    0.0000
     16 C9         1.5545   -3.7467   -9.8957 C.ar      1 RES1    0.0000
     17 H5         2.2576   -4.2541  -10.2318 H         1 RES1    0.0000
     18 C10       -0.3064   -6.0456   -6.7112 C.ar      1 RES1    0.0000
     19 H6         0.5035   -6.4937   -6.6308 H         1 RES1    0.0000
     20 C11        1.4850   -3.4240   -8.5707 C.ar      1 RES1    0.0000
     21 H7         2.1470   -3.7272   -7.9923 H         1 RES1    0.0000
     22 C12       -0.5622   -2.2516   -8.9202 C.ar      1 RES1    0.0000
     23 H8        -1.2750   -1.7578   -8.5866 H         1 RES1    0.0000
     24 C13       -0.9965   -6.0869   -7.9144 C.ar      1 RES1    0.0000
     25 H9        -0.6480   -6.5605   -8.6341 H         1 RES1    0.0000
     26 C14       -0.5256   -4.1182   -2.2590 C.3       1 RES1    0.0000
     27 H10       -1.4447   -3.7827   -2.2017 H         1 RES1    0.0000
     28 C15       -0.5253   -2.5759  -10.2683 C.ar      1 RES1    0.0000
     29 H11       -1.2049   -2.3132  -10.8456 H         1 RES1    0.0000
     30 C16       -2.7026   -4.7322   -6.9706 C.ar      1 RES1    0.0000
     31 H12       -3.5179   -4.2923   -7.0510 H         1 RES1    0.0000
     32 C17       -0.8022   -6.1454   -3.2381 C.3       1 RES1    0.0000
     33 H13       -1.7627   -6.0869   -3.3623 H         1 RES1    0.0000
     34 H14       -0.5425   -7.0791   -3.2770 H         1 RES1    0.0000
     35 N2         0.6401   -3.5688  -12.1681 N.pl3     1 RES1    0.0000
     36 O3        -0.9292   -5.4166   -2.1932 O.3       1 RES1    0.0000
     37 O4         1.5575   -4.2458  -12.5858 O.2       1 RES1    0.0000
     38 C18        0.3390   -3.6139   -1.1423 C.3       1 RES1    0.0000
     39 H15        0.4186   -2.6502   -1.2153 H         1 RES1    0.0000
     40 H16       -0.0941   -3.8112   -0.2959 H         1 RES1    0.0000
     41 C19       -2.1973   -5.4257   -8.0410 C.ar      1 RES1    0.0000
     42 H17       -2.6623   -5.4497   -8.8460 H         1 RES1    0.0000
     43 O5        -0.2166   -3.1072  -12.8963 O.2       1 RES1    0.0000
     44 C20        2.3607   -4.1445    0.2107 C.3       1 RES1    0.0000
     45 H18        3.2365   -4.5333    0.1522 H         1 RES1    0.0000
     46 H19        1.8370   -4.6308    0.8512 H         1 RES1    0.0000
     47 H20        2.4356   -3.2281    0.4871 H         1 RES1    0.0000
     48 C21        1.6901   -4.2090   -1.1411 C.3       1 RES1    0.0000
     49 H21        2.2401   -3.7429   -1.7889 H         1 RES1    0.0000
     50 H22        1.6269   -5.1359   -1.4175 H         1 RES1    0.0000
     51 O6        -0.4400   -5.5938   -2.0154 Du        2 SUP2    0.0000
@<TRIPOS>BOND
     1    1    4 1
     2    2    3 2
     3    4    5 1
     4    6    9 ar
     5    7    4 1
     6    8    2 1
     7    9   10 1
     8   11   16 ar
     9   12    1 1
    10   13   12 1
    11   14    6 1
    12   15   14 1
    13   16   17 1
    14   18    6 ar
    15   19   18 1
    16   20    7 ar
    17   21   20 1
    18   22    7 ar
    19   23   22 1
    20   24   18 ar
    21   25   24 1
    22   26    8 1
    23   27   26 1
    24   28   11 ar
    25   29   28 1
    26   30    9 ar
    27   31   30 1
    28   32   14 1
    29   33   32 1
    30   34   32 1
    31   35   11 1
    32   36   26 1
    33   37   35 2
    34   38   26 1
    35   39   38 1
    36   40   38 1
    37   41   24 ar
    38   42   41 1
    39   43   35 2
    40   44   45 1
    41   46   44 1
    42   47   44 1
    43   48   38 1
    44   49   48 1
    45   50   48 1
    46    2   12 1
    47    4   12 1
    48    8   14 1
    49   16   20 ar
    50   22   28 ar
    51   30   41 ar
    52   32   36 1
    53   44   48 1
@<TRIPOS>SUBSTRUCTURE
     1 RES1 1
     2 SUP2 51

@<TRIPOS>CRYSIN
  10.6761    7.5054   13.0679  90.0000 111.2690  90.0000   4 1

