# MOL2 file generated by ConQuest
# Please check atom types

@<TRIPOS>MOLECULE
PIJRUY
    41    44     1
SMALL
NO_CHARGES
****
Generated from CSD

@<TRIPOS>ATOM
      1 C1         7.1732    2.8157    2.1438 C.3       1 RES1    0.0000
      2 H1         7.0472    3.4520    1.4092 H         1 RES1    0.0000
      3 N1         6.1107    3.0201    3.1701 N.3       1 RES1    0.0000
      4 C2         7.4218    0.9533    0.3741 C.ar      1 RES1    0.0000
      5 N2         4.9305    2.6565    2.4099 N.am      1 RES1    0.0000
      6 O1         3.5545    3.7166    0.8808 O.2       1 RES1    0.0000
      7 C3         6.7944    1.4038    1.6737 C.3       1 RES1    0.0000
      8 H2         7.0589    0.7706    2.3733 H         1 RES1    0.0000
      9 C4         8.5607    2.9568    2.7019 C.ar      1 RES1    0.0000
     10 C5         9.4819    3.7871    2.0870 C.ar      1 RES1    0.0000
     11 H3         9.2363    4.2747    1.3340 H         1 RES1    0.0000
     12 C6         7.9219   -0.3184    0.1355 C.ar      1 RES1    0.0000
     13 N3         7.7640   -1.3721    1.1306 N.pl3     1 RES1    0.0000
     14 C7         7.5549    1.8370   -0.6853 C.ar      1 RES1    0.0000
     15 H4         7.2419    2.7067   -0.5839 H         1 RES1    0.0000
     16 C8         8.9644    2.2423    3.8248 C.ar      1 RES1    0.0000
     17 H5         8.3658    1.6677    4.2451 H         1 RES1    0.0000
     18 C9         5.8688    4.4321    3.5293 C.3       1 RES1    0.0000
     19 H6         6.7017    4.9294    3.5304 H         1 RES1    0.0000
     20 H7         5.4687    4.4941    4.4106 H         1 RES1    0.0000
     21 O2         8.6434   -2.2006    1.2407 O.2       1 RES1    0.0000
     22 C10       10.7680    3.8939    2.5898 C.ar      1 RES1    0.0000
     23 H8        11.3833    4.4455    2.1637 H         1 RES1    0.0000
     24 C11        8.5587   -0.6775   -1.0486 C.ar      1 RES1    0.0000
     25 H9         8.9146   -1.5302   -1.1504 H         1 RES1    0.0000
     26 O3         6.7561   -1.4110    1.7906 O.2       1 RES1    0.0000
     27 C12        4.3618    3.7645    1.7975 C.2       1 RES1    0.0000
     28 C13        5.2409    1.4608    1.6396 C.3       1 RES1    0.0000
     29 H10        4.9149    1.5378    0.7294 H         1 RES1    0.0000
     30 H11        4.8539    0.6717    2.0492 H         1 RES1    0.0000
     31 C14       10.2490    2.3788    4.3224 C.ar      1 RES1    0.0000
     32 H12       10.5041    1.9090    5.0835 H         1 RES1    0.0000
     33 C15       11.1426    3.2010    3.7002 C.ar      1 RES1    0.0000
     34 H13       12.0067    3.2878    4.0337 H         1 RES1    0.0000
     35 C16        8.6551    0.2334   -2.0569 C.ar      1 RES1    0.0000
     36 H14        9.0731    0.0106   -2.8580 H         1 RES1    0.0000
     37 C17        8.1283    1.4798   -1.8733 C.ar      1 RES1    0.0000
     38 H15        8.1605    2.0961   -2.5686 H         1 RES1    0.0000
     39 C18        4.9257    4.9784    2.4775 C.3       1 RES1    0.0000
     40 H16        4.2194    5.5019    2.8883 H         1 RES1    0.0000
     41 H17        5.4026    5.5374    1.8448 H         1 RES1    0.0000
@<TRIPOS>BOND
     1    1    2 1
     2    3    1 1
     3    4    7 1
     4    5    3 1
     5    6   27 2
     6    7    1 1
     7    8    7 1
     8    9    1 1
     9   10    9 ar
    10   11   10 1
    11   12    4 ar
    12   13   12 1
    13   14    4 ar
    14   15   14 1
    15   16    9 ar
    16   17   16 1
    17   18    3 1
    18   19   18 1
    19   20   18 1
    20   21   13 2
    21   22   10 ar
    22   23   22 1
    23   24   12 ar
    24   25   24 1
    25   26   13 2
    26   27    5 1
    27   28    5 1
    28   29   28 1
    29   30   28 1
    30   31   16 ar
    31   32   31 1
    32   33   22 ar
    33   34   33 1
    34   35   24 ar
    35   36   35 1
    36   37   14 ar
    37   38   37 1
    38   39   18 1
    39   40   39 1
    40   41   39 1
    41    7   28 1
    42   27   39 1
    43   31   33 ar
    44   35   37 ar
@<TRIPOS>SUBSTRUCTURE
     1 RES1 1

@<TRIPOS>CRYSIN
  10.1000    9.0450   17.8890  90.0000  94.8950  90.0000  14 1

