# MOL2 file generated by ConQuest
# Please check atom types

@<TRIPOS>MOLECULE
PIJSUX
    35    37     2
SMALL
NO_CHARGES
****
Generated from CSD

@<TRIPOS>ATOM
      1 O1        10.6002   -3.3974    6.0374 O.3       1 RES1    0.0000
      2 N1         7.4060    1.2602    2.5074 N.pl3     1 RES1    0.0000
      3 H1         7.7906    1.4839    1.7291 H         1 RES1    0.0000
      4 N2         9.2516   -3.4288    5.6245 N.2       1 RES1    0.0000
      5 C1         7.4900   -2.4569    4.4412 C.3       1 RES1    0.0000
      6 H2         7.0984   -3.3111    4.7183 H         1 RES1    0.0000
      7 C2         8.9020   -2.4032    4.9400 C.2       1 RES1    0.0000
      8 C3         9.7505   -1.2622    4.4918 C.3       1 RES1    0.0000
      9 H3        10.6676   -1.4068    4.7740 H         1 RES1    0.0000
     10 H4         9.4344   -0.4404    4.8978 H         1 RES1    0.0000
     11 C4         9.6936   -1.1386    2.9650 C.3       1 RES1    0.0000
     12 H5        10.1801   -1.8758    2.5646 H         1 RES1    0.0000
     13 H6        10.1230   -0.3129    2.6921 H         1 RES1    0.0000
     14 C5         8.2455   -1.1510    2.4608 C.3       1 RES1    0.0000
     15 H7         8.2358   -1.0977    1.4828 H         1 RES1    0.0000
     16 C6         7.4703   -0.0112    3.0355 C.2       1 RES1    0.0000
     17 C7         6.7602   -0.0635    4.1934 C.2       1 RES1    0.0000
     18 C8         6.6068   -1.3241    4.9832 C.3       1 RES1    0.0000
     19 H8         5.6782   -1.6047    4.9597 H         1 RES1    0.0000
     20 H9         6.8422   -1.1519    5.9078 H         1 RES1    0.0000
     21 C9         7.5465   -2.4284    2.9142 C.3       1 RES1    0.0000
     22 H10        8.0307   -3.2027    2.5881 H         1 RES1    0.0000
     23 H11        6.6467   -2.4579    2.5510 H         1 RES1    0.0000
     24 C10        6.6304    2.0412    3.3310 C.ar      1 RES1    0.0000
     25 C11        6.2583    3.3758    3.2279 C.ar      1 RES1    0.0000
     26 H12        6.5395    3.8999    2.5126 H         1 RES1    0.0000
     27 C12        5.4589    3.8961    4.2220 C.ar      1 RES1    0.0000
     28 H13        5.1910    4.7855    4.1712 H         1 RES1    0.0000
     29 C13        5.0460    3.1228    5.2942 C.ar      1 RES1    0.0000
     30 H14        4.5136    3.5042    5.9548 H         1 RES1    0.0000
     31 C14        5.4091    1.8016    5.3997 C.ar      1 RES1    0.0000
     32 H15        5.1229    1.2889    6.1207 H         1 RES1    0.0000
     33 C15        6.2139    1.2407    4.4071 C.ar      1 RES1    0.0000
     34 H16       10.6527   -4.4231    6.5106 H         1 RES1    0.0000
     35 H17       10.9433   -2.3970    6.1392 Du        2 SUP2    0.0000
@<TRIPOS>BOND
     1    1    4 1
     2    2    3 1
     3    4    7 2
     4    5    6 1
     5    7    5 1
     6    8    7 1
     7    9    8 1
     8   10    8 1
     9   11    8 1
    10   12   11 1
    11   13   11 1
    12   14   11 1
    13   15   14 1
    14   16    2 1
    15   17   16 2
    16   18    5 1
    17   19   18 1
    18   20   18 1
    19   21    5 1
    20   22   21 1
    21   23   21 1
    22   24    2 1
    23   25   24 ar
    24   26   25 1
    25   27   25 ar
    26   28   27 1
    27   29   27 ar
    28   30   29 1
    29   31   29 ar
    30   32   31 1
    31   33   17 1
    32   34    1 1
    33   14   16 1
    34   14   21 1
    35   17   18 1
    36   24   33 ar
    37   31   33 ar
@<TRIPOS>SUBSTRUCTURE
     1 RES1 1
     2 SUP2 35

@<TRIPOS>CRYSIN
  10.4130    9.5120   12.4940  90.0000  97.8300  90.0000  14 1

