# MOL2 file generated by ConQuest
# Please check atom types

@<TRIPOS>MOLECULE
PIKPAD
    46    49     1
SMALL
NO_CHARGES
****
Generated from CSD

@<TRIPOS>ATOM
      1 O1         6.7222    4.6340    6.3735 O.3       1 RES1    0.0000
      2 O2         5.7875    2.9351   11.5307 O.3       1 RES1    0.0000
      3 O3         8.6778    1.2849    7.2038 O.2       1 RES1    0.0000
      4 O4         8.4450    0.4550    5.2089 O.2       1 RES1    0.0000
      5 N1         6.9689    1.7083    3.4863 N.3       1 RES1    0.0000
      6 N2         8.1714    1.3331    6.0691 N.pl3     1 RES1    0.0000
      7 C1         5.8302    4.6670    5.3413 C.ar      1 RES1    0.0000
      8 C2         5.0327    5.7857    5.2334 C.ar      1 RES1    0.0000
      9 H1         5.1303    6.4897    5.8329 H         1 RES1    0.0000
     10 C3         4.0870    5.8544    4.2277 C.ar      1 RES1    0.0000
     11 H2         3.5485    6.6084    4.1492 H         1 RES1    0.0000
     12 C4         3.9362    4.8058    3.3374 C.ar      1 RES1    0.0000
     13 H3         3.2723    4.8419    2.6875 H         1 RES1    0.0000
     14 C5         4.7629    3.7116    3.4107 C.ar      1 RES1    0.0000
     15 H4         4.6627    3.0156    2.8017 H         1 RES1    0.0000
     16 C6         5.7610    3.6358    4.3994 C.ar      1 RES1    0.0000
     17 C7         6.7026    2.5261    4.5203 C.2       1 RES1    0.0000
     18 C8         7.2814    2.3535    5.7757 C.2       1 RES1    0.0000
     19 C9         7.0528    3.3258    6.8970 C.3       1 RES1    0.0000
     20 H5         7.9057    3.4179    7.3710 H         1 RES1    0.0000
     21 C10        6.0273    2.8972    7.9219 C.ar      1 RES1    0.0000
     22 C11        6.3023    3.1003    9.2629 C.ar      1 RES1    0.0000
     23 H6         7.1084    3.4899    9.5137 H         1 RES1    0.0000
     24 C12        5.3833    2.7269   10.2423 C.ar      1 RES1    0.0000
     25 C13        4.1689    2.1713    9.8708 C.ar      1 RES1    0.0000
     26 H7         3.5411    1.9369   10.5164 H         1 RES1    0.0000
     27 C14        3.9014    1.9689    8.5259 C.ar      1 RES1    0.0000
     28 H8         3.0885    1.5934    8.2753 H         1 RES1    0.0000
     29 C15        4.8156    2.3118    7.5518 C.ar      1 RES1    0.0000
     30 H9         4.6260    2.1538    6.6554 H         1 RES1    0.0000
     31 C16        4.9743    2.3906   12.5700 C.3       1 RES1    0.0000
     32 H10        4.1539    2.8853   12.6266 H         1 RES1    0.0000
     33 H11        5.4417    2.4506   13.4062 H         1 RES1    0.0000
     34 H12        4.7805    1.4703   12.3762 H         1 RES1    0.0000
     35 C17        6.8620    1.9949    2.0847 C.ar      1 RES1    0.0000
     36 C18        6.3524    1.0214    1.2551 C.ar      1 RES1    0.0000
     37 H13        6.0367    0.2218    1.6104 H         1 RES1    0.0000
     38 C19        6.3136    1.2401   -0.1079 C.ar      1 RES1    0.0000
     39 H14        5.9669    0.5845   -0.6695 H         1 RES1    0.0000
     40 C20        6.7780    2.4098   -0.6413 C.ar      1 RES1    0.0000
     41 H15        6.7432    2.5525   -1.5601 H         1 RES1    0.0000
     42 C21        7.3017    3.3803    0.1942 C.ar      1 RES1    0.0000
     43 H16        7.6196    4.1777   -0.1645 H         1 RES1    0.0000
     44 C22        7.3538    3.1711    1.5614 C.ar      1 RES1    0.0000
     45 H17        7.7170    3.8181    2.1217 H         1 RES1    0.0000
     46 H18        7.5678    0.9549    3.7929 H         1 RES1    0.0000
@<TRIPOS>BOND
     1    1    7 1
     2    2   24 1
     3    3    6 2
     4    4    6 2
     5    5   17 1
     6    6   18 1
     7    7    8 ar
     8    8    9 1
     9   10    8 ar
    10   11   10 1
    11   12   10 ar
    12   13   12 1
    13   14   12 ar
    14   15   14 1
    15   16    7 ar
    16   17   16 1
    17   18   17 2
    18   19    1 1
    19   20   19 1
    20   21   19 1
    21   22   21 ar
    22   23   22 1
    23   24   22 ar
    24   25   24 ar
    25   26   25 1
    26   27   25 ar
    27   28   27 1
    28   29   21 ar
    29   30   29 1
    30   31    2 1
    31   32   31 1
    32   33   31 1
    33   34   31 1
    34   35    5 1
    35   36   35 ar
    36   37   36 1
    37   38   36 ar
    38   39   38 1
    39   40   38 ar
    40   41   40 1
    41   42   40 ar
    42   43   42 1
    43   44   35 ar
    44   45   44 1
    45   46    5 1
    46   14   16 ar
    47   18   19 1
    48   27   29 ar
    49   42   44 ar
@<TRIPOS>SUBSTRUCTURE
     1 RES1 1

@<TRIPOS>CRYSIN
   9.5660    9.6740   10.9880  83.1620  72.6530  74.8930   2 1

