# MOL2 file generated by ConQuest
# Please check atom types

@<TRIPOS>MOLECULE
PIKQIJ
    28    29     1
SMALL
NO_CHARGES
****
Generated from CSD

@<TRIPOS>ATOM
      1 O1         3.1268    2.0801    3.3444 O.3       1 RES1    0.0000
      2 O2         2.1309    2.0841    1.3095 O.3       1 RES1    0.0000
      3 N1         2.9196    2.4202    4.7575 N.3       1 RES1    0.0000
      4 C1         0.7591    1.2901    4.6781 C.3       1 RES1    0.0000
      5 C2         4.2725    2.4080    5.3325 C.3       1 RES1    0.0000
      6 C3         2.1338    1.3077    5.3208 C.3       1 RES1    0.0000
      7 C4         0.8775    1.2250    3.1555 C.3       1 RES1    0.0000
      8 C5         4.8626    4.8296    4.9088 C.ar      1 RES1    0.0000
      9 C6         1.8644    2.2590    2.6575 C.3       1 RES1    0.0000
     10 C7         5.1839    3.4826    4.7843 C.ar      1 RES1    0.0000
     11 C8         7.2753    4.1114    3.7614 C.ar      1 RES1    0.0000
     12 C9         5.7346    5.7958    4.4383 C.ar      1 RES1    0.0000
     13 C10        6.3998    3.1343    4.2102 C.ar      1 RES1    0.0000
     14 C11        6.9452    5.4421    3.8742 C.ar      1 RES1    0.0000
     15 H1         4.0181    5.1020    5.3300 H         1 RES1    0.0000
     16 H2         8.1237    3.8458    3.3444 H         1 RES1    0.0000
     17 H3         5.4867    6.7443    4.4985 H         1 RES1    0.0000
     18 H4         6.6425    2.1926    4.1224 H         1 RES1    0.0000
     19 H5         7.5586    6.1318    3.5734 H         1 RES1    0.0000
     20 H6         4.2189    2.5164    6.2960 H         1 RES1    0.0000
     21 H7         4.6921    1.5462    5.1820 H         1 RES1    0.0000
     22 H8         0.2282    0.5597    5.0032 H         1 RES1    0.0000
     23 H9         0.2861    2.1072    4.9130 H         1 RES1    0.0000
     24 H10        2.5699    0.4594    5.1536 H         1 RES1    0.0000
     25 H11        2.0579    1.3985    6.2776 H         1 RES1    0.0000
     26 H12        1.2053    0.3483    2.9082 H         1 RES1    0.0000
     27 H13        0.0232    1.3388    2.7402 H         1 RES1    0.0000
     28 H14        1.4989    3.1547    2.8396 H         1 RES1    0.0000
@<TRIPOS>BOND
     1    1    3 1
     2    2    9 1
     3    3    5 1
     4    4    6 1
     5    5   10 1
     6    6    3 1
     7    7    4 1
     8    8   10 ar
     9    9    1 1
    10   10   13 ar
    11   11   13 ar
    12   12    8 ar
    13   13   18 1
    14   14   11 ar
    15   15    8 1
    16   16   11 1
    17   17   12 1
    18   19   14 1
    19   20    5 1
    20   21    5 1
    21   22    4 1
    22   23    4 1
    23   24    6 1
    24   25    6 1
    25   26    7 1
    26   27    7 1
    27   28    9 1
    28    7    9 1
    29   12   14 ar
@<TRIPOS>SUBSTRUCTURE
     1 RES1 1

@<TRIPOS>CRYSIN
   9.0360   13.5510    8.4780  90.0000  99.7000  90.0000  14 1

