# MOL2 file generated by ConQuest
# Please check atom types

@<TRIPOS>MOLECULE
PIKRAC
    29    32     1
SMALL
NO_CHARGES
****
Generated from CSD

@<TRIPOS>ATOM
      1 C1        -0.6779    2.8425   20.1940 C.ar      1 RES1    0.0000
      2 C2        -1.5757    3.7553   20.6280 C.ar      1 RES1    0.0000
      3 C3        -1.1180    4.7679   21.5017 C.ar      1 RES1    0.0000
      4 C4         0.1986    4.7698   21.9599 C.ar      1 RES1    0.0000
      5 C5         1.0976    3.8093   21.5121 C.ar      1 RES1    0.0000
      6 C6         0.6822    2.8155   20.6291 C.ar      1 RES1    0.0000
      7 C7         1.3130    1.6740   19.9787 C.ar      1 RES1    0.0000
      8 C8         2.6037    1.2314   20.0720 C.ar      1 RES1    0.0000
      9 C9         2.9382    0.0327   19.3870 C.ar      1 RES1    0.0000
     10 C10        1.9975   -0.5909   18.6088 C.ar      1 RES1    0.0000
     11 C11        0.7030   -0.1358   18.4856 C.ar      1 RES1    0.0000
     12 C12        0.3519    1.0259   19.1614 C.ar      1 RES1    0.0000
     13 C13       -0.8971    1.8022   19.2235 C.2       1 RES1    0.0000
     14 C14       -2.0247    1.7588   18.5087 C.2       1 RES1    0.0000
     15 C15       -3.0536    2.8356   18.7343 C.3       1 RES1    0.0000
     16 C16       -2.9794    3.6861   20.0225 C.3       1 RES1    0.0000
     17 C17       -4.0767    3.1619   20.9952 C.3       1 RES1    0.0000
     18 O1        -2.4108    4.8144   17.5969 O.2       1 RES1    0.0000
     19 O2        -3.5722    3.3517   16.5045 O.2       1 RES1    0.0000
     20 O3        -5.6808    3.8621   19.4284 O.2       1 RES1    0.0000
     21 O4        -6.3035    3.6836   21.5132 O.2       1 RES1    0.0000
     22 O5        -3.6795    2.8658   23.3022 O.2       1 RES1    0.0000
     23 O6        -3.9742    4.8641   22.5205 O.2       1 RES1    0.0000
     24 O7        -5.2267    1.1145   20.9894 O.2       1 RES1    0.0000
     25 O8        -3.0788    1.1353   21.2565 O.2       1 RES1    0.0000
     26 N1        -3.0145    3.7685   17.5325 N.pl3     1 RES1    0.0000
     27 N2        -5.4807    3.6321   20.6073 N.pl3     1 RES1    0.0000
     28 N3        -3.8900    3.6434   22.4227 N.pl3     1 RES1    0.0000
     29 N4        -4.1323    1.6696   21.0942 N.pl3     1 RES1    0.0000
@<TRIPOS>BOND
     1    1    2 ar
     2    2    3 ar
     3    3    4 ar
     4    4    5 ar
     5    5    6 ar
     6    6    1 ar
     7    7    6 1
     8    8    7 ar
     9    9    8 ar
    10   10    9 ar
    11   11   10 ar
    12   12    7 ar
    13   13    1 1
    14   14   13 2
    15   15   14 1
    16   16    2 1
    17   17   16 1
    18   18   26 2
    19   19   26 2
    20   20   27 2
    21   21   27 2
    22   22   28 2
    23   23   28 2
    24   24   29 2
    25   25   29 2
    26   26   15 1
    27   27   17 1
    28   28   17 1
    29   29   17 1
    30   11   12 ar
    31   12   13 1
    32   15   16 1
@<TRIPOS>SUBSTRUCTURE
     1 RES1 1

@<TRIPOS>CRYSIN
  11.1240    6.2860   11.8560  90.0000 103.8400  90.0000   4 1

