# MOL2 file generated by ConQuest
# Please check atom types

@<TRIPOS>MOLECULE
PILHOI
    38    39     1
SMALL
NO_CHARGES
****
Generated from CSD

@<TRIPOS>ATOM
      1 O1         3.0778    3.3190    3.4463 O.3       1 RES1    0.0000
      2 O2         1.5988   -2.5584    4.9263 O.2       1 RES1    0.0000
      3 O3        -0.0588   -2.0809    3.6802 O.2       1 RES1    0.0000
      4 O4         0.8118   -1.1318    1.1500 O.2       1 RES1    0.0000
      5 O5        -0.7350    0.2337    1.7181 O.2       1 RES1    0.0000
      6 O6        -0.2985    3.2113    3.3938 O.2       1 RES1    0.0000
      7 O7        -1.5638    4.1021    1.9251 O.2       1 RES1    0.0000
      8 O8         3.4448    3.5036   -2.6147 O.2       1 RES1    0.0000
      9 O9         3.4032    1.3951   -2.2293 O.2       1 RES1    0.0000
     10 O10        3.3699    1.1986    0.6040 O.3       1 RES1    0.0000
     11 N1         0.9925   -1.8004    4.2146 N.pl3     1 RES1    0.0000
     12 N2         0.3591   -0.2516    1.8406 N.pl3     1 RES1    0.0000
     13 N3        -0.5444    3.5288    2.2599 N.pl3     1 RES1    0.0000
     14 N4         3.1076    2.5318   -1.9494 N.pl3     1 RES1    0.0000
     15 C1         2.5986    2.0835    3.6929 C.ar      1 RES1    0.0000
     16 C2         2.9169    1.3212    4.8112 C.ar      1 RES1    0.0000
     17 H1         3.4861    1.6665    5.4607 H         1 RES1    0.0000
     18 C3         2.3938    0.0566    4.9612 C.ar      1 RES1    0.0000
     19 H2         2.6137   -0.4494    5.7099 H         1 RES1    0.0000
     20 C4         1.5508   -0.4611    4.0139 C.ar      1 RES1    0.0000
     21 C5         1.2243    0.3008    2.8988 C.ar      1 RES1    0.0000
     22 C6         1.7317    1.5665    2.7090 C.ar      1 RES1    0.0000
     23 C7         1.4875    2.3361    1.4416 C.ar      1 RES1    0.0000
     24 C8         0.4529    3.2368    1.2102 C.ar      1 RES1    0.0000
     25 C9         0.2990    3.9064    0.0169 C.ar      1 RES1    0.0000
     26 H3        -0.4094    4.4975   -0.1035 H         1 RES1    0.0000
     27 C10        1.2004    3.6935   -0.9927 C.ar      1 RES1    0.0000
     28 H4         1.1259    4.1599   -1.7942 H         1 RES1    0.0000
     29 C11        2.2132    2.7873   -0.8110 C.ar      1 RES1    0.0000
     30 C12        2.3910    2.1031    0.3939 C.ar      1 RES1    0.0000
     31 C13        4.6930    1.7033    0.7297 C.3       1 RES1    0.0000
     32 H5         4.9785    2.0659   -0.1119 H         1 RES1    0.0000
     33 H6         5.2835    0.9925    0.9884 H         1 RES1    0.0000
     34 H7         4.7104    2.3930    1.3971 H         1 RES1    0.0000
     35 C14        3.9831    3.8935    4.4142 C.3       1 RES1    0.0000
     36 H8         3.5519    3.9348    5.2706 H         1 RES1    0.0000
     37 H9         4.2283    4.7789    4.1354 H         1 RES1    0.0000
     38 H10        4.7709    3.3482    4.4775 H         1 RES1    0.0000
@<TRIPOS>BOND
     1    1   15 1
     2    2   11 2
     3    3   11 2
     4    4   12 2
     5    5   12 2
     6    6   13 2
     7    7   13 2
     8    8   14 2
     9    9   14 2
    10   10   30 1
    11   11   20 1
    12   12   21 1
    13   13   24 1
    14   14   29 1
    15   15   16 ar
    16   16   17 1
    17   18   16 ar
    18   19   18 1
    19   20   18 ar
    20   21   20 ar
    21   22   15 ar
    22   23   22 1
    23   24   23 ar
    24   25   24 ar
    25   26   25 1
    26   27   25 ar
    27   28   27 1
    28   29   27 ar
    29   30   23 ar
    30   31   10 1
    31   32   31 1
    32   33   31 1
    33   34   31 1
    34   35    1 1
    35   36   35 1
    36   37   35 1
    37   38   35 1
    38   21   22 ar
    39   29   30 ar
@<TRIPOS>SUBSTRUCTURE
     1 RES1 1

@<TRIPOS>CRYSIN
   8.1821   10.2161   10.6133  95.1180  90.5790 110.9770   2 1

