# MOL2 file generated by ConQuest
# Please check atom types

@<TRIPOS>MOLECULE
PILXAM
    45    46     1
SMALL
NO_CHARGES
****
Generated from CSD

@<TRIPOS>ATOM
      1 O1        -1.3081    2.4740    3.6743 O.3       1 RES1    0.0000
      2 O2        -0.0685    2.4564    1.0834 O.3       1 RES1    0.0000
      3 O3         2.9877    1.1074   -1.0621 O.3       1 RES1    0.0000
      4 H1         2.3539    1.1582   -0.5430 H         1 RES1    0.0000
      5 N1         3.2318    2.7215    9.9742 N.3       1 RES1    0.0000
      6 N2        -0.2983    2.1394    4.6145 N.2       1 RES1    0.0000
      7 N3         1.0301    2.2950    0.2329 N.2       1 RES1    0.0000
      8 C1         2.4384    2.8359    8.8455 C.ar      1 RES1    0.0000
      9 C2         1.4626    3.7975    8.7399 C.ar      1 RES1    0.0000
     10 H2         1.3595    4.4177    9.4249 H         1 RES1    0.0000
     11 C3         0.6336    3.8631    7.6445 C.ar      1 RES1    0.0000
     12 H3        -0.0131    4.5302    7.6092 H         1 RES1    0.0000
     13 C4         0.7297    2.9719    6.5924 C.ar      1 RES1    0.0000
     14 C5         1.7419    2.0602    6.6760 C.ar      1 RES1    0.0000
     15 H4         1.8724    1.4693    5.9701 H         1 RES1    0.0000
     16 C6         2.5745    1.9819    7.7648 C.ar      1 RES1    0.0000
     17 H5         3.2467    1.3392    7.7758 H         1 RES1    0.0000
     18 C7        -0.2143    3.0365    5.4890 C.2       1 RES1    0.0000
     19 H6        -0.7793    3.7731    5.4270 H         1 RES1    0.0000
     20 C8        -1.4234    1.4341    2.7185 C.3       1 RES1    0.0000
     21 H7        -2.1901    1.6161    2.1522 H         1 RES1    0.0000
     22 H8        -1.5936    0.6006    3.1849 H         1 RES1    0.0000
     23 C9        -0.2249    1.2610    1.8553 C.3       1 RES1    0.0000
     24 H9         0.5621    1.1103    2.4020 H         1 RES1    0.0000
     25 H10       -0.3424    0.4969    1.2693 H         1 RES1    0.0000
     26 C10        1.2567    3.3211   -0.4671 C.2       1 RES1    0.0000
     27 H11        0.7059    4.0636   -0.3631 H         1 RES1    0.0000
     28 C11        2.3381    3.3886   -1.4222 C.ar      1 RES1    0.0000
     29 C12        3.1542    2.3038   -1.6934 C.ar      1 RES1    0.0000
     30 C13        4.1649    2.4270   -2.6209 C.ar      1 RES1    0.0000
     31 H12        4.7075    1.6972   -2.8118 H         1 RES1    0.0000
     32 C14        4.3749    3.6156   -3.2609 C.ar      1 RES1    0.0000
     33 H13        5.0740    3.6889   -3.8712 H         1 RES1    0.0000
     34 C15        3.5806    4.6916   -3.0233 C.ar      1 RES1    0.0000
     35 H14        3.7260    5.4967   -3.4681 H         1 RES1    0.0000
     36 C16        2.5572    4.5684   -2.1135 C.ar      1 RES1    0.0000
     37 H15        1.9984    5.2952   -1.9589 H         1 RES1    0.0000
     38 C17        3.0668    3.6058   11.0840 C.3       1 RES1    0.0000
     39 H16        3.3771    4.4813   10.8441 H         1 RES1    0.0000
     40 H17        3.5737    3.2800   11.8302 H         1 RES1    0.0000
     41 H18        2.1376    3.6498   11.3238 H         1 RES1    0.0000
     42 C18        4.1892    1.6591   10.1015 C.3       1 RES1    0.0000
     43 H19        3.7328    0.8149   10.0912 H         1 RES1    0.0000
     44 H20        4.6666    1.7559   10.9274 H         1 RES1    0.0000
     45 H21        4.8077    1.6963    9.3682 H         1 RES1    0.0000
@<TRIPOS>BOND
     1    1    6 1
     2    2    7 1
     3    3    4 1
     4    5    8 1
     5    6   18 2
     6    7   26 2
     7    8    9 ar
     8    9   10 1
     9   11    9 ar
    10   12   11 1
    11   13   11 ar
    12   14   13 ar
    13   15   14 1
    14   16    8 ar
    15   17   16 1
    16   18   13 1
    17   19   18 1
    18   20    1 1
    19   21   20 1
    20   22   20 1
    21   23    2 1
    22   24   23 1
    23   25   23 1
    24   26   27 1
    25   28   26 1
    26   29    3 1
    27   30   29 ar
    28   31   30 1
    29   32   30 ar
    30   33   32 1
    31   34   32 ar
    32   35   34 1
    33   36   28 ar
    34   37   36 1
    35   38    5 1
    36   39   38 1
    37   40   38 1
    38   41   38 1
    39   42    5 1
    40   43   42 1
    41   44   42 1
    42   45   42 1
    43   14   16 ar
    44   20   23 1
    45   28   29 ar
    46   34   36 ar
@<TRIPOS>SUBSTRUCTURE
     1 RES1 1

@<TRIPOS>CRYSIN
   5.3025    9.7824   33.3847  90.0000  93.6990  90.0000 231 1

