# MOL2 file generated by ConQuest
# Please check atom types

@<TRIPOS>MOLECULE
PIMKOO
    22    23     1
SMALL
NO_CHARGES
****
Generated from CSD

@<TRIPOS>ATOM
      1 O1         1.9064    5.2781    0.4901 O.3       1 RES1    0.0000
      2 O2        -0.4534    3.8803    1.6802 O.3       1 RES1    0.0000
      3 O3         0.2360    1.7478    1.8386 O.2       1 RES1    0.0000
      4 O4        -1.7147    2.2484    1.0091 O.2       1 RES1    0.0000
      5 O5         3.8887    6.3342    2.0097 O.3       1 RES1    0.0000
      6 O6         1.5095    6.0309    3.7130 O.3       1 RES1    0.0000
      7 N1        -0.6432    2.4968    1.5022 N.pl3     1 RES1    0.0000
      8 C1         1.9739    4.0828    1.2899 C.3       1 RES1    0.0000
      9 C2         0.8381    4.2160    2.2847 C.3       1 RES1    0.0000
     10 C3         0.7551    5.7230    2.5370 C.3       1 RES1    0.0000
     11 C4         1.5063    6.3568    1.3454 C.3       1 RES1    0.0000
     12 C5         2.7020    7.1088    1.9959 C.3       1 RES1    0.0000
     13 C6         2.2312    7.2443    3.4271 C.3       1 RES1    0.0000
     14 H1         4.1421    6.2477    1.2534 H         1 RES1    0.0000
     15 H2         1.8524    3.3271    0.6664 H         1 RES1    0.0000
     16 H3         2.8236    4.0572    1.7453 H         1 RES1    0.0000
     17 H4         0.9262    3.7335    3.0463 H         1 RES1    0.0000
     18 H5        -0.1865    6.0294    2.5703 H         1 RES1    0.0000
     19 H6         0.9583    6.9176    0.8250 H         1 RES1    0.0000
     20 H7         2.9007    7.9940    1.5390 H         1 RES1    0.0000
     21 H8         2.9522    7.2940    3.9982 H         1 RES1    0.0000
     22 H9         1.6208    8.0693    3.5381 H         1 RES1    0.0000
@<TRIPOS>BOND
     1    1    8 1
     2    2    7 1
     3    3    7 2
     4    4    7 2
     5    5   12 1
     6    6   10 1
     7    8    9 1
     8    9    2 1
     9   10    9 1
    10   11    1 1
    11   12   11 1
    12   13    6 1
    13   14    5 1
    14   15    8 1
    15   16    8 1
    16   17    9 1
    17   18   10 1
    18   19   11 1
    19   20   12 1
    20   21   13 1
    21   22   13 1
    22   10   11 1
    23   12   13 1
@<TRIPOS>SUBSTRUCTURE
     1 RES1 1

@<TRIPOS>CRYSIN
   6.4318    7.5273   15.8660  90.0000  90.0000  90.0000  19 1

