# MOL2 file generated by ConQuest
# Please check atom types

@<TRIPOS>MOLECULE
PIMKOL
    24    25     1
SMALL
NO_CHARGES
****
Generated from CSD

@<TRIPOS>ATOM
      1 O1         2.4809    3.7598    1.2955 O.3       1 RES1    0.0000
      2 O2        -0.3222    3.8736    0.2517 O.3       1 RES1    0.0000
      3 O3        -1.1075    1.7897    0.1803 O.2       1 RES1    0.0000
      4 O4        -1.5051    3.1976   -1.4117 O.2       1 RES1    0.0000
      5 O5         3.1984    3.8266    3.7821 O.3       1 RES1    0.0000
      6 O6         0.3676    4.8024    3.5933 O.3       1 RES1    0.0000
      7 O7         3.9417    4.8494    5.6382 O.2       1 RES1    0.0000
      8 O8         4.3824    2.7644    5.2453 O.2       1 RES1    0.0000
      9 N1        -1.0414    2.8486   -0.3592 N.pl3     1 RES1    0.0000
     10 N2         3.9014    3.8364    4.9976 N.pl3     1 RES1    0.0000
     11 C1         1.4740    2.7731    1.5305 C.3       1 RES1    0.0000
     12 C2         0.1692    3.5345    1.5833 C.3       1 RES1    0.0000
     13 C3         0.5736    4.8669    2.1814 C.3       1 RES1    0.0000
     14 C4         2.1006    4.9468    1.9630 C.3       1 RES1    0.0000
     15 C5         2.6748    5.1251    3.4055 C.3       1 RES1    0.0000
     16 C6         1.4453    5.4970    4.2118 C.3       1 RES1    0.0000
     17 H1         1.5822    2.1988    0.7916 H         1 RES1    0.0000
     18 H2         1.5304    2.2754    2.4629 H         1 RES1    0.0000
     19 H3        -0.5236    3.0411    2.0231 H         1 RES1    0.0000
     20 H4         0.0863    5.6337    1.7445 H         1 RES1    0.0000
     21 H5         2.4395    5.7103    1.4806 H         1 RES1    0.0000
     22 H6         3.4348    5.8306    3.5037 H         1 RES1    0.0000
     23 H7         1.5477    5.1743    5.0430 H         1 RES1    0.0000
     24 H8         1.2312    6.3886    4.2074 H         1 RES1    0.0000
@<TRIPOS>BOND
     1    1   11 1
     2    2    9 1
     3    3    9 2
     4    4    9 2
     5    5   10 1
     6    6   13 1
     7    7   10 2
     8    8   10 2
     9   11   12 1
    10   12    2 1
    11   13   12 1
    12   14    1 1
    13   15    5 1
    14   16    6 1
    15   17   11 1
    16   18   11 1
    17   19   12 1
    18   20   13 1
    19   21   14 1
    20   22   15 1
    21   23   16 1
    22   24   16 1
    23   13   14 1
    24   14   15 1
    25   15   16 1
@<TRIPOS>SUBSTRUCTURE
     1 RES1 1

@<TRIPOS>CRYSIN
   5.7535   10.9393   14.6599  90.0000  90.0000  90.0000  18 2

