# MOL2 file generated by ConQuest
# Please check atom types

@<TRIPOS>MOLECULE
PIMKIF
    30    30     1
SMALL
NO_CHARGES
****
Generated from CSD

@<TRIPOS>ATOM
      1 O1         4.1147    2.2798    2.7385 O.3       1 RES1    0.0000
      2 O2         4.0178    3.4284    0.9184 O.2       1 RES1    0.0000
      3 O3         4.2370    4.4952    2.7956 O.2       1 RES1    0.0000
      4 N1         4.1275    3.5123    2.1177 N.pl3     1 RES1    0.0000
      5 C1         3.9161    0.9305    4.6689 C.3       1 RES1    0.0000
      6 C2         4.2089    0.8119    6.1581 C.3       1 RES1    0.0000
      7 C3         2.4600    0.5680    4.3962 C.3       1 RES1    0.0000
      8 C4         4.2347    2.3270    4.1967 C.3       1 RES1    0.0000
      9 H1         4.5721    0.3341    4.2233 H         1 RES1    0.0000
     10 H2         5.0649    1.0023    6.3072 H         1 RES1    0.0000
     11 H3         3.7276    1.5035    6.6619 H         1 RES1    0.0000
     12 H4         2.3303    0.6515    3.5028 H         1 RES1    0.0000
     13 H5         1.8941    1.2362    4.8330 H         1 RES1    0.0000
     14 H6         3.5563    2.9067    4.5060 H         1 RES1    0.0000
     15 H7         5.1337    2.5893    4.3951 H         1 RES1    0.0000
     16 C3B        3.8611   -0.5680    6.6885 C.3       1 RES1    0.0000
     17 C2B        2.1121   -0.8119    4.9266 C.3       1 RES1    0.0000
     18 C1B        2.4050   -0.9305    6.4159 C.3       1 RES1    0.0000
     19 H4B        3.9907   -0.6515    7.5820 H         1 RES1    0.0000
     20 H5B        4.4270   -1.2362    6.2518 H         1 RES1    0.0000
     21 H2B        1.2561   -1.0023    4.7775 H         1 RES1    0.0000
     22 H3B        2.5934   -1.5035    4.4228 H         1 RES1    0.0000
     23 C4B        2.0864   -2.3270    6.8881 C.3       1 RES1    0.0000
     24 H1B        1.7490   -0.3341    6.8615 H         1 RES1    0.0000
     25 O1B        2.2064   -2.2798    8.3463 O.3       1 RES1    0.0000
     26 H6B        2.7648   -2.9067    6.5788 H         1 RES1    0.0000
     27 H7B        1.1874   -2.5893    6.6896 H         1 RES1    0.0000
     28 N1B        2.1936   -3.5123    8.9670 N.pl3     1 RES1    0.0000
     29 O2B        2.3033   -3.4284   10.1664 O.2       1 RES1    0.0000
     30 O3B        2.0841   -4.4952    8.2892 O.2       1 RES1    0.0000
@<TRIPOS>BOND
     1    1    4 1
     2    2    4 2
     3    3    4 2
     4    5    6 1
     5    6   10 1
     6    7    5 1
     7    8    1 1
     8    9    5 1
     9   11    6 1
    10   12    7 1
    11   13    7 1
    12   14    8 1
    13   15    8 1
    14   16    6 1
    15   17    7 1
    16   18   16 1
    17   19   16 1
    18   20   16 1
    19   21   17 1
    20   22   17 1
    21   23   18 1
    22   24   18 1
    23   25   23 1
    24   26   23 1
    25   27   23 1
    26   28   25 1
    27   29   28 2
    28   30   28 2
    29    5    8 1
    30   17   18 1
@<TRIPOS>SUBSTRUCTURE
     1 RES1 1

@<TRIPOS>CRYSIN
   5.9443   16.7052    6.2022  90.0000 116.6690  90.0000  14 2

