# MOL2 file generated by ConQuest
# Please check atom types

@<TRIPOS>MOLECULE
PIMWUG
    44    46     1
SMALL
NO_CHARGES
****
Generated from CSD

@<TRIPOS>ATOM
      1 O1        13.0057   -0.6937    9.9864 O.3       1 RES1    0.0000
      2 N1        12.2271   -0.6800   11.1679 N.am      1 RES1    0.0000
      3 C1        11.9839   -2.0643   11.6429 C.3       1 RES1    0.0000
      4 C2        12.6011   -2.8944   10.5094 C.3       1 RES1    0.0000
      5 C3        12.6578   -1.9445    9.3486 C.3       1 RES1    0.0000
      6 O2        11.4493   -1.8687    8.7144 O.3       1 RES1    0.0000
      7 C4        11.5156    0.4261   11.4164 C.2       1 RES1    0.0000
      8 O3        11.6279    1.4505   10.7415 O.2       1 RES1    0.0000
      9 C5        10.6179    0.3214   12.6090 C.ar      1 RES1    0.0000
     10 C6         9.3072   -0.1243   12.4255 C.ar      1 RES1    0.0000
     11 C7         8.5145   -0.3123   13.5519 C.ar      1 RES1    0.0000
     12 C8         8.9810   -0.0462   14.8289 C.ar      1 RES1    0.0000
     13 C9        10.2671    0.4465   14.9693 C.ar      1 RES1    0.0000
     14 C10       11.1140    0.6391   13.8809 C.ar      1 RES1    0.0000
     15 C11        8.7604   -0.3859   11.0554 C.3       1 RES1    0.0000
     16 C12        8.0945   -0.2987   16.0308 C.3       1 RES1    0.0000
     17 C13       12.5173    1.1425   14.0639 C.3       1 RES1    0.0000
     18 C14       12.5759   -2.3114   13.0063 C.ar      1 RES1    0.0000
     19 C15       13.9421   -2.1439   13.2187 C.ar      1 RES1    0.0000
     20 C16       14.5049   -2.3660   14.4486 C.ar      1 RES1    0.0000
     21 C17       13.7278   -2.7625   15.4701 C.ar      1 RES1    0.0000
     22 C18       12.3721   -2.9119   15.3176 C.ar      1 RES1    0.0000
     23 C19       11.7700   -2.6905   14.0520 C.ar      1 RES1    0.0000
     24 H1        11.0164   -2.2068   11.6957 H         1 RES1    0.0000
     25 H2        13.4119   -2.0984    8.7447 H         1 RES1    0.0000
     26 H3        13.4744   -3.1673   10.7810 H         1 RES1    0.0000
     27 H4        12.1174   -3.6245   10.3269 H         1 RES1    0.0000
     28 H5        11.5244   -1.4161    7.9587 H         1 RES1    0.0000
     29 H6         7.5658   -0.6686   13.4406 H         1 RES1    0.0000
     30 H7        10.6151    0.7361   15.9122 H         1 RES1    0.0000
     31 H8         7.8843   -0.8271   11.0757 H         1 RES1    0.0000
     32 H9         8.5344    0.4473   10.7064 H         1 RES1    0.0000
     33 H10        9.3409   -0.8407   10.4506 H         1 RES1    0.0000
     34 H11        7.3276   -0.7846   15.7056 H         1 RES1    0.0000
     35 H12        8.1674    0.3336   16.6288 H         1 RES1    0.0000
     36 H13        8.4890   -1.1008   16.4899 H         1 RES1    0.0000
     37 H14       12.7820    1.8907   13.3593 H         1 RES1    0.0000
     38 H15       12.6592    1.5905   14.8687 H         1 RES1    0.0000
     39 H16       13.1548    0.5436   13.7913 H         1 RES1    0.0000
     40 H17       14.5203   -1.8194   12.4547 H         1 RES1    0.0000
     41 H18       15.5375   -2.4350   14.6519 H         1 RES1    0.0000
     42 H19       14.1422   -2.8300   16.3849 H         1 RES1    0.0000
     43 H20       11.7495   -3.1249   15.6988 H         1 RES1    0.0000
     44 H21       10.8377   -2.6981   13.8692 H         1 RES1    0.0000
@<TRIPOS>BOND
     1    1    2 1
     2    2    3 1
     3    3    4 1
     4    4    5 1
     5    5    1 1
     6    6    5 1
     7    7    2 1
     8    8    7 2
     9    9    7 1
    10   10    9 ar
    11   11   10 ar
    12   12   11 ar
    13   13   12 ar
    14   14    9 ar
    15   15   10 1
    16   16   12 1
    17   17   14 1
    18   18    3 1
    19   19   18 ar
    20   20   19 ar
    21   21   20 ar
    22   22   21 ar
    23   23   18 ar
    24   24    3 1
    25   25    5 1
    26   26    4 1
    27   27    4 1
    28   28    6 1
    29   29   11 1
    30   30   13 1
    31   31   15 1
    32   32   15 1
    33   33   15 1
    34   34   16 1
    35   35   16 1
    36   36   16 1
    37   37   17 1
    38   38   17 1
    39   39   17 1
    40   40   19 1
    41   41   20 1
    42   42   21 1
    43   43   22 1
    44   44   23 1
    45   13   14 ar
    46   22   23 ar
@<TRIPOS>SUBSTRUCTURE
     1 RES1 1

@<TRIPOS>CRYSIN
  13.1580    7.5810   17.0580  90.0000  96.7280  90.0000 231 1

