# MOL2 file generated by ConQuest
# Please check atom types

@<TRIPOS>MOLECULE
PIMWEQ
    51    55     1
SMALL
NO_CHARGES
****
Generated from CSD

@<TRIPOS>ATOM
      1 O1         8.3206    6.7642    9.0153 O.3       1 RES1    0.0000
      2 O2         5.6804    6.0955    8.1593 O.3       1 RES1    0.0000
      3 O3        10.1400    6.9456    5.3631 O.2       1 RES1    0.0000
      4 N1         6.4109    2.1860    7.3092 N.pl3     1 RES1    0.0000
      5 O4        10.2282   -2.3380    5.1869 O.2       1 RES1    0.0000
      6 N2         5.2111    1.6789    7.6749 N.2       1 RES1    0.0000
      7 N3        10.4433   -1.1419    5.2494 N.pl3     1 RES1    0.0000
      8 O5        11.4814   -0.6268    4.8858 O.2       1 RES1    0.0000
      9 C1         9.4129    6.0047    8.7575 C.ar      1 RES1    0.0000
     10 N4         4.4586    2.6943    8.0262 N.2       1 RES1    0.0000
     11 C2        10.0656    5.9993    7.5263 C.ar      1 RES1    0.0000
     12 C3         5.4559    7.3940    8.4932 C.ar      1 RES1    0.0000
     13 C4         7.4469    1.3465    6.8196 C.ar      1 RES1    0.0000
     14 C5         4.2382    7.8879    8.9265 C.ar      1 RES1    0.0000
     15 H1         3.5048    7.3223    9.0115 H         1 RES1    0.0000
     16 C6         5.1637    3.8490    7.8787 C.2       1 RES1    0.0000
     17 C7         9.5463    6.8146    6.4181 C.2       1 RES1    0.0000
     18 C8        11.1817    5.1699    7.3512 C.ar      1 RES1    0.0000
     19 H2        11.6282    5.1633    6.5348 H         1 RES1    0.0000
     20 C9         6.4003    3.5397    7.4260 C.2       1 RES1    0.0000
     21 H3         7.0951    4.1278    7.2354 H         1 RES1    0.0000
     22 C10        9.8734    5.1980    9.7951 C.ar      1 RES1    0.0000
     23 H4         9.4452    5.2102   10.6207 H         1 RES1    0.0000
     24 C11        7.1809    0.0019    6.6014 C.ar      1 RES1    0.0000
     25 H5         6.3424   -0.3454    6.8012 H         1 RES1    0.0000
     26 C12        9.3896   -0.2758    5.8004 C.ar      1 RES1    0.0000
     27 C13        8.1626   -0.8168    6.0872 C.ar      1 RES1    0.0000
     28 H6         7.9957   -1.7192    5.9377 H         1 RES1    0.0000
     29 C14        4.5868    5.1837    8.2034 C.3       1 RES1    0.0000
     30 H7         3.9095    5.4309    7.5550 H         1 RES1    0.0000
     31 H8         4.1850    5.1760    9.0863 H         1 RES1    0.0000
     32 C15        9.6693    1.0445    6.0207 C.ar      1 RES1    0.0000
     33 H9        10.5090    1.3871    5.8168 H         1 RES1    0.0000
     34 C16        8.6896    1.8629    6.5471 C.ar      1 RES1    0.0000
     35 H10        8.8710    2.7598    6.7172 H         1 RES1    0.0000
     36 C17        4.1258    9.2343    9.2338 C.ar      1 RES1    0.0000
     37 H11        3.3125    9.5726    9.5329 H         1 RES1    0.0000
     38 C18        6.5743    8.2426    8.4000 C.ar      1 RES1    0.0000
     39 C19       11.6202    4.3689    8.3744 C.ar      1 RES1    0.0000
     40 H12       12.3579    3.8154    8.2505 H         1 RES1    0.0000
     41 C20       10.9610    4.3849    9.5923 C.ar      1 RES1    0.0000
     42 H13       11.2594    3.8379   10.2837 H         1 RES1    0.0000
     43 C21        5.2002   10.0727    9.0996 C.ar      1 RES1    0.0000
     44 H14        5.1059   10.9797    9.2819 H         1 RES1    0.0000
     45 C22        6.4175    9.5783    8.6971 C.ar      1 RES1    0.0000
     46 H15        7.1451   10.1538    8.6233 H         1 RES1    0.0000
     47 C23        8.1798    7.3885    6.6670 C.3       1 RES1    0.0000
     48 H16        8.0741    8.1893    6.1292 H         1 RES1    0.0000
     49 H17        7.5132    6.7477    6.3740 H         1 RES1    0.0000
     50 C24        7.9318    7.7169    8.0313 C.3       1 RES1    0.0000
     51 H18        8.5271    8.4770    8.1983 H         1 RES1    0.0000
@<TRIPOS>BOND
     1    1    9 1
     2    2   12 1
     3    3   17 2
     4    4    6 1
     5    5    7 2
     6    6   10 2
     7    7    8 2
     8    9   11 ar
     9   10   16 1
    10   11   17 1
    11   12   14 ar
    12   13    4 1
    13   14   15 1
    14   16   20 2
    15   17   47 1
    16   18   11 ar
    17   19   18 1
    18   20    4 1
    19   21   20 1
    20   22    9 ar
    21   23   22 1
    22   24   13 ar
    23   25   24 1
    24   26    7 1
    25   27   24 ar
    26   28   27 1
    27   29    2 1
    28   30   29 1
    29   31   29 1
    30   32   26 ar
    31   33   32 1
    32   34   13 ar
    33   35   34 1
    34   36   14 ar
    35   37   36 1
    36   38   12 ar
    37   39   18 ar
    38   40   39 1
    39   41   22 ar
    40   42   41 1
    41   43   36 ar
    42   44   43 1
    43   45   38 ar
    44   46   45 1
    45   47   48 1
    46   49   47 1
    47   50    1 1
    48   51   50 1
    49   16   29 1
    50   26   27 ar
    51   32   34 ar
    52   38   50 1
    53   39   41 ar
    54   43   45 ar
    55   47   50 1
@<TRIPOS>SUBSTRUCTURE
     1 RES1 1

@<TRIPOS>CRYSIN
  10.6360   10.6484   10.8135  73.3770  75.0780  63.4010   2 1

