# MOL2 file generated by ConQuest
# Please check atom types

@<TRIPOS>MOLECULE
PINBAS
    51    45     2
SMALL
NO_CHARGES
****
Generated from CSD

@<TRIPOS>ATOM
      1 C1         1.1136   14.7509    0.3767 C.ar      1 RES1    0.0000
      2 C2         0.0261   14.6476    1.2159 C.ar      1 RES1    0.0000
      3 H1        -0.6870   15.2414    1.1512 H         1 RES1    0.0000
      4 C3         0.0264   13.6369    2.1570 C.ar      1 RES1    0.0000
      5 H2        -0.6889   13.5569    2.7456 H         1 RES1    0.0000
      6 C4         1.0856   12.7344    2.2346 C.ar      1 RES1    0.0000
      7 C5         2.1695   12.8494    1.3535 C.ar      1 RES1    0.0000
      8 C6         2.1866   13.8861    0.4303 C.ar      1 RES1    0.0000
      9 H3         2.9103   13.9956   -0.1431 H         1 RES1    0.0000
     10 C7         3.2973   11.8351    1.3710 C.3       1 RES1    0.0000
     11 H4         4.1444   12.2994    1.4621 H         1 RES1    0.0000
     12 H5         3.3091   11.3544    0.5282 H         1 RES1    0.0000
     13 C8         3.1448   10.8412    2.5140 C.3       1 RES1    0.0000
     14 C9         1.7055   10.3703    2.6177 C.3       1 RES1    0.0000
     15 H6         1.6143    9.5894    3.1856 H         1 RES1    0.0000
     16 H7         1.3126   10.1932    1.7483 H         1 RES1    0.0000
     17 C10        1.1299   11.6350    3.2700 C.3       1 RES1    0.0000
     18 H8         0.2470   11.4713    3.6633 H         1 RES1    0.0000
     19 O1         3.3939   11.4969    3.7730 O.3       1 RES1    0.0000
     20 C11        4.1951    9.7402    2.4078 C.2       1 RES1    0.0000
     21 C12        1.9182   11.5286    5.6861 C.3       1 RES1    0.0000
     22 C13        0.7403   12.3198    6.2469 C.3       1 RES1    0.0000
     23 H9         0.9255   13.2595    6.1797 H         1 RES1    0.0000
     24 H10        0.6063   12.0838    7.1674 H         1 RES1    0.0000
     25 H11       -0.0516   12.1132    5.7451 H         1 RES1    0.0000
     26 C14        3.1676   11.9016    6.4702 C.3       1 RES1    0.0000
     27 H12        3.9205   11.4172    6.1238 H         1 RES1    0.0000
     28 H13        3.0432   11.6791    7.3954 H         1 RES1    0.0000
     29 H14        3.3289   12.8443    6.3863 H         1 RES1    0.0000
     30 C15        1.6682   10.0249    5.7987 C.3       1 RES1    0.0000
     31 H15        0.8539    9.8004    5.3416 H         1 RES1    0.0000
     32 H16        1.5936    9.7811    6.7241 H         1 RES1    0.0000
     33 H17        2.3997    9.5478    5.3997 H         1 RES1    0.0000
     34 N1         1.1367   15.8083   -0.6530 N.pl3     1 RES1    0.0000
     35 N2         2.1168   12.0429    4.2925 N.3       1 RES1    0.0000
     36 O2         2.2212   16.0447   -1.2523 O.2       1 RES1    0.0000
     37 O3         0.3735   16.7593   -0.5218 O.2       1 RES1    0.0000
     38 O4         5.2214    9.9082    1.8419 O.2       1 RES1    0.0000
     39 O5         4.1592    8.9249    3.4524 O.3       1 RES1    0.0000
     40 C16        5.0843    7.8254    3.4169 C.3       1 RES1    0.0000
     41 H18        5.9736    8.1595    3.2781 H         1 RES1    0.0000
     42 H19        4.8494    7.2332    2.6993 H         1 RES1    0.0000
     43 H20        5.0474    7.3493    4.2496 H         1 RES1    0.0000
     44 O6         1.9450   15.7551   -1.4847 Du        2 SUP2    0.0000
     45 O7         0.0332   16.3001   -0.9554 Du        2 SUP2    0.0000
     46 O8         4.9202    9.5757    1.4858 Du        2 SUP2    0.0000
     47 O9         3.8717    8.6239    2.9984 Du        2 SUP2    0.0000
     48 C17        4.8508    7.5361    3.0081 Du        2 SUP2    0.0000
     49 H21        5.0516    7.2782    2.1055 Du        2 SUP2    0.0000
     50 H22        4.4884    6.7833    3.4815 Du        2 SUP2    0.0000
     51 H23        5.6538    7.8311    3.4427 Du        2 SUP2    0.0000
@<TRIPOS>BOND
     1    1    2 ar
     2    2    3 1
     3    4    2 ar
     4    5    4 1
     5    6    4 ar
     6    7    6 ar
     7    8    1 ar
     8    9    8 1
     9   10    7 1
    10   11   10 1
    11   12   10 1
    12   13   10 1
    13   14   13 1
    14   15   14 1
    15   16   14 1
    16   17    6 1
    17   18   17 1
    18   19   13 1
    19   20   13 1
    20   21   22 1
    21   22   23 1
    22   24   22 1
    23   25   22 1
    24   26   21 1
    25   27   26 1
    26   28   26 1
    27   29   26 1
    28   30   21 1
    29   31   30 1
    30   32   30 1
    31   33   30 1
    32   34    1 1
    33   35   17 1
    34   36   34 2
    35   37   34 2
    36   38   20 2
    37   39   20 1
    38   40   39 1
    39   41   40 1
    40   42   40 1
    41   43   40 1
    42    7    8 ar
    43   14   17 1
    44   19   35 1
    45   21   35 1
@<TRIPOS>SUBSTRUCTURE
     1 RES1 1
     2 SUP2 44

@<TRIPOS>CRYSIN
   6.5869   11.3778   12.1067  63.3990  80.8890  82.2710   2 1

