# MOL2 file generated by ConQuest
# Please check atom types

@<TRIPOS>MOLECULE
PIPNFP
    42    44     1
SMALL
NO_CHARGES
****
Generated from CSD

@<TRIPOS>ATOM
      1 C1        -6.8129   -2.3808   -3.6797 C.ar      1 RES1    0.0000
      2 C2        -6.0956   -2.5729   -4.8611 C.ar      1 RES1    0.0000
      3 C3        -4.7594   -2.8953   -4.8566 C.ar      1 RES1    0.0000
      4 C4        -4.0641   -3.0967   -3.6551 C.ar      1 RES1    0.0000
      5 C5        -4.7903   -2.9370   -2.4524 C.ar      1 RES1    0.0000
      6 C6        -6.1286   -2.5902   -2.4736 C.ar      1 RES1    0.0000
      7 C7        -8.2124   -1.9506   -3.6193 C.2       1 RES1    0.0000
      8 O1        -8.7764   -1.7074   -2.5452 O.2       1 RES1    0.0000
      9 C8        -8.9624   -1.7786   -4.9036 C.2       1 RES1    0.0000
     10 C9       -10.1947   -1.2663   -4.9070 C.2       1 RES1    0.0000
     11 C10      -10.9336   -1.0922   -6.1365 C.2       1 RES1    0.0000
     12 C11      -10.5734   -1.1901   -7.4511 C.2       1 RES1    0.0000
     13 C12      -11.7648   -0.9152   -8.1761 C.2       1 RES1    0.0000
     14 C13      -12.7227   -0.6483   -7.2665 C.2       1 RES1    0.0000
     15 O2       -12.2628   -0.7569   -6.0000 O.3       1 RES1    0.0000
     16 N1       -14.0896   -0.3043   -7.4220 N.pl3     1 RES1    0.0000
     17 O3       -14.7697   -0.1345   -6.4420 O.2       1 RES1    0.0000
     18 O4       -14.4904   -0.1957   -8.5733 O.2       1 RES1    0.0000
     19 N2        -2.7299   -3.4680   -3.6416 N.3       1 RES1    0.0000
     20 C14       -1.9916   -3.3572   -2.3931 C.3       1 RES1    0.0000
     21 C15       -0.6352   -3.7997   -2.3808 C.3       1 RES1    0.0000
     22 C16        0.1844   -3.6666   -3.6226 C.3       1 RES1    0.0000
     23 C17       -0.6316   -3.9371   -4.8477 C.3       1 RES1    0.0000
     24 C18       -1.9741   -3.4349   -4.8936 C.3       1 RES1    0.0000
     25 H1        -6.5398   -2.4823   -5.7506 H         1 RES1    0.0000
     26 H2        -4.2481   -2.9571   -5.7058 H         1 RES1    0.0000
     27 H3        -4.3147   -3.0219   -1.5775 H         1 RES1    0.0000
     28 H4        -6.6343   -2.4967   -1.5887 H         1 RES1    0.0000
     29 H5        -8.4885   -2.0650   -5.8065 H         1 RES1    0.0000
     30 H6       -10.6444   -1.0073   -4.0388 H         1 RES1    0.0000
     31 H7        -9.6555   -1.4390   -7.8315 H         1 RES1    0.0000
     32 H8       -11.8337   -0.8634   -9.1293 H         1 RES1    0.0000
     33 H9        -2.4894   -3.9141   -1.6782 H         1 RES1    0.0000
     34 H10       -1.9494   -2.4607   -2.1033 H         1 RES1    0.0000
     35 H11       -0.7125   -4.7271   -2.1704 H         1 RES1    0.0000
     36 H12       -0.1803   -3.3673   -1.6222 H         1 RES1    0.0000
     37 H13        0.9923   -4.3026   -3.6361 H         1 RES1    0.0000
     38 H14        0.4406   -2.6981   -3.7591 H         1 RES1    0.0000
     39 H15       -0.6828   -4.8207   -4.9450 H         1 RES1    0.0000
     40 H16       -0.1215   -3.5687   -5.7170 H         1 RES1    0.0000
     41 H17       -2.4726   -3.9644   -5.5939 H         1 RES1    0.0000
     42 H18       -1.8863   -2.4823   -5.1912 H         1 RES1    0.0000
@<TRIPOS>BOND
     1    1    2 ar
     2    2    3 ar
     3    3    4 ar
     4    4    5 ar
     5    5    6 ar
     6    6    1 ar
     7    7    1 1
     8    8    7 2
     9    9    7 1
    10   10    9 2
    11   11   10 1
    12   12   11 2
    13   13   12 1
    14   14   13 2
    15   15   11 1
    16   16   14 1
    17   17   16 2
    18   18   16 2
    19   19    4 1
    20   20   19 1
    21   21   20 1
    22   22   21 1
    23   23   22 1
    24   24   19 1
    25   25    2 1
    26   26    3 1
    27   27    5 1
    28   28    6 1
    29   29    9 1
    30   30   10 1
    31   31   12 1
    32   32   13 1
    33   33   20 1
    34   34   20 1
    35   35   21 1
    36   36   21 1
    37   37   22 1
    38   38   22 1
    39   39   23 1
    40   40   23 1
    41   41   24 1
    42   42   24 1
    43   14   15 1
    44   23   24 1
@<TRIPOS>SUBSTRUCTURE
     1 RES1 1

@<TRIPOS>CRYSIN
  20.0190    7.1950   11.4910  90.0000 103.1900  90.0000  14 1

