# MOL2 file generated by ConQuest
# Please check atom types

@<TRIPOS>MOLECULE
PIPRAH
    33    35     1
SMALL
NO_CHARGES
****
Generated from CSD

@<TRIPOS>ATOM
      1 O1         8.9813    0.3173   14.3132 O.3       1 RES1    0.0000
      2 O2         9.0653    0.8453   10.7091 O.3       1 RES1    0.0000
      3 O3         7.2599    0.3314    9.4704 O.2       1 RES1    0.0000
      4 O4        11.0967    1.4218    3.8402 O.2       1 RES1    0.0000
      5 O5        12.6454    2.2448    5.0550 O.2       1 RES1    0.0000
      6 N1        11.5706    1.7212    4.9160 N.pl3     1 RES1    0.0000
      7 C1         8.3279    0.5117   11.9418 C.3       1 RES1    0.0000
      8 C2         9.4158    0.4469   12.9639 C.3       1 RES1    0.0000
      9 C3         9.6121    1.5268   13.8664 C.3       1 RES1    0.0000
     10 C4         8.7766    2.7461   13.8380 C.3       1 RES1    0.0000
     11 C5         7.4774    2.5025   13.1163 C.2       1 RES1    0.0000
     12 C6         7.3014    1.5477   12.2422 C.2       1 RES1    0.0000
     13 C7         9.5914    3.8782   13.1985 C.3       1 RES1    0.0000
     14 C8         8.4173    0.6621    9.5570 C.2       1 RES1    0.0000
     15 C9         9.2916    0.9250    8.3796 C.ar      1 RES1    0.0000
     16 C10       10.5281    1.5559    8.4872 C.ar      1 RES1    0.0000
     17 C11       11.2755    1.8210    7.3605 C.ar      1 RES1    0.0000
     18 C12       10.7811    1.4151    6.1293 C.ar      1 RES1    0.0000
     19 C13        9.5659    0.7768    5.9873 C.ar      1 RES1    0.0000
     20 C14        8.8252    0.5333    7.1304 C.ar      1 RES1    0.0000
     21 H1        10.1596   -0.1788   12.7158 H         1 RES1    0.0000
     22 H2        10.4820    1.7279   14.3146 H         1 RES1    0.0000
     23 H3         7.8062   -0.3389   11.8806 H         1 RES1    0.0000
     24 H4         8.5286    2.9770   14.7794 H         1 RES1    0.0000
     25 H5         6.7072    3.1110   13.3150 H         1 RES1    0.0000
     26 H6         6.4315    1.5097   11.7506 H         1 RES1    0.0000
     27 H7         9.0386    4.7116   13.1716 H         1 RES1    0.0000
     28 H8        10.4161    4.0420   13.7394 H         1 RES1    0.0000
     29 H9         9.8493    3.6182   12.2676 H         1 RES1    0.0000
     30 H10       10.8754    1.8188    9.3867 H         1 RES1    0.0000
     31 H11       12.1547    2.2947    7.4278 H         1 RES1    0.0000
     32 H12        9.2311    0.4998    5.0863 H         1 RES1    0.0000
     33 H13        7.9418    0.0693    7.0572 H         1 RES1    0.0000
@<TRIPOS>BOND
     1    1    8 1
     2    2    7 1
     3    3   14 2
     4    4    6 2
     5    5    6 2
     6    6   18 1
     7    7    8 1
     8    8    9 1
     9    9    1 1
    10   10    9 1
    11   11   10 1
    12   12    7 1
    13   13   10 1
    14   14    2 1
    15   15   14 1
    16   16   15 ar
    17   17   16 ar
    18   18   17 ar
    19   19   18 ar
    20   20   15 ar
    21   21    8 1
    22   22    9 1
    23   23    7 1
    24   24   10 1
    25   25   11 1
    26   26   12 1
    27   27   13 1
    28   28   13 1
    29   29   13 1
    30   30   16 1
    31   31   17 1
    32   32   19 1
    33   33   20 1
    34   11   12 2
    35   19   20 ar
@<TRIPOS>SUBSTRUCTURE
     1 RES1 1

@<TRIPOS>CRYSIN
  12.3530    7.4480   15.0410  90.0000  96.5700  90.0000  14 2

