# MOL2 file generated by ConQuest
# Please check atom types

@<TRIPOS>MOLECULE
PIPREN
    76    54     2
SMALL
NO_CHARGES
****
Generated from CSD

@<TRIPOS>ATOM
      1 O1         6.7795    5.7691    5.4680 O.2       1 RES1    0.0000
      2 O2         5.7035    8.8062    3.1247 O.2       1 RES1    0.0000
      3 O3        -0.1857    5.2696   -0.0079 O.2       1 RES1    0.0000
      4 O4        -0.6674    7.1272    0.9305 O.2       1 RES1    0.0000
      5 N1         8.2928    7.5683    5.4411 N.am      1 RES1    0.0000
      6 N2         5.4619    6.6582    2.3933 N.am      1 RES1    0.0000
      7 H1         5.9072    5.9410    2.2767 H         1 RES1    0.0000
      8 N3         0.1202    6.2483    0.6727 N.pl3     1 RES1    0.0000
      9 C1         9.8304    8.4352    3.5943 C.2       1 RES1    0.0000
     10 C2         7.4209    6.6712    4.9572 C.2       1 RES1    0.0000
     11 C3         7.4945    7.2503    3.5253 C.3       1 RES1    0.0000
     12 H2         7.9727    6.6592    2.9081 H         1 RES1    0.0000
     13 C4         8.4270    8.3301    4.1568 C.3       1 RES1    0.0000
     14 H3         7.9742    9.2086    4.2361 H         1 RES1    0.0000
     15 C5         8.6323    7.9329    6.8372 C.3       1 RES1    0.0000
     16 C6         6.1581    7.6774    2.9851 C.2       1 RES1    0.0000
     17 C7         4.1199    6.6257    1.9602 C.ar      1 RES1    0.0000
     18 C8         3.1743    7.5952    2.2949 C.ar      1 RES1    0.0000
     19 H4         3.4252    8.3358    2.7995 H         1 RES1    0.0000
     20 C9         1.8782    7.4588    1.8816 C.ar      1 RES1    0.0000
     21 H5         1.2491    8.1058    2.1054 H         1 RES1    0.0000
     22 C10        1.5007    6.3642    1.1368 C.ar      1 RES1    0.0000
     23 C11        2.4206    5.3856    0.7798 C.ar      1 RES1    0.0000
     24 H6         2.1609    4.6552    0.2665 H         1 RES1    0.0000
     25 C12        3.7231    5.5176    1.2002 C.ar      1 RES1    0.0000
     26 H7         4.3481    4.8647    0.9765 H         1 RES1    0.0000
     27 C13       10.6510    7.3876    3.6522 C.2       1 RES1    0.0000
     28 H8        11.4930    7.6175    3.2500 H         1 RES1    0.0000
     29 H9        10.2620    6.6491    3.1787 H         1 RES1    0.0000
     30 C14        9.9105    8.8078    6.7984 C.3       1 RES1    0.0000
     31 H10        9.6835    9.6928    6.5056 H         1 RES1    0.0000
     32 H11       10.5414    8.4232    6.1812 H         1 RES1    0.0000
     33 H12       10.3001    8.8464    7.6710 H         1 RES1    0.0000
     34 C15        8.9023    6.7874    7.7424 C.3       1 RES1    0.0000
     35 H13        8.2546    6.7813    8.4508 H         1 RES1    0.0000
     36 H14        9.7827    6.8769    8.1152 H         1 RES1    0.0000
     37 H15        8.8452    5.9675    7.2474 H         1 RES1    0.0000
     38 C16        7.4231    8.7630    7.3727 C.3       1 RES1    0.0000
     39 H16        7.2789    9.5219    6.8015 H         1 RES1    0.0000
     40 H17        7.6122    9.0641    8.2635 H         1 RES1    0.0000
     41 H18        6.6366    8.2137    7.3806 H         1 RES1    0.0000
     42 C17       10.2786    9.7437    3.0137 C.ar      1 RES1    0.0000
     43 C18        9.4148   10.6430    2.4005 C.ar      1 RES1    0.0000
     44 H19        8.5074   10.4477    2.3378 H         1 RES1    0.0000
     45 C19        9.9067   11.8353    1.8809 C.ar      1 RES1    0.0000
     46 H20        9.3295   12.4355    1.4707 H         1 RES1    0.0000
     47 C20       11.2624   12.1262    1.9745 C.ar      1 RES1    0.0000
     48 H21       11.5913   12.9238    1.6270 H         1 RES1    0.0000
     49 C21       12.1262   11.2269    2.5877 C.ar      1 RES1    0.0000
     50 H22       13.0336   11.4222    2.6511 H         1 RES1    0.0000
     51 C22       11.6344   10.0346    3.1073 C.ar      1 RES1    0.0000
     52 H23       12.2128    9.4324    3.5182 H         1 RES1    0.0000
     53 C23        9.5573    9.1211    6.8698 Du        2 SUP2    0.0000
     54 H24        9.0980    9.8922    6.5350 Du        2 SUP2    0.0000
     55 H25       10.3263    8.9421    6.3256 Du        2 SUP2    0.0000
     56 H26        9.8366    9.2818    7.7757 Du        2 SUP2    0.0000
     57 C24        9.2862    6.5596    7.3925 Du        2 SUP2    0.0000
     58 H27       10.0998    6.3764    6.9182 Du        2 SUP2    0.0000
     59 H28        8.6704    5.8352    7.2601 Du        2 SUP2    0.0000
     60 H29        9.4755    6.6511    8.3294 Du        2 SUP2    0.0000
     61 C25        7.3412    8.1872    7.6313 Du        2 SUP2    0.0000
     62 H30        6.9227    8.9889    7.3124 Du        2 SUP2    0.0000
     63 H31        7.5537    8.2849    8.5626 Du        2 SUP2    0.0000
     64 H32        6.7434    7.4446    7.5147 Du        2 SUP2    0.0000
     65 C26       10.1794    9.7559    2.8891 Du        2 SUP2    0.0000
     66 C27        9.1169   10.5433    2.4631 Du        2 SUP2    0.0000
     67 H33        8.2420   10.2585    2.5996 Du        2 SUP2    0.0000
     68 C28        9.3614   11.7580    1.8341 Du        2 SUP2    0.0000
     69 H34        8.6505   12.2869    1.5493 Du        2 SUP2    0.0000
     70 C29       10.6684   12.1852    1.6310 Du        2 SUP2    0.0000
     71 H35       10.8324   12.9991    1.2097 Du        2 SUP2    0.0000
     72 C30       11.7309   11.3958    2.0562 Du        2 SUP2    0.0000
     73 H36       12.6058   11.6827    1.9205 Du        2 SUP2    0.0000
     74 C31       11.4864   10.1811    2.6852 Du        2 SUP2    0.0000
     75 H37       12.1973    9.6542    2.9700 Du        2 SUP2    0.0000
     76 H38       10.7918    7.1414    4.5693 Du        2 SUP2    0.0000
@<TRIPOS>BOND
     1    1   10 2
     2    2   16 2
     3    3    8 2
     4    4    8 2
     5    5   10 1
     6    6    7 1
     7    8   22 1
     8    9   13 1
     9   10   11 1
    10   11   12 1
    11   13    5 1
    12   14   13 1
    13   15    5 1
    14   16    6 1
    15   17    6 1
    16   18   17 ar
    17   19   18 1
    18   20   18 ar
    19   21   20 1
    20   22   20 ar
    21   23   22 ar
    22   24   23 1
    23   25   17 ar
    24   26   25 1
    25   27    9 2
    26   28   27 1
    27   29   27 1
    28   30   15 1
    29   31   30 1
    30   32   30 1
    31   33   30 1
    32   34   15 1
    33   35   34 1
    34   36   34 1
    35   37   34 1
    36   38   15 1
    37   39   38 1
    38   40   38 1
    39   41   38 1
    40   42    9 1
    41   43   42 ar
    42   44   43 1
    43   45   43 ar
    44   46   45 1
    45   47   45 ar
    46   48   47 1
    47   49   47 ar
    48   50   49 1
    49   51   42 ar
    50   52   51 1
    51   11   13 1
    52   11   16 1
    53   23   25 ar
    54   49   51 ar
@<TRIPOS>SUBSTRUCTURE
     1 RES1 1
     2 SUP2 53

@<TRIPOS>CRYSIN
  13.3919   20.3460    7.9436  90.0000  92.9950  90.0000  14 1

