# MOL2 file generated by ConQuest
# Please check atom types

@<TRIPOS>MOLECULE
PIPWUG
    37    38     1
SMALL
NO_CHARGES
****
Generated from CSD

@<TRIPOS>ATOM
      1 O1         7.3650    2.4358    2.0004 O.2       1 RES1    0.0000
      2 O2         7.5903    6.3742    3.3871 O.3       1 RES1    0.0000
      3 O3         5.5736    2.0602    4.2568 O.3       1 RES1    0.0000
      4 C1         6.8834    3.5127    2.3185 C.2       1 RES1    0.0000
      5 C2         6.7645    4.1080    3.7374 C.3       1 RES1    0.0000
      6 C3         5.4756    3.4822    4.3363 C.3       1 RES1    0.0000
      7 N1         6.2477    4.3738    1.4885 N.am      1 RES1    0.0000
      8 C4         5.7503    5.5475    2.0799 C.2       1 RES1    0.0000
      9 C5         6.4052    5.6047    3.4442 C.3       1 RES1    0.0000
     10 O4         4.1054    4.0086    6.1926 O.2       1 RES1    0.0000
     11 C6         7.9428    3.9358    4.6445 C.2       1 RES1    0.0000
     12 O5         6.1179    4.1340    0.1416 O.3       1 RES1    0.0000
     13 C7         6.4253    3.8975    6.6076 C.2       1 RES1    0.0000
     14 C8        10.5182    2.7445    2.4775 C.3       1 RES1    0.0000
     15 C9         4.8977    6.3944    1.5308 C.2       1 RES1    0.0000
     16 C10        7.6715    3.8851    6.0659 C.2       1 RES1    0.0000
     17 C11        4.9697    3.2735   -0.1044 C.3       1 RES1    0.0000
     18 C12        9.2477    3.9130    4.2643 C.2       1 RES1    0.0000
     19 C13        5.2453    3.8611    5.7727 C.2       1 RES1    0.0000
     20 C14        9.8356    4.0619    2.9224 C.3       1 RES1    0.0000
     21 H1         4.8776    3.1085   -1.0984 H         1 RES1    0.0000
     22 H2         4.1347    3.7259    0.2187 H         1 RES1    0.0000
     23 H3         5.0853    2.4059    0.3628 H         1 RES1    0.0000
     24 H4        10.9202    2.8089    1.5680 H         1 RES1    0.0000
     25 H5         9.8381    1.9835    2.4701 H         1 RES1    0.0000
     26 H6        11.2418    2.4846    3.1361 H         1 RES1    0.0000
     27 H7        10.5240    4.7963    2.9149 H         1 RES1    0.0000
     28 H8         9.1179    4.2945    2.2464 H         1 RES1    0.0000
     29 H9         4.7009    3.8084    3.7722 H         1 RES1    0.0000
     30 H10        4.5351    6.2390    0.6237 H         1 RES1    0.0000
     31 H11        4.6046    7.2100    2.0551 H         1 RES1    0.0000
     32 H12        6.2988    3.9592    7.6066 H         1 RES1    0.0000
     33 H13        8.4705    3.8552    6.6871 H         1 RES1    0.0000
     34 H14        9.9009    3.7831    5.0122 H         1 RES1    0.0000
     35 H15        5.8139    6.0272    4.1549 H         1 RES1    0.0000
     36 H16        5.7411    1.7768    3.3051 H         1 RES1    0.0000
     37 H17        7.3541    7.3361    3.2131 H         1 RES1    0.0000
@<TRIPOS>BOND
     1    1    4 2
     2    2    9 1
     3    3    6 1
     4    4    5 1
     5    5    6 1
     6    6   19 1
     7    7    4 1
     8    8    7 1
     9    9    5 1
    10   10   19 2
    11   11    5 1
    12   12    7 1
    13   13   16 2
    14   14   20 1
    15   15    8 2
    16   16   11 1
    17   17   12 1
    18   18   11 2
    19   19   13 1
    20   20   18 1
    21   21   17 1
    22   22   17 1
    23   23   17 1
    24   24   14 1
    25   25   14 1
    26   26   14 1
    27   27   20 1
    28   28   20 1
    29   29    6 1
    30   30   15 1
    31   31   15 1
    32   32   13 1
    33   33   16 1
    34   34   18 1
    35   35    9 1
    36   36    3 1
    37   37    2 1
    38    8    9 1
@<TRIPOS>SUBSTRUCTURE
     1 RES1 1

@<TRIPOS>CRYSIN
   8.3750    6.4990   24.8500  90.0000  90.0000  90.0000  19 1

