# MOL2 file generated by ConQuest
# Please check atom types

@<TRIPOS>MOLECULE
PIPWOA
    28    29     1
SMALL
NO_CHARGES
****
Generated from CSD

@<TRIPOS>ATOM
      1 O1        -0.7623    0.8600   12.4857 O.2       1 RES1    0.0000
      2 O2         1.0352    1.1727   11.3229 O.2       1 RES1    0.0000
      3 N1         0.2912    2.1078   14.6315 N.2       1 RES1    0.0000
      4 N2         2.2601    3.1171   14.7592 N.pl3     1 RES1    0.0000
      5 N3         0.3853    1.2930   12.3580 N.pl3     1 RES1    0.0000
      6 C1         4.5740    2.5712   12.7547 C.2       1 RES1    0.0000
      7 C2         3.2769    2.6611   12.4993 C.2       1 RES1    0.0000
      8 C3         2.2185    2.5742   13.4861 C.2       1 RES1    0.0000
      9 C4         0.9741    1.9630   13.4687 C.2       1 RES1    0.0000
     10 C5         1.0955    2.7888   15.3840 C.2       1 RES1    0.0000
     11 C6         5.6560    2.6314   11.7716 C.ar      1 RES1    0.0000
     12 C7         5.5095    3.2590   10.5432 C.ar      1 RES1    0.0000
     13 C8         6.5618    3.3013    9.6357 C.ar      1 RES1    0.0000
     14 C9         7.7651    2.6886    9.9543 C.ar      1 RES1    0.0000
     15 C10        7.9184    2.0521   11.1704 C.ar      1 RES1    0.0000
     16 C11        6.8813    2.0328   12.0617 C.ar      1 RES1    0.0000
     17 C12        3.2763    3.9630   15.3604 C.3       1 RES1    0.0000
     18 H1         4.8764    2.3945   13.6522 H         1 RES1    0.0000
     19 H2         2.9955    2.7398   11.6551 H         1 RES1    0.0000
     20 H3         0.8850    3.1409   16.2963 H         1 RES1    0.0000
     21 H4         4.6748    3.6786   10.3213 H         1 RES1    0.0000
     22 H5         6.4591    3.7477    8.7915 H         1 RES1    0.0000
     23 H6         8.4912    2.7086    9.3283 H         1 RES1    0.0000
     24 H7         8.7538    1.6287   11.3836 H         1 RES1    0.0000
     25 H8         6.9990    1.5931   12.9072 H         1 RES1    0.0000
     26 H9         4.0101    4.0551   14.7493 H         1 RES1    0.0000
     27 H10        3.5877    3.5687   16.1773 H         1 RES1    0.0000
     28 H11        2.9021    4.8283   15.5451 H         1 RES1    0.0000
@<TRIPOS>BOND
     1    1    5 2
     2    2    5 2
     3    3    9 1
     4    4    8 1
     5    5    9 1
     6    6    7 2
     7    7    8 1
     8    8    9 2
     9   10    3 2
    10   11    6 1
    11   12   11 ar
    12   13   12 ar
    13   14   13 ar
    14   15   14 ar
    15   16   11 ar
    16   17    4 1
    17   18    6 1
    18   19    7 1
    19   20   10 1
    20   21   12 1
    21   22   13 1
    22   23   14 1
    23   24   15 1
    24   25   16 1
    25   26   17 1
    26   27   17 1
    27   28   17 1
    28    4   10 1
    29   15   16 ar
@<TRIPOS>SUBSTRUCTURE
     1 RES1 1

@<TRIPOS>CRYSIN
  11.8320    7.4270   13.1770  90.0000 109.8200  90.0000  14 1

