# MOL2 file generated by ConQuest
# Please check atom types

@<TRIPOS>MOLECULE
PIQQEL
    47    48     1
SMALL
NO_CHARGES
****
Generated from CSD

@<TRIPOS>ATOM
      1 N1         6.8931    4.9571    4.2113 N.3       1 RES1    0.0000
      2 O1         7.8152    4.3871    5.1802 O.3       1 RES1    0.0000
      3 H1         8.3563    4.9771    5.4331 H         1 RES1    0.0000
      4 O2         5.7255    2.4270    2.6549 O.3       1 RES1    0.0000
      5 C1         6.6037    6.4553    1.6349 C.3       1 RES1    0.0000
      6 H2         6.0651    6.7885    0.8878 H         1 RES1    0.0000
      7 H3         7.5496    6.6518    1.4689 H         1 RES1    0.0000
      8 H4         6.3200    6.8940    2.4641 H         1 RES1    0.0000
      9 C2         6.4153    4.9542    1.7668 C.3       1 RES1    0.0000
     10 H5         6.6812    4.5263    0.9151 H         1 RES1    0.0000
     11 H6         5.4530    4.7678    1.9074 H         1 RES1    0.0000
     12 C3         7.2107    4.3104    2.9075 C.3       1 RES1    0.0000
     13 H7         8.1737    4.5104    2.7239 H         1 RES1    0.0000
     14 C4         7.0876    2.7799    2.9241 C.3       1 RES1    0.0000
     15 H8         7.3299    2.4488    3.8363 H         1 RES1    0.0000
     16 C5         8.0136    2.1222    1.9025 C.3       1 RES1    0.0000
     17 H9         7.9066    1.1492    1.9435 H         1 RES1    0.0000
     18 H10        8.9435    2.3571    2.1057 H         1 RES1    0.0000
     19 H11        7.7857    2.4385    1.0040 H         1 RES1    0.0000
     20 C6         5.3178    1.2093    3.2493 C.3       1 RES1    0.0000
     21 H12        5.2314    1.3280    4.2279 H         1 RES1    0.0000
     22 H13        5.9995    0.5114    3.0813 H         1 RES1    0.0000
     23 C7         4.0005    0.7800    2.6721 C.ar      1 RES1    0.0000
     24 C8         3.0191    0.2158    3.4691 C.ar      1 RES1    0.0000
     25 H14        3.1600    0.1302    4.4047 H         1 RES1    0.0000
     26 C9         1.8287   -0.2253    2.9065 C.ar      1 RES1    0.0000
     27 H15        1.1638   -0.6171    3.4603 H         1 RES1    0.0000
     28 C10        1.6029   -0.1031    1.5636 C.ar      1 RES1    0.0000
     29 H16        0.7902   -0.4129    1.1827 H         1 RES1    0.0000
     30 C11        2.5641    0.4716    0.7745 C.ar      1 RES1    0.0000
     31 H17        2.4106    0.5705   -0.1572 H         1 RES1    0.0000
     32 C12        3.7475    0.9049    1.3165 C.ar      1 RES1    0.0000
     33 H18        4.4044    1.2982    0.7530 H         1 RES1    0.0000
     34 C13        5.5500    4.6485    4.7211 C.3       1 RES1    0.0000
     35 H19        5.5073    3.6935    4.9780 H         1 RES1    0.0000
     36 H20        4.8837    4.8027    4.0052 H         1 RES1    0.0000
     37 C14        5.2068    5.5068    5.9185 C.ar      1 RES1    0.0000
     38 C15        4.7650    6.8053    5.7427 C.ar      1 RES1    0.0000
     39 H21        4.7013    7.1627    4.8647 H         1 RES1    0.0000
     40 C16        4.4117    7.5981    6.8336 C.ar      1 RES1    0.0000
     41 H22        4.1155    8.4906    6.7037 H         1 RES1    0.0000
     42 C17        4.4978    7.0610    8.1169 C.ar      1 RES1    0.0000
     43 H23        4.2404    7.5834    8.8680 H         1 RES1    0.0000
     44 C18        4.9497    5.7877    8.2937 C.ar      1 RES1    0.0000
     45 H24        5.0222    5.4342    9.1727 H         1 RES1    0.0000
     46 C19        5.3080    4.9977    7.2067 C.ar      1 RES1    0.0000
     47 H25        5.6205    4.1108    7.3444 H         1 RES1    0.0000
@<TRIPOS>BOND
     1    1    2 1
     2    2    3 1
     3    4   14 1
     4    5    6 1
     5    7    5 1
     6    8    5 1
     7    9    5 1
     8   10    9 1
     9   11    9 1
    10   12    1 1
    11   13   12 1
    12   14   12 1
    13   15   14 1
    14   16   14 1
    15   17   16 1
    16   18   16 1
    17   19   16 1
    18   20    4 1
    19   21   20 1
    20   22   20 1
    21   23   20 1
    22   24   23 ar
    23   25   24 1
    24   26   24 ar
    25   27   26 1
    26   28   26 ar
    27   29   28 1
    28   30   28 ar
    29   31   30 1
    30   32   23 ar
    31   33   32 1
    32   34    1 1
    33   35   34 1
    34   36   34 1
    35   37   34 1
    36   38   37 ar
    37   39   38 1
    38   40   38 ar
    39   41   40 1
    40   42   40 ar
    41   43   42 1
    42   44   42 ar
    43   45   44 1
    44   46   37 ar
    45   47   46 1
    46    9   12 1
    47   30   32 ar
    48   44   46 ar
@<TRIPOS>SUBSTRUCTURE
     1 RES1 1

@<TRIPOS>CRYSIN
   9.1900    9.8460   10.9330  72.4500  66.6900  76.1700   2 1

