# MOL2 file generated by ConQuest
# Please check atom types

@<TRIPOS>MOLECULE
PIRLAF
    50    26     2
SMALL
USER_CHARGES
****
Generated from CSD

@<TRIPOS>ATOM
      1 C1         5.5473    5.7625    5.4442 C.3       1 RES1    0.0000
      2 H1         5.6701    5.2500    6.2945 H         1 RES1    0.0000
      3 O1         4.2034    5.5718    4.9231 O.3       1 RES1    0.0000
      4 O2         6.4935    5.3836    4.5053 O.3       1 RES1    0.0000
      5 C2         6.9280    6.5618    3.7850 C.3       1 RES1    0.0000
      6 H2         6.3125    6.7638    3.0373 H         1 RES1    0.0000
      7 H3         7.8411    6.4375    3.4242 H         1 RES1    0.0000
      8 C3         6.9024    7.6684    4.8191 C.3       1 RES1    0.0000
      9 H4         6.7660    8.5520    4.3946 H         1 RES1    0.0000
     10 H5         7.7408    7.6875    5.3449 H         1 RES1    0.0000
     11 C4         5.7032    7.2824    5.6977 C.3       1 RES1    0.0000
     12 H6         5.8604    7.4895    6.6634 H         1 RES1    0.0000
     13 C5         4.3975    7.8187    5.2135 C.2       1 RES1    0.0000
     14 N1         3.6038    6.8692    4.7755 N.pl3     1 RES1    1.0000
     15 O3         2.4726    6.8647    4.2934 O.2       1 RES1   -1.0000
     16 C6         3.9465    9.2166    5.1746 C.2       1 RES1    0.0000
     17 O4         2.8563    9.6041    4.7997 O.2       1 RES1    0.0000
     18 O5         4.9191   10.0128    5.6460 O.3       1 RES1    0.0000
     19 C7         4.6231   11.4451    5.6125 C.3       1 RES1    0.0000
     20 H7         3.8085   11.6388    6.1409 H         1 RES1    0.0000
     21 H8         4.4714   11.7430    4.6803 H         1 RES1    0.0000
     22 C8         5.8033   12.1553    6.1973 C.3       1 RES1    0.0000
     23 H9         5.9383   11.8576    7.1214 H         1 RES1    0.0000
     24 H10        5.6425   13.1214    6.1852 H         1 RES1    0.0000
     25 H11        6.6030   11.9513    5.6688 H         1 RES1    0.0000
     26 C9         5.5227    6.0920    3.9567 Du        2 SUP2    0.0000
     27 H12        5.9260    5.9618    3.0493 Du        2 SUP2    0.0000
     28 O6         4.0814    5.8941    3.9232 Du        2 SUP2    0.0000
     29 O7         6.0987    5.2343    4.8822 Du        2 SUP2    0.0000
     30 C10        6.0729    5.9132    6.1698 Du        2 SUP2    0.0000
     31 H13        6.7108    5.5017    6.8082 Du        2 SUP2    0.0000
     32 H14        5.1658    5.9045    6.5681 Du        2 SUP2    0.0000
     33 C11        6.4968    7.3229    5.7942 Du        2 SUP2    0.0000
     34 H15        7.4793    7.3836    5.6755 Du        2 SUP2    0.0000
     35 H16        6.2133    7.9809    6.4803 Du        2 SUP2    0.0000
     36 C12        5.7555    7.5364    4.4664 Du        2 SUP2    0.0000
     37 H17        6.2719    8.0989    3.8233 Du        2 SUP2    0.0000
     38 C13        4.3568    8.0190    4.6676 Du        2 SUP2    0.0000
     39 N2         3.4598    7.1145    4.3591 Du        2 SUP2    0.0000
     40 O8         2.2264    7.1388    4.3121 Du        2 SUP2    0.0000
     41 C14        3.9531    9.3663    5.0901 Du        2 SUP2    0.0000
     42 O9         2.8068    9.7013    5.2980 Du        2 SUP2    0.0000
     43 O10        5.0612   10.1163    5.2108 Du        2 SUP2    0.0000
     44 C15        4.8339   11.5416    5.4522 Du        2 SUP2    0.0000
     45 H18        4.0746   11.6649    6.0752 Du        2 SUP2    0.0000
     46 H19        4.6250   12.0034    4.6039 Du        2 SUP2    0.0000
     47 C16        6.0890   12.1006    6.0491 Du        2 SUP2    0.0000
     48 H20        6.1075   11.9027    7.0108 Du        2 SUP2    0.0000
     49 H21        6.1107   13.0694    5.9149 Du        2 SUP2    0.0000
     50 H22        6.8665   11.6909    5.6172 Du        2 SUP2    0.0000
@<TRIPOS>BOND
     1    1    2 1
     2    3    1 1
     3    4    1 1
     4    5    4 1
     5    6    5 1
     6    7    5 1
     7    8    5 1
     8    9    8 1
     9   10    8 1
    10   11    1 1
    11   12   11 1
    12   13   11 1
    13   14    3 1
    14   15   14 1
    15   16   13 1
    16   17   16 2
    17   18   16 1
    18   19   18 1
    19   20   19 1
    20   21   19 1
    21   22   19 1
    22   23   22 1
    23   24   22 1
    24   25   22 1
    25    8   11 1
    26   13   14 2
@<TRIPOS>SUBSTRUCTURE
     1 RES1 1
     2 SUP2 26

@<TRIPOS>CRYSIN
   7.8071   17.3610    6.7220  90.0000  93.9180  90.0000  14 1

