# MOL2 file generated by ConQuest
# Please check atom types

@<TRIPOS>MOLECULE
PIRPOV
    54    56     1
SMALL
NO_CHARGES
****
Generated from CSD

@<TRIPOS>ATOM
      1 O1         5.3722    9.0506    0.0000 O.3       1 RES1    0.0000
      2 O2        10.5536    9.2047   -1.8560 O.2       1 RES1    0.0000
      3 O3         4.6674   10.2504    1.7450 O.2       1 RES1    0.0000
      4 O4         2.4115    5.8792   -2.1334 O.2       1 RES1    0.0000
      5 O5         0.9786    4.8574   -0.9064 O.2       1 RES1    0.0000
      6 O6        -0.7557    7.2300    2.9350 O.2       1 RES1    0.0000
      7 O7         0.4819    8.6916    3.9154 O.2       1 RES1    0.0000
      8 N1         9.6259    9.1509   -0.9927 N.3       1 RES1    0.0000
      9 N2         1.7801    5.7490   -1.1037 N.pl3     1 RES1    0.0000
     10 N3         0.2522    7.9077    3.0090 N.pl3     1 RES1    0.0000
     11 C1         9.2459    7.8643   -0.3638 C.3       1 RES1    0.0000
     12 C2         8.1456    8.3131    0.6289 C.3       1 RES1    0.0000
     13 C3         7.6403    9.6041    0.0185 C.2       1 RES1    0.0000
     14 C4         6.4346    9.9512   -0.2836 C.2       1 RES1    0.0000
     15 C5         6.0217   11.1031   -1.1592 C.3       1 RES1    0.0000
     16 C6         7.1756   12.0127   -1.5600 C.3       1 RES1    0.0000
     17 C7         8.4530   11.1974   -1.7450 C.3       1 RES1    0.0000
     18 C8         8.8521   10.3177   -0.5426 C.3       1 RES1    0.0000
     19 C9         8.7216    6.9503   -1.4490 C.3       1 RES1    0.0000
     20 C10       10.4525    7.2734    0.3268 C.3       1 RES1    0.0000
     21 C11        6.8465   12.6814   -2.8795 C.3       1 RES1    0.0000
     22 C12        7.3302   13.1152   -0.4933 C.3       1 RES1    0.0000
     23 C13        9.7080   11.0433    0.4994 C.3       1 RES1    0.0000
     24 C14        4.5059    9.3603    0.9681 C.2       1 RES1    0.0000
     25 C15        3.3149    8.4373    0.9434 C.ar      1 RES1    0.0000
     26 C16        3.1335    7.5098   -0.0555 C.ar      1 RES1    0.0000
     27 C17        1.9856    6.7214   -0.0308 C.ar      1 RES1    0.0000
     28 C18        1.0382    6.8336    0.9619 C.ar      1 RES1    0.0000
     29 C19        1.2524    7.7791    1.9361 C.ar      1 RES1    0.0000
     30 C20        2.3778    8.5674    1.9546 C.ar      1 RES1    0.0000
     31 H1         7.4555    7.6654    0.6949 H         1 RES1    0.0000
     32 H2         8.5152    8.4687    1.4922 H         1 RES1    0.0000
     33 H3         5.6166   10.7785   -1.9312 H         1 RES1    0.0000
     34 H4         5.4059   11.6491   -0.6641 H         1 RES1    0.0000
     35 H5         8.3166   10.6199   -2.4929 H         1 RES1    0.0000
     36 H6         9.1569   11.7942   -1.9256 H         1 RES1    0.0000
     37 H7         8.0220    7.3422   -1.9158 H         1 RES1    0.0000
     38 H8         9.4351    6.7199   -2.0490 H         1 RES1    0.0000
     39 H9         8.4185    6.1230   -1.0414 H         1 RES1    0.0000
     40 H10       10.2651    6.4282    0.6943 H         1 RES1    0.0000
     41 H11       11.1910    7.2061   -0.2762 H         1 RES1    0.0000
     42 H12       10.7297    7.8643    1.0501 H         1 RES1    0.0000
     43 H13        7.5263   13.2782   -3.1533 H         1 RES1    0.0000
     44 H14        6.7377   12.0112   -3.5781 H         1 RES1    0.0000
     45 H15        6.0165   13.1556   -2.8203 H         1 RES1    0.0000
     46 H16        7.4054   12.7128    0.3539 H         1 RES1    0.0000
     47 H17        8.1205   13.6163   -0.6850 H         1 RES1    0.0000
     48 H18        6.5779   13.6822   -0.5290 H         1 RES1    0.0000
     49 H19        9.8980   10.4419    1.2104 H         1 RES1    0.0000
     50 H20       10.5311   11.3140    0.0943 H         1 RES1    0.0000
     51 H21        9.2494   11.7957    0.8225 H         1 RES1    0.0000
     52 H22        3.7752    7.4185   -0.7461 H         1 RES1    0.0000
     53 H23        0.2790    6.2756    0.9933 H         1 RES1    0.0000
     54 H24        2.5056    9.2077    2.6458 H         1 RES1    0.0000
@<TRIPOS>BOND
     1    1   14 1
     2    2    8 1
     3    3   24 2
     4    4    9 2
     5    5    9 2
     6    6   10 2
     7    7   10 2
     8    8   11 1
     9    9   27 1
    10   10   29 1
    11   11   12 1
    12   12   13 1
    13   13   14 2
    14   14   15 1
    15   15   16 1
    16   16   17 1
    17   17   18 1
    18   18    8 1
    19   19   11 1
    20   20   11 1
    21   21   16 1
    22   22   16 1
    23   23   18 1
    24   24    1 1
    25   25   24 1
    26   26   25 ar
    27   27   26 ar
    28   28   27 ar
    29   29   28 ar
    30   30   25 ar
    31   31   12 1
    32   32   12 1
    33   33   15 1
    34   34   15 1
    35   35   17 1
    36   36   17 1
    37   37   19 1
    38   38   19 1
    39   39   19 1
    40   40   20 1
    41   41   20 1
    42   42   20 1
    43   43   21 1
    44   44   21 1
    45   45   21 1
    46   46   22 1
    47   47   22 1
    48   48   22 1
    49   49   23 1
    50   50   23 1
    51   51   23 1
    52   52   26 1
    53   53   28 1
    54   54   30 1
    55   13   18 1
    56   29   30 ar
@<TRIPOS>SUBSTRUCTURE
     1 RES1 1

@<TRIPOS>CRYSIN
  17.2740   17.2740    6.1660  90.0000  90.0000 120.0000 144 1

