# MOL2 file generated by ConQuest
# Please check atom types

@<TRIPOS>MOLECULE
PIRSOA
    39    41     1
SMALL
NO_CHARGES
****
Generated from CSD

@<TRIPOS>ATOM
      1 N1         6.8330   -0.0289    8.2844 N.3       1 RES1    0.0000
      2 C1         7.1372    0.5338    9.6010 C.3       1 RES1    0.0000
      3 C2         5.9396   -0.0046   10.3894 C.3       1 RES1    0.0000
      4 H1         5.1335    0.5490   10.2342 H         1 RES1    0.0000
      5 H2         6.1334   -0.0243   11.3608 H         1 RES1    0.0000
      6 C3         5.7452   -1.4355    9.8346 C.3       1 RES1    0.0000
      7 H3         6.1063   -2.1076   10.4648 H         1 RES1    0.0000
      8 H4         4.7857   -1.6241    9.6809 H         1 RES1    0.0000
      9 C4         6.5209   -1.4629    8.5114 C.3       1 RES1    0.0000
     10 H5         7.3759   -1.9632    8.6466 H         1 RES1    0.0000
     11 O1         8.0041    0.0865    7.4600 O.3       1 RES1    0.0000
     12 C5         7.6113    0.5246    6.1614 C.3       1 RES1    0.0000
     13 H6         8.4095    0.7010    5.6220 H         1 RES1    0.0000
     14 H7         7.0816    1.3458    6.2414 H         1 RES1    0.0000
     15 H8         7.0724   -0.1718    5.7311 H         1 RES1    0.0000
     16 C6         8.3751   -0.0654   10.1820 C.1       1 RES1    0.0000
     17 N2         9.2745   -0.5885   10.6461 N.1       1 RES1    0.0000
     18 C7         7.2523    2.0483    9.5564 C.ar      1 RES1    0.0000
     19 C8         6.3066    2.7600    8.8418 C.ar      1 RES1    0.0000
     20 H9         5.6057    2.2947    8.4007 H         1 RES1    0.0000
     21 C9         6.3648    4.1453    8.7573 C.ar      1 RES1    0.0000
     22 H10        5.7201    4.6213    8.2485 H         1 RES1    0.0000
     23 C10        7.3673    4.8205    9.4181 C.ar      1 RES1    0.0000
     24 H11        7.4063    5.7679    9.3782 H         1 RES1    0.0000
     25 C11        8.3110    4.1286   10.1374 C.ar      1 RES1    0.0000
     26 H12        9.0013    4.5970   10.5923 H         1 RES1    0.0000
     27 C12        8.2528    2.7524   10.1958 C.ar      1 RES1    0.0000
     28 H13        8.9141    2.2795   10.6876 H         1 RES1    0.0000
     29 C13        5.7955   -2.0438    7.3295 C.ar      1 RES1    0.0000
     30 C14        4.5357   -1.6013    6.9760 C.ar      1 RES1    0.0000
     31 H14        4.1065   -0.9383    7.5047 H         1 RES1    0.0000
     32 C15        3.8936   -2.1122    5.8648 C.ar      1 RES1    0.0000
     33 H15        3.0227   -1.8081    5.6404 H         1 RES1    0.0000
     34 C16        4.5099   -3.0611    5.0825 C.ar      1 RES1    0.0000
     35 H16        4.0781   -3.3941    4.3049 H         1 RES1    0.0000
     36 C17        5.7597   -3.5264    5.4376 C.ar      1 RES1    0.0000
     37 H17        6.1823   -4.1970    4.9135 H         1 RES1    0.0000
     38 C18        6.3979   -3.0170    6.5549 C.ar      1 RES1    0.0000
     39 H18        7.2595   -3.3394    6.7916 H         1 RES1    0.0000
@<TRIPOS>BOND
     1    1    2 1
     2    2    3 1
     3    3    4 1
     4    5    3 1
     5    6    3 1
     6    7    6 1
     7    8    6 1
     8    9    1 1
     9   10    9 1
    10   11    1 1
    11   12   11 1
    12   13   12 1
    13   14   12 1
    14   15   12 1
    15   16    2 1
    16   17   16 3
    17   18    2 1
    18   19   18 ar
    19   20   19 1
    20   21   19 ar
    21   22   21 1
    22   23   21 ar
    23   24   23 1
    24   25   23 ar
    25   26   25 1
    26   27   18 ar
    27   28   27 1
    28   29    9 1
    29   30   29 ar
    30   31   30 1
    31   32   30 ar
    32   33   32 1
    33   34   32 ar
    34   35   34 1
    35   36   34 ar
    36   37   36 1
    37   38   29 ar
    38   39   38 1
    39    6    9 1
    40   25   27 ar
    41   36   38 ar
@<TRIPOS>SUBSTRUCTURE
     1 RES1 1

@<TRIPOS>CRYSIN
   6.6128   15.2067   15.3690  90.0000  90.0000  90.0000  19 1

