# MOL2 file generated by ConQuest
# Please check atom types

@<TRIPOS>MOLECULE
PIRYUM
    57    62     1
SMALL
NO_CHARGES
****
Generated from CSD

@<TRIPOS>ATOM
      1 O1         4.7194   16.5562    7.0610 O.3       1 RES1    0.0000
      2 O2         4.1807   15.3270    3.1463 O.3       1 RES1    0.0000
      3 O3         6.3416   15.0938    7.3581 O.2       1 RES1    0.0000
      4 O4         4.5247   10.4056    7.8820 O.3       1 RES1    0.0000
      5 O5         3.3841   17.1542    0.9526 O.2       1 RES1    0.0000
      6 O6         5.4345   17.5000    1.4997 O.2       1 RES1    0.0000
      7 N1         4.0733   12.9453    2.9261 N.3       1 RES1    0.0000
      8 H1         3.3269   12.9041    2.4974 H         1 RES1    0.0000
      9 N2         4.5503   16.8077    1.0300 N.pl3     1 RES1    0.0000
     10 C1         3.7655   17.1535    6.2662 C.ar      1 RES1    0.0000
     11 C2         3.0148   18.1574    6.8594 C.ar      1 RES1    0.0000
     12 H2         3.1606   18.3973    7.7461 H         1 RES1    0.0000
     13 C3         2.0473   18.7937    6.1101 C.ar      1 RES1    0.0000
     14 H3         1.5336   19.4657    6.4980 H         1 RES1    0.0000
     15 C4         1.8315   18.4424    4.7832 C.ar      1 RES1    0.0000
     16 H4         1.1799   18.8854    4.2881 H         1 RES1    0.0000
     17 C5         2.5798   17.4386    4.1935 C.ar      1 RES1    0.0000
     18 H5         2.4286   17.2054    3.3059 H         1 RES1    0.0000
     19 C6         3.5687   16.7714    4.9367 C.ar      1 RES1    0.0000
     20 C7         4.3893   15.6842    4.4322 C.2       1 RES1    0.0000
     21 C8         5.3006   15.0766    5.2384 C.2       1 RES1    0.0000
     22 C9         5.5119   15.5375    6.5876 C.2       1 RES1    0.0000
     23 C10        6.0387   13.8518    4.7592 C.3       1 RES1    0.0000
     24 H6         6.8958   13.7772    5.2283 H         1 RES1    0.0000
     25 C11        5.1632   12.6554    5.0931 C.ar      1 RES1    0.0000
     26 C12        5.2578   11.9911    6.3108 C.ar      1 RES1    0.0000
     27 H7         5.9235   12.2280    6.9148 H         1 RES1    0.0000
     28 C13        4.3603   10.9733    6.6313 C.ar      1 RES1    0.0000
     29 C14        3.3847   10.6082    5.7242 C.ar      1 RES1    0.0000
     30 H8         2.7891    9.9253    5.9314 H         1 RES1    0.0000
     31 C15        3.2918   11.2636    4.4992 C.ar      1 RES1    0.0000
     32 H9         2.6393   11.0067    3.8880 H         1 RES1    0.0000
     33 C16        4.1654   12.2991    4.1788 C.ar      1 RES1    0.0000
     34 C17        4.8501   14.0876    2.6140 C.3       1 RES1    0.0000
     35 C18        6.2827   13.9563    3.2410 C.3       1 RES1    0.0000
     36 C19        7.1578   15.1719    2.9151 C.3       1 RES1    0.0000
     37 H10        8.0239   15.0593    3.3143 H         1 RES1    0.0000
     38 H11        6.7453   15.9657    3.2640 H         1 RES1    0.0000
     39 H12        7.2524   15.2528    1.9632 H         1 RES1    0.0000
     40 C20        7.0012   12.6926    2.7454 C.3       1 RES1    0.0000
     41 H13        7.8728   12.6425    3.1442 H         1 RES1    0.0000
     42 H14        7.0882   12.7272    1.7907 H         1 RES1    0.0000
     43 H15        6.4914   11.9167    2.9921 H         1 RES1    0.0000
     44 C21        3.6624    9.3222    8.1987 C.3       1 RES1    0.0000
     45 H16        3.8576    9.0061    9.0840 H         1 RES1    0.0000
     46 H17        3.7969    8.6119    7.5676 H         1 RES1    0.0000
     47 H18        2.7502    9.6177    8.1593 H         1 RES1    0.0000
     48 C22        4.9070   14.2891    1.0978 C.ar      1 RES1    0.0000
     49 C23        5.1327   13.1546    0.3089 C.ar      1 RES1    0.0000
     50 H19        5.0868   12.3146    0.7067 H         1 RES1    0.0000
     51 C24        5.4208   13.2389   -1.0423 C.ar      1 RES1    0.0000
     52 H20        5.5850   12.4656   -1.5308 H         1 RES1    0.0000
     53 C25        5.4646   14.4665   -1.6626 C.ar      1 RES1    0.0000
     54 H21        5.6867   14.5270   -2.5633 H         1 RES1    0.0000
     55 C26        5.1774   15.6026   -0.9431 C.ar      1 RES1    0.0000
     56 H22        5.1690   16.4317   -1.3643 H         1 RES1    0.0000
     57 C27        4.9006   15.5072    0.4122 C.ar      1 RES1    0.0000
@<TRIPOS>BOND
     1    1   10 1
     2    2   20 1
     3    3   22 2
     4    4   28 1
     5    5    9 2
     6    6    9 2
     7    7    8 1
     8    9   57 1
     9   10   11 ar
    10   11   12 1
    11   13   11 ar
    12   14   13 1
    13   15   13 ar
    14   16   15 1
    15   17   15 ar
    16   18   17 1
    17   19   10 ar
    18   20   19 1
    19   21   20 2
    20   22    1 1
    21   23   21 1
    22   24   23 1
    23   25   23 1
    24   26   25 ar
    25   27   26 1
    26   28   26 ar
    27   29   28 ar
    28   30   29 1
    29   31   29 ar
    30   32   31 1
    31   33    7 1
    32   34    2 1
    33   35   23 1
    34   36   35 1
    35   37   36 1
    36   38   36 1
    37   39   36 1
    38   40   35 1
    39   41   40 1
    40   42   40 1
    41   43   40 1
    42   44    4 1
    43   45   44 1
    44   46   44 1
    45   47   44 1
    46   48   34 1
    47   49   48 ar
    48   50   49 1
    49   51   49 ar
    50   52   51 1
    51   53   51 ar
    52   54   53 1
    53   55   53 ar
    54   56   55 1
    55   57   48 ar
    56    7   34 1
    57   17   19 ar
    58   21   22 1
    59   25   33 ar
    60   31   33 ar
    61   34   35 1
    62   55   57 ar
@<TRIPOS>SUBSTRUCTURE
     1 RES1 1

@<TRIPOS>CRYSIN
  10.1296   18.4212   11.9851  90.0000  91.9910  90.0000 231 1

