# MOL2 file generated by ConQuest
# Please check atom types

@<TRIPOS>MOLECULE
PIRYOG
    60    65     1
SMALL
NO_CHARGES
****
Generated from CSD

@<TRIPOS>ATOM
      1 O1        -7.9315   -1.7454  -15.2221 O.3       1 RES1    0.0000
      2 O2        -4.8948   -1.7585  -12.4308 O.3       1 RES1    0.0000
      3 O3        -8.7029   -3.6735  -14.4855 O.2       1 RES1    0.0000
      4 O4        -6.7803   -8.4279  -14.4804 O.3       1 RES1    0.0000
      5 O5        -3.0998    0.4428  -11.5217 O.2       1 RES1    0.0000
      6 O6        -4.8671    0.2200  -10.2922 O.2       1 RES1    0.0000
      7 N1        -4.0222   -3.9291  -12.7032 N.3       1 RES1    0.0000
      8 N2        -3.7974   -0.1712  -10.7226 N.pl3     1 RES1    0.0000
      9 C1        -7.0450   -0.6895  -15.1484 C.ar      1 RES1    0.0000
     10 C2        -7.2027    0.3173  -16.0784 C.ar      1 RES1    0.0000
     11 H1        -7.8930    0.2700  -16.7292 H         1 RES1    0.0000
     12 C3        -6.3398    1.3967  -16.0476 C.ar      1 RES1    0.0000
     13 H2        -6.4407    2.1018  -16.6771 H         1 RES1    0.0000
     14 C4        -5.3246    1.4538  -15.0985 C.ar      1 RES1    0.0000
     15 H3        -4.7388    2.2011  -15.0799 H         1 RES1    0.0000
     16 C5        -5.1597    0.4351  -14.1832 C.ar      1 RES1    0.0000
     17 H4        -4.4587    0.4788  -13.5428 H         1 RES1    0.0000
     18 C6        -6.0279   -0.6659  -14.1980 C.ar      1 RES1    0.0000
     19 C7        -5.9210   -1.8003  -13.3128 C.2       1 RES1    0.0000
     20 C8        -6.8075   -2.8286  -13.3652 C.2       1 RES1    0.0000
     21 C9        -7.8672   -2.8137  -14.3497 C.2       1 RES1    0.0000
     22 C10       -6.7459   -3.9865  -12.4135 C.3       1 RES1    0.0000
     23 H5        -7.6732   -4.2445  -12.1433 H         1 RES1    0.0000
     24 C11       -6.0623   -5.1730  -13.0615 C.ar      1 RES1    0.0000
     25 C12       -6.7335   -6.2914  -13.5031 C.ar      1 RES1    0.0000
     26 H6        -7.6791   -6.3405  -13.4266 H         1 RES1    0.0000
     27 C13       -6.0177   -7.3572  -14.0671 C.ar      1 RES1    0.0000
     28 C14       -4.6489   -7.2846  -14.1750 C.ar      1 RES1    0.0000
     29 H7        -4.1636   -8.0045  -14.5631 H         1 RES1    0.0000
     30 C15       -3.9706   -6.1523  -13.7144 C.ar      1 RES1    0.0000
     31 H8        -3.0233   -6.1114  -13.7778 H         1 RES1    0.0000
     32 C16       -4.6694   -5.0872  -13.1659 C.ar      1 RES1    0.0000
     33 C17       -4.5984   -3.0318  -11.7431 C.3       1 RES1    0.0000
     34 C18       -5.9427   -3.5814  -11.1622 C.3       1 RES1    0.0000
     35 C19       -6.6740   -2.4974  -10.3663 C.3       1 RES1    0.0000
     36 H9        -7.5127   -2.8608  -10.0119 H         1 RES1    0.0000
     37 H10       -6.8694   -1.7369  -10.9534 H         1 RES1    0.0000
     38 H11       -6.1082   -2.1996   -9.6233 H         1 RES1    0.0000
     39 C20       -5.7601   -4.7887  -10.2398 C.3       1 RES1    0.0000
     40 H12       -6.6351   -5.0853   -9.9117 H         1 RES1    0.0000
     41 H13       -5.1945   -4.5365   -9.4804 H         1 RES1    0.0000
     42 H14       -5.3338   -5.5173  -10.7370 H         1 RES1    0.0000
     43 C21       -6.0871   -9.5209  -15.0747 C.3       1 RES1    0.0000
     44 H15       -6.7303  -10.2173  -15.3256 H         1 RES1    0.0000
     45 H16       -5.4434   -9.8874  -14.4335 H         1 RES1    0.0000
     46 H17       -5.6126   -9.2116  -15.8745 H         1 RES1    0.0000
     47 C22       -2.7294   -3.5898  -13.2628 C.3       1 RES1    0.0000
     48 H18       -2.4581   -4.2810  -13.9020 H         1 RES1    0.0000
     49 H19       -2.0675   -3.5323  -12.5425 H         1 RES1    0.0000
     50 H20       -2.7885   -2.7266  -13.7218 H         1 RES1    0.0000
     51 C23       -3.5560   -2.6917  -10.6751 C.ar      1 RES1    0.0000
     52 C24       -2.8291   -3.7515  -10.1371 C.ar      1 RES1    0.0000
     53 H21       -3.0055   -4.6299  -10.4512 H         1 RES1    0.0000
     54 C25       -1.8596   -3.5771   -9.1620 C.ar      1 RES1    0.0000
     55 H22       -1.3794   -4.3248   -8.8273 H         1 RES1    0.0000
     56 C26       -1.5936   -2.3104   -8.6792 C.ar      1 RES1    0.0000
     57 H23       -0.9447   -2.1850   -7.9967 H         1 RES1    0.0000
     58 C27       -2.2733   -1.2345   -9.1928 C.ar      1 RES1    0.0000
     59 H24       -2.0911   -0.3591   -8.8727 H         1 RES1    0.0000
     60 C28       -3.2295   -1.4313  -10.1823 C.ar      1 RES1    0.0000
@<TRIPOS>BOND
     1    1    9 1
     2    2   19 1
     3    3   21 2
     4    4   27 1
     5    5    8 2
     6    6    8 2
     7    7   32 1
     8    8   60 1
     9    9   10 ar
    10   10   11 1
    11   12   10 ar
    12   13   12 1
    13   14   12 ar
    14   15   14 1
    15   16   14 ar
    16   17   16 1
    17   18    9 ar
    18   19   18 1
    19   20   19 2
    20   21    1 1
    21   22   20 1
    22   23   22 1
    23   24   22 1
    24   25   24 ar
    25   26   25 1
    26   27   25 ar
    27   28   27 ar
    28   29   28 1
    29   30   28 ar
    30   31   30 1
    31   32   24 ar
    32   33    2 1
    33   34   22 1
    34   35   34 1
    35   36   35 1
    36   37   35 1
    37   38   35 1
    38   39   34 1
    39   40   39 1
    40   41   39 1
    41   42   39 1
    42   43    4 1
    43   44   43 1
    44   45   43 1
    45   46   43 1
    46   47    7 1
    47   48   47 1
    48   49   47 1
    49   50   47 1
    50   51   33 1
    51   52   51 ar
    52   53   52 1
    53   54   52 ar
    54   55   54 1
    55   56   54 ar
    56   57   56 1
    57   58   56 ar
    58   59   58 1
    59   60   51 ar
    60    7   33 1
    61   16   18 ar
    62   20   21 1
    63   30   32 ar
    64   33   34 1
    65   58   60 ar
@<TRIPOS>SUBSTRUCTURE
     1 RES1 1

@<TRIPOS>CRYSIN
  11.5429   14.5961   13.7283  90.0000 103.4010  90.0000  14 1

