# MOL2 file generated by ConQuest
# Please check atom types

@<TRIPOS>MOLECULE
PIRZEX
    46    46     2
SMALL
NO_CHARGES
****
Generated from CSD

@<TRIPOS>ATOM
      1 O1         7.9436    1.3746   15.4257 O.3       1 RES1    0.0000
      2 O2         5.7425   -3.0604   17.6952 O.3       1 RES1    0.0000
      3 O3         2.5391   -2.7136   20.7686 O.2       1 RES1    0.0000
      4 O4         3.0168   -4.5834   21.6286 O.2       1 RES1    0.0000
      5 N1         5.7969   -0.4377   20.2324 N.3       1 RES1    0.0000
      6 H1         5.2758    0.0893   20.6112 H         1 RES1    0.0000
      7 N2         3.0955   -3.3270   21.5480 N.pl3     1 RES1    0.0000
      8 C1         8.7981    0.5491   14.6470 C.3       1 RES1    0.0000
      9 H2         9.0968    1.0349   13.8762 H         1 RES1    0.0000
     10 H3         8.3182   -0.2339   14.3658 H         1 RES1    0.0000
     11 H4         9.5569    0.2866   15.1752 H         1 RES1    0.0000
     12 C2         7.4136    0.8326   16.5862 C.ar      1 RES1    0.0000
     13 C3         6.7817    1.7408   17.4299 C.ar      1 RES1    0.0000
     14 H5         6.7377    2.6404   17.1973 H         1 RES1    0.0000
     15 C4         6.2221    1.3015   18.6096 C.ar      1 RES1    0.0000
     16 H6         5.8034    1.9126   19.1714 H         1 RES1    0.0000
     17 C5         6.2714   -0.0402   18.9753 C.ar      1 RES1    0.0000
     18 C6         6.8685   -0.9558   18.1034 C.ar      1 RES1    0.0000
     19 C7         7.4510   -0.5021   16.9206 C.ar      1 RES1    0.0000
     20 H7         7.8696   -1.1072   16.3526 H         1 RES1    0.0000
     21 C8         6.8057   -2.4352   18.4157 C.3       1 RES1    0.0000
     22 H8         7.6453   -2.8368   18.1092 H         1 RES1    0.0000
     23 C9         6.6773   -2.7190   19.9258 C.3       1 RES1    0.0000
     24 C10        5.5001   -1.8499   20.4470 C.3       1 RES1    0.0000
     25 H9         4.6983   -2.0778   19.9329 H         1 RES1    0.0000
     26 C11        6.3844   -4.1967   20.1453 C.3       1 RES1    0.0000
     27 H10        7.1212   -4.7209   19.8209 H         1 RES1    0.0000
     28 H11        5.5861   -4.4387   19.6705 H         1 RES1    0.0000
     29 H12        6.2601   -4.3628   21.0815 H         1 RES1    0.0000
     30 C12        8.0121   -2.3662   20.5862 C.3       1 RES1    0.0000
     31 H13        8.7028   -2.9315   20.2336 H         1 RES1    0.0000
     32 H14        7.9440   -2.4975   21.5358 H         1 RES1    0.0000
     33 H15        8.2264   -1.4474   20.4064 H         1 RES1    0.0000
     34 C13        5.1889   -2.0359   21.9268 C.ar      1 RES1    0.0000
     35 C14        6.0095   -1.4572   22.8883 C.ar      1 RES1    0.0000
     36 H16        6.7319   -0.9420   22.6109 H         1 RES1    0.0000
     37 C15        5.7895   -1.6198   24.2471 C.ar      1 RES1    0.0000
     38 H17        6.3740   -1.2304   24.8569 H         1 RES1    0.0000
     39 C16        4.7332   -2.3386   24.6989 C.ar      1 RES1    0.0000
     40 H18        4.5960   -2.4520   25.6120 H         1 RES1    0.0000
     41 C17        3.8695   -2.8957   23.7940 C.ar      1 RES1    0.0000
     42 H19        3.1295   -3.3761   24.0890 H         1 RES1    0.0000
     43 C18        4.1056   -2.7404   22.4343 C.ar      1 RES1    0.0000
     44 H20        5.0783   -2.3484   17.4245 H         1 RES1    0.0000
     45 O5         3.2806   -3.8449   20.5760 Du        2 SUP2    0.0000
     46 O6         1.8977   -3.0877   21.8206 Du        2 SUP2    0.0000
@<TRIPOS>BOND
     1    1    8 1
     2    2   21 1
     3    3    7 2
     4    4    7 2
     5    5    6 1
     6    7   43 1
     7    8    9 1
     8   10    8 1
     9   11    8 1
    10   12    1 1
    11   13   12 ar
    12   14   13 1
    13   15   13 ar
    14   16   15 1
    15   17    5 1
    16   18   17 ar
    17   19   12 ar
    18   20   19 1
    19   21   18 1
    20   22   21 1
    21   23   21 1
    22   24    5 1
    23   25   24 1
    24   26   23 1
    25   27   26 1
    26   28   26 1
    27   29   26 1
    28   30   23 1
    29   31   30 1
    30   32   30 1
    31   33   30 1
    32   34   24 1
    33   35   34 ar
    34   36   35 1
    35   37   35 ar
    36   38   37 1
    37   39   37 ar
    38   40   39 1
    39   41   39 ar
    40   42   41 1
    41   43   34 ar
    42   44    2 1
    43   15   17 ar
    44   18   19 ar
    45   23   24 1
    46   41   43 ar
@<TRIPOS>SUBSTRUCTURE
     1 RES1 1
     2 SUP2 45

@<TRIPOS>CRYSIN
  11.6208    8.9292   31.9950  90.0000  90.0000  90.0000  61 1

