# MOL2 file generated by ConQuest
# Please check atom types

@<TRIPOS>MOLECULE
PISXHZ
    38    41     1
SMALL
NO_CHARGES
****
Generated from CSD

@<TRIPOS>ATOM
      1 O1         6.4904    5.6823    1.8807 O.3       1 RES1    0.0000
      2 N1         7.7362    6.4305    1.8105 N.2       1 RES1    0.0000
      3 C1         7.4370    7.7001    1.7499 C.2       1 RES1    0.0000
      4 C2         6.0115    7.8842    1.7751 C.2       1 RES1    0.0000
      5 C3         5.4400    6.5574    1.8586 C.2       1 RES1    0.0000
      6 N2         5.3393    9.0306    1.8108 N.2       1 RES1    0.0000
      7 N3         4.0375    8.9349    1.8553 N.3       1 RES1    0.0000
      8 O2         4.2845    6.1940    1.9170 O.2       1 RES1    0.0000
      9 C4         8.5123    8.7054    1.6463 C.ar      1 RES1    0.0000
     10 C5         9.8316    8.2978    1.4270 C.ar      1 RES1    0.0000
     11 C6        10.8519    9.2305    1.3276 C.ar      1 RES1    0.0000
     12 C7        10.5750   10.5683    1.4207 C.ar      1 RES1    0.0000
     13 C8         9.2793   10.9962    1.6292 C.ar      1 RES1    0.0000
     14 C9         8.2571   10.0581    1.7500 C.ar      1 RES1    0.0000
     15 O3         1.2428   10.9511    2.6669 O.3       1 RES1    0.0000
     16 N4         2.2499   11.9338    2.6033 N.3       1 RES1    0.0000
     17 C10        3.3976   11.3724    2.1351 C.2       1 RES1    0.0000
     18 C11        3.2028   10.0270    2.0322 C.2       1 RES1    0.0000
     19 C12        1.8240    9.7417    2.3333 C.2       1 RES1    0.0000
     20 O4         1.2072    8.7115    2.3446 O.2       1 RES1    0.0000
     21 C13        4.5210   12.2695    1.8428 C.ar      1 RES1    0.0000
     22 C14        4.7184   13.4348    2.5880 C.ar      1 RES1    0.0000
     23 C15        5.7379   14.3002    2.2606 C.ar      1 RES1    0.0000
     24 C16        6.5665   14.0307    1.1838 C.ar      1 RES1    0.0000
     25 C17        6.3900   12.8733    0.4548 C.ar      1 RES1    0.0000
     26 C18        5.3747   11.9928    0.7643 C.ar      1 RES1    0.0000
     27 H1         3.6722    8.1194    1.7765 H         1 RES1    0.0000
     28 H2         9.9788    7.4106    1.2549 H         1 RES1    0.0000
     29 H3        11.7417    8.9088    1.0716 H         1 RES1    0.0000
     30 H4        11.2308   11.1803    1.2690 H         1 RES1    0.0000
     31 H5         9.0942   11.9053    1.7060 H         1 RES1    0.0000
     32 H6         7.4416   10.3587    1.8752 H         1 RES1    0.0000
     33 H7         1.9748   12.7108    2.3405 H         1 RES1    0.0000
     34 H8         4.1399   13.5485    3.3698 H         1 RES1    0.0000
     35 H9         5.8367   15.0629    2.8763 H         1 RES1    0.0000
     36 H10        7.2848   14.6279    0.9165 H         1 RES1    0.0000
     37 H11        6.9100   12.6302   -0.2820 H         1 RES1    0.0000
     38 H12        5.2824   11.1642    0.1692 H         1 RES1    0.0000
@<TRIPOS>BOND
     1    1    2 1
     2    2    3 2
     3    3    4 1
     4    4    5 1
     5    5    1 1
     6    6    4 2
     7    7    6 1
     8    8    5 2
     9    9    3 1
    10   10    9 ar
    11   11   10 ar
    12   12   11 ar
    13   13   12 ar
    14   14    9 ar
    15   15   16 1
    16   16   17 1
    17   17   18 2
    18   18    7 1
    19   19   15 1
    20   20   19 2
    21   21   17 1
    22   22   21 ar
    23   23   22 ar
    24   24   23 ar
    25   25   24 ar
    26   26   21 ar
    27   27    7 1
    28   28   10 1
    29   29   11 1
    30   30   12 1
    31   31   13 1
    32   32   14 1
    33   33   16 1
    34   34   22 1
    35   35   23 1
    36   36   24 1
    37   37   25 1
    38   38   26 1
    39   13   14 ar
    40   18   19 1
    41   25   26 ar
@<TRIPOS>SUBSTRUCTURE
     1 RES1 1

@<TRIPOS>CRYSIN
  13.7600   16.1100   14.1000  90.0000  90.5000  90.0000  15 1

