# MOL2 file generated by ConQuest
# Please check atom types

@<TRIPOS>MOLECULE
PIVRER
    67    72     1
SMALL
NO_CHARGES
****
Generated from CSD

@<TRIPOS>ATOM
      1 O1         5.3390    0.8936    5.6252 O.3       1 RES1    0.0000
      2 O2         7.1422    2.8514    3.4778 O.2       1 RES1    0.0000
      3 O3         8.2346    1.4966    7.3041 O.2       1 RES1    0.0000
      4 O4         9.6948    0.4228    6.0202 O.3       1 RES1    0.0000
      5 O5        11.5442    0.9393    4.7288 O.3       1 RES1    0.0000
      6 N1         8.4516    1.9986    5.0381 N.am      1 RES1    0.0000
      7 N2        11.4349    2.4142    4.7590 N.3       1 RES1    0.0000
      8 C1         6.2498    3.1733    5.6554 C.3       1 RES1    0.0000
      9 C2         5.4851    2.0659    6.4495 C.3       1 RES1    0.0000
     10 C3         4.1589    2.7770    6.8178 C.3       1 RES1    0.0000
     11 C4         4.3743    4.1823    6.3240 C.3       1 RES1    0.0000
     12 C5         5.4574    4.8213    7.2163 C.3       1 RES1    0.0000
     13 C6         6.7545    4.1438    6.7294 C.3       1 RES1    0.0000
     14 C7         5.0882    3.9877    4.9860 C.3       1 RES1    0.0000
     15 C8         5.5267    5.3089    4.3468 C.3       1 RES1    0.0000
     16 C9         4.2435    3.2214    3.9730 C.3       1 RES1    0.0000
     17 C10        7.2684    2.6641    4.6650 C.2       1 RES1    0.0000
     18 C11        4.8482   -0.1970    6.3535 C.3       1 RES1    0.0000
     19 C12        8.7301    1.3380    6.2376 C.2       1 RES1    0.0000
     20 C13        9.3794    1.5831    3.9915 C.3       1 RES1    0.0000
     21 C14       10.2010    0.4973    4.7103 C.3       1 RES1    0.0000
     22 C15       10.4610    2.6376    3.6548 C.3       1 RES1    0.0000
     23 C16       12.7982    2.8610    4.4126 C.3       1 RES1    0.0000
     24 C17       13.7506    2.6088    5.5470 C.ar      1 RES1    0.0000
     25 C18       14.7414    1.6840    5.3639 C.ar      1 RES1    0.0000
     26 C19       15.6184    1.4317    6.4180 C.ar      1 RES1    0.0000
     27 C20       15.5661    2.1476    7.5565 C.ar      1 RES1    0.0000
     28 C21       14.5676    3.0436    7.7492 C.ar      1 RES1    0.0000
     29 C22       13.6444    3.2694    6.7506 C.ar      1 RES1    0.0000
     30 C23       10.0010    4.0694    3.5718 C.ar      1 RES1    0.0000
     31 C24        9.9394    4.8837    4.7219 C.ar      1 RES1    0.0000
     32 C25        9.4394    6.1665    4.5957 C.ar      1 RES1    0.0000
     33 C26        9.0086    6.6493    3.4134 C.ar      1 RES1    0.0000
     34 C27        9.0855    5.8662    2.2660 C.ar      1 RES1    0.0000
     35 C28        9.5671    4.5906    2.3675 C.ar      1 RES1    0.0000
     36 H1         6.0006    1.7056    7.3452 H         1 RES1    0.0000
     37 H2         3.9850    2.7145    7.9213 H         1 RES1    0.0000
     38 H3         3.3080    2.2581    6.3508 H         1 RES1    0.0000
     39 H4         3.4003    4.6843    6.3851 H         1 RES1    0.0000
     40 H5         5.2774    4.7084    8.2780 H         1 RES1    0.0000
     41 H6         5.4928    5.9335    7.0229 H         1 RES1    0.0000
     42 H7         7.4776    4.8525    6.3165 H         1 RES1    0.0000
     43 H8         7.2622    3.6274    7.5373 H         1 RES1    0.0000
     44 H9         4.7235    5.8614    3.8818 H         1 RES1    0.0000
     45 H10        5.9852    5.9815    5.0683 H         1 RES1    0.0000
     46 H11        6.3083    5.1408    3.5663 H         1 RES1    0.0000
     47 H12        3.4773    3.8195    3.4977 H         1 RES1    0.0000
     48 H13        4.8774    2.8106    3.1617 H         1 RES1    0.0000
     49 H14        3.7850    2.3782    4.4305 H         1 RES1    0.0000
     50 H15        4.7389   -1.0810    5.7061 H         1 RES1    0.0000
     51 H16        5.5082   -0.4564    7.1944 H         1 RES1    0.0000
     52 H17        3.8619    0.0000    6.7829 H         1 RES1    0.0000
     53 H18        8.7547    1.3693    3.0725 H         1 RES1    0.0000
     54 H19       10.2318   -0.5045    4.2041 H         1 RES1    0.0000
     55 H20       10.9549    2.5223    2.6336 H         1 RES1    0.0000
     56 H21       12.7705    3.9396    4.1081 H         1 RES1    0.0000
     57 H22       13.1551    2.3061    3.4634 H         1 RES1    0.0000
     58 H23       14.8630    1.0570    4.4510 H         1 RES1    0.0000
     59 H24       16.4016    0.7207    6.1588 H         1 RES1    0.0000
     60 H25       16.3708    1.8737    8.2094 H         1 RES1    0.0000
     61 H26       14.4783    3.5553    8.6895 H         1 RES1    0.0000
     62 H27       12.8166    3.9637    6.9817 H         1 RES1    0.0000
     63 H28       10.2625    4.4441    5.6787 H         1 RES1    0.0000
     64 H29        9.4009    6.8944    5.4798 H         1 RES1    0.0000
     65 H30        8.5547    7.6391    3.2303 H         1 RES1    0.0000
     66 H31        8.7701    6.2938    1.3511 H         1 RES1    0.0000
     67 H32        9.6932    3.9637    1.4677 H         1 RES1    0.0000
@<TRIPOS>BOND
     1    1    9 1
     2    2   17 2
     3    3   19 2
     4    4   19 1
     5    5    7 1
     6    6   17 1
     7    7   22 1
     8    8    9 1
     9    9   10 1
    10   10   11 1
    11   11   12 1
    12   12   13 1
    13   13    8 1
    14   14    8 1
    15   15   14 1
    16   16   14 1
    17   17    8 1
    18   18    1 1
    19   19    6 1
    20   20    6 1
    21   21    4 1
    22   22   20 1
    23   23    7 1
    24   24   23 1
    25   25   24 ar
    26   26   25 ar
    27   27   26 ar
    28   28   27 ar
    29   29   24 ar
    30   30   22 1
    31   31   30 ar
    32   32   31 ar
    33   33   32 ar
    34   34   33 ar
    35   35   30 ar
    36   36    9 1
    37   37   10 1
    38   38   10 1
    39   39   11 1
    40   40   12 1
    41   41   12 1
    42   42   13 1
    43   43   13 1
    44   44   15 1
    45   45   15 1
    46   46   15 1
    47   47   16 1
    48   48   16 1
    49   49   16 1
    50   50   18 1
    51   51   18 1
    52   52   18 1
    53   53   20 1
    54   54   21 1
    55   55   22 1
    56   56   23 1
    57   57   23 1
    58   58   25 1
    59   59   26 1
    60   60   27 1
    61   61   28 1
    62   62   29 1
    63   63   31 1
    64   64   32 1
    65   65   33 1
    66   66   34 1
    67   67   35 1
    68    5   21 1
    69   11   14 1
    70   20   21 1
    71   28   29 ar
    72   34   35 ar
@<TRIPOS>SUBSTRUCTURE
     1 RES1 1

@<TRIPOS>CRYSIN
  15.3861   24.0222    6.8583  90.0000  90.0000  90.0000  19 1

