# MOL2 file generated by ConQuest
# Please check atom types

@<TRIPOS>MOLECULE
PIWBED01
    36    38     1
SMALL
USER_CHARGES
****
Generated from CSD

@<TRIPOS>ATOM
      1 O1         0.2227    8.5616   12.9261 O.3       1 RES1    0.0000
      2 O2        -1.0880    7.9548   11.2091 O.2       1 RES1   -1.0000
      3 O3         1.7794    6.1238    5.7460 O.3       1 RES1    0.0000
      4 O4         7.7895    8.2478   12.1625 O.3       1 RES1    0.0000
      5 N1         1.5567    8.6865   13.1911 N.2       1 RES1    0.0000
      6 N2         0.0526    8.1277   11.5863 N.pl3     1 RES1    1.0000
      7 C1         2.1771    8.3423   12.0364 C.2       1 RES1    0.0000
      8 C2         1.2532    7.9932   11.0188 C.2       1 RES1    0.0000
      9 C3         1.3939    7.5513    9.6176 C.ar      1 RES1    0.0000
     10 C4         2.3240    8.1373    8.7686 C.ar      1 RES1    0.0000
     11 C5         2.4794    7.6938    7.4662 C.ar      1 RES1    0.0000
     12 C6         1.6937    6.6610    6.9956 C.ar      1 RES1    0.0000
     13 C7         0.7282    6.0854    7.8354 C.ar      1 RES1    0.0000
     14 C8         0.5874    6.5193    9.1191 C.ar      1 RES1    0.0000
     15 C9         2.8551    6.5857    4.9129 C.3       1 RES1    0.0000
     16 C10        3.6433    8.3559   12.0355 C.ar      1 RES1    0.0000
     17 C11        4.3885    7.5312   11.1917 C.ar      1 RES1    0.0000
     18 C12        5.7702    7.5064   11.2674 C.ar      1 RES1    0.0000
     19 C13        6.4372    8.3278   12.1755 C.ar      1 RES1    0.0000
     20 C14        5.7127    9.1597   13.0210 C.ar      1 RES1    0.0000
     21 C15        4.3298    9.1653   12.9393 C.ar      1 RES1    0.0000
     22 C16        8.5128    9.1028   13.0537 C.3       1 RES1    0.0000
     23 H1         2.8392    8.8706    9.1249 H         1 RES1    0.0000
     24 H2         3.0962    8.1021    6.8934 H         1 RES1    0.0000
     25 H3         0.2448    5.3880    7.5083 H         1 RES1    0.0000
     26 H4        -0.0122    6.0685    9.7109 H         1 RES1    0.0000
     27 H5         3.8427    6.4769    5.3808 H         1 RES1    0.0000
     28 H6         2.7168    7.5256    4.7140 H         1 RES1    0.0000
     29 H7         2.7780    6.0685    4.1655 H         1 RES1    0.0000
     30 H8         4.0141    6.9892   10.5740 H         1 RES1    0.0000
     31 H9         6.3148    6.9332   10.6635 H         1 RES1    0.0000
     32 H10        6.1190    9.7433   13.6858 H         1 RES1    0.0000
     33 H11        3.8550    9.7353   13.5704 H         1 RES1    0.0000
     34 H12        9.3865    8.8066   12.8833 H         1 RES1    0.0000
     35 H13        8.4075   10.0395   12.8372 H         1 RES1    0.0000
     36 H14        8.2974    8.9027   13.9976 H         1 RES1    0.0000
@<TRIPOS>BOND
     1    1    5 1
     2    2    6 1
     3    3   12 1
     4    4   19 1
     5    5    7 2
     6    6    1 1
     7    7    8 1
     8    8    6 2
     9    9    8 1
    10   10    9 ar
    11   11   10 ar
    12   12   11 ar
    13   13   12 ar
    14   14    9 ar
    15   15    3 1
    16   16    7 1
    17   17   16 ar
    18   18   17 ar
    19   19   18 ar
    20   20   19 ar
    21   21   16 ar
    22   22    4 1
    23   23   10 1
    24   24   11 1
    25   25   13 1
    26   26   14 1
    27   27   15 1
    28   28   15 1
    29   29   15 1
    30   30   17 1
    31   31   18 1
    32   32   20 1
    33   33   21 1
    34   34   22 1
    35   35   22 1
    36   36   22 1
    37   13   14 ar
    38   20   21 ar
@<TRIPOS>SUBSTRUCTURE
     1 RES1 1

@<TRIPOS>CRYSIN
  12.2380    8.0060   28.8670  90.0000  90.0000  90.0000  61 1

