# MOL2 file generated by ConQuest
# Please check atom types

@<TRIPOS>MOLECULE
PIWSEU
    25    26     1
SMALL
NO_CHARGES
****
Generated from CSD

@<TRIPOS>ATOM
      1 N1         1.7924    0.3517   12.1816 N.pl3     1 RES1    0.0000
      2 O1         1.4750    0.5350   17.1193 O.2       1 RES1    0.0000
      3 C1         1.3703    2.0487   13.9239 C.3       1 RES1    0.0000
      4 N2         1.8824    1.1374   14.9315 N.am      1 RES1    0.0000
      5 O2         2.9281    0.7781   12.0339 O.2       1 RES1    0.0000
      6 C2         0.2500    2.1320   11.6219 C.3       1 RES1    0.0000
      7 C3         0.3210    2.8063   14.7010 C.ar      1 RES1    0.0000
      8 C4        -0.6967    2.7089   16.8960 C.ar      1 RES1    0.0000
      9 C5         0.2130    2.2543   15.9680 C.ar      1 RES1    0.0000
     10 O3         1.4411   -0.7695   11.8619 O.2       1 RES1    0.0000
     11 C6         0.7484    1.2727   12.7616 C.3       1 RES1    0.0000
     12 C7         1.2391    1.2056   16.1149 C.2       1 RES1    0.0000
     13 C8        -0.4644    3.8690   14.3446 C.ar      1 RES1    0.0000
     14 C9        -1.3738    4.3312   15.2676 C.ar      1 RES1    0.0000
     15 C10       -1.4998    3.7424   16.5301 C.ar      1 RES1    0.0000
     16 H1         2.0227    2.6634   13.5817 H         1 RES1    0.0000
     17 H2         2.5842    0.6623   14.7200 H         1 RES1    0.0000
     18 H3        -0.4206    2.7370   11.9482 H         1 RES1    0.0000
     19 H4        -0.1260    1.5747   10.9357 H         1 RES1    0.0000
     20 H5         0.9839    2.6331   11.2573 H         1 RES1    0.0000
     21 H6        -0.7387    2.3009   17.7655 H         1 RES1    0.0000
     22 H7        -0.0021    0.7684   13.0849 H         1 RES1    0.0000
     23 H8        -0.3421    4.2706   13.4798 H         1 RES1    0.0000
     24 H9        -1.9692    5.0519   15.0511 H         1 RES1    0.0000
     25 H10       -2.1646    4.0790   17.1367 H         1 RES1    0.0000
@<TRIPOS>BOND
     1    1    5 2
     2    2   12 2
     3    3    4 1
     4    4   12 1
     5    6   11 1
     6    7    3 1
     7    8    9 ar
     8    9    7 ar
     9   10    1 2
    10   11    1 1
    11   12    9 1
    12   13    7 ar
    13   14   13 ar
    14   15    8 ar
    15   16    3 1
    16   17    4 1
    17   18    6 1
    18   19    6 1
    19   20    6 1
    20   21    8 1
    21   22   11 1
    22   23   13 1
    23   24   14 1
    24   25   15 1
    25    3   11 1
    26   14   15 ar
@<TRIPOS>SUBSTRUCTURE
     1 RES1 1

@<TRIPOS>CRYSIN
   5.5118   10.8225   16.1490  90.0000  99.6530  90.0000 231 1

