# MOL2 file generated by ConQuest
# Please check atom types

@<TRIPOS>MOLECULE
PIWVAT
    43    45     1
SMALL
NO_CHARGES
****
Generated from CSD

@<TRIPOS>ATOM
      1 O1         0.3390   -1.2902   -5.5119 O.3       1 RES1    0.0000
      2 C1        -0.9536   -1.1592   -5.0884 C.ar      1 RES1    0.0000
      3 C2        -1.4681   -2.1384   -4.2740 C.ar      1 RES1    0.0000
      4 H1        -0.9392   -2.8929   -4.0436 H         1 RES1    0.0000
      5 C3        -2.7541   -2.0253   -3.7883 C.ar      1 RES1    0.0000
      6 H2        -3.1029   -2.7014   -3.2204 H         1 RES1    0.0000
      7 C4        -3.5493   -0.9292   -4.1233 C.ar      1 RES1    0.0000
      8 C5        -3.0257    0.0284   -4.9701 C.ar      1 RES1    0.0000
      9 H3        -3.5601    0.7745   -5.2154 H         1 RES1    0.0000
     10 C6        -1.7389   -0.0763   -5.4695 C.ar      1 RES1    0.0000
     11 H4        -1.3970    0.5814   -6.0635 H         1 RES1    0.0000
     12 O2        -5.3315    0.4772   -3.4017 O.2       1 RES1    0.0000
     13 C7        -4.8784   -0.6793   -3.4994 C.2       1 RES1    0.0000
     14 N1        -5.5489   -1.7317   -2.9838 N.am      1 RES1    0.0000
     15 C8        -6.6916   -1.5233   -2.1133 C.3       1 RES1    0.0000
     16 H5        -6.4541   -0.7966   -1.4695 H         1 RES1    0.0000
     17 C9        -8.0407   -1.1281   -2.8020 C.3       1 RES1    0.0000
     18 H6        -8.1163   -0.1326   -2.8593 H         1 RES1    0.0000
     19 C10       -9.1154   -1.6822   -1.8605 C.3       1 RES1    0.0000
     20 H7        -9.7018   -2.3162   -2.3449 H         1 RES1    0.0000
     21 H8        -9.6746   -0.9450   -1.5068 H         1 RES1    0.0000
     22 C11       -8.3932   -2.4020   -0.7073 C.3       1 RES1    0.0000
     23 C12       -7.0411   -2.7519   -1.3113 C.3       1 RES1    0.0000
     24 H9        -6.3677   -2.9198   -0.6052 H         1 RES1    0.0000
     25 H10       -7.1061   -3.5507   -1.8929 H         1 RES1    0.0000
     26 C13       -8.3218   -1.6038    0.5691 C.3       1 RES1    0.0000
     27 H11       -8.3009   -0.6325    0.3798 H         1 RES1    0.0000
     28 H12       -7.5189   -1.8469    1.0959 H         1 RES1    0.0000
     29 C14       -9.5998   -1.9916    1.3076 C.3       1 RES1    0.0000
     30 H13       -9.4343   -2.0847    2.2789 H         1 RES1    0.0000
     31 H14      -10.3118   -1.3191    1.1631 H         1 RES1    0.0000
     32 C15       -9.9712   -3.3086    0.6961 C.3       1 RES1    0.0000
     33 H15       -9.9447   -4.0179    1.3860 H         1 RES1    0.0000
     34 H16      -10.8910   -3.2623    0.3337 H         1 RES1    0.0000
     35 O3        -9.0741   -3.6117   -0.3296 O.3       1 RES1    0.0000
     36 O4        -8.3743   -2.9366   -4.3669 O.2       1 RES1    0.0000
     37 C16       -8.1123   -1.7285   -4.1781 C.2       1 RES1    0.0000
     38 N2        -7.8625   -0.8950   -5.1631 N.am      1 RES1    0.0000
     39 O5        -7.7727   -1.3881   -6.4599 O.3       1 RES1    0.0000
     40 H17       -5.3726   -2.4625   -3.1756 H         1 RES1    0.0000
     41 H18       -7.5527   -0.0684   -5.1183 H         1 RES1    0.0000
     42 H19        0.6602   -0.6525   -6.0025 H         1 RES1    0.0000
     43 H20       -8.4196   -0.9313   -6.9614 H         1 RES1    0.0000
@<TRIPOS>BOND
     1    1    2 1
     2    2    3 ar
     3    3    4 1
     4    5    3 ar
     5    6    5 1
     6    7    5 ar
     7    8    7 ar
     8    9    8 1
     9   10    2 ar
    10   11   10 1
    11   12   13 2
    12   13    7 1
    13   14   13 1
    14   15   14 1
    15   16   15 1
    16   17   15 1
    17   18   17 1
    18   19   17 1
    19   20   19 1
    20   21   19 1
    21   22   19 1
    22   23   15 1
    23   24   23 1
    24   25   23 1
    25   26   22 1
    26   27   26 1
    27   28   26 1
    28   29   26 1
    29   30   29 1
    30   31   29 1
    31   32   29 1
    32   33   32 1
    33   34   32 1
    34   35   22 1
    35   36   37 2
    36   37   17 1
    37   38   37 1
    38   39   38 1
    39   40   14 1
    40   41   38 1
    41   42    1 1
    42   43   39 1
    43    8   10 ar
    44   22   23 1
    45   32   35 1
@<TRIPOS>SUBSTRUCTURE
     1 RES1 1

@<TRIPOS>CRYSIN
  11.3584    5.2618   13.3500  90.0000 111.1200  90.0000   4 1

