# MOL2 file generated by ConQuest
# Please check atom types

@<TRIPOS>MOLECULE
PIWYEZ
    68    73     1
SMALL
NO_CHARGES
****
Generated from CSD

@<TRIPOS>ATOM
      1 O1         6.0921    1.1848    0.0999 O.2       1 RES1    0.0000
      2 O2         7.6936    2.5724    0.2175 O.2       1 RES1    0.0000
      3 O3         2.9925    6.5340   -0.5679 O.3       1 RES1    0.0000
      4 O4         2.1101    5.8395   -2.4820 O.2       1 RES1    0.0000
      5 N1         6.5160    2.2928    0.0943 N.pl3     1 RES1    0.0000
      6 N2         7.9680    9.6904   -0.8249 N.3       1 RES1    0.0000
      7 N3         6.9043   10.0408    1.3236 N.3       1 RES1    0.0000
      8 C1         5.5776    3.4023   -0.1216 C.ar      1 RES1    0.0000
      9 C2         6.0748    4.7069   -0.1200 C.ar      1 RES1    0.0000
     10 C3         5.1729    5.7304   -0.3295 C.ar      1 RES1    0.0000
     11 C4         3.8551    5.4614   -0.4600 C.ar      1 RES1    0.0000
     12 C5         3.3880    4.1445   -0.4568 C.ar      1 RES1    0.0000
     13 C6         4.2996    3.1303   -0.2755 C.ar      1 RES1    0.0000
     14 C7         2.1542    6.6846   -1.6240 C.2       1 RES1    0.0000
     15 C8         1.3405    7.8894   -1.5467 C.ar      1 RES1    0.0000
     16 C9         1.7072    9.0927   -0.9216 C.ar      1 RES1    0.0000
     17 C10        0.8485   10.1407   -0.9087 C.ar      1 RES1    0.0000
     18 C11       -0.4364    9.9809   -1.4919 C.ar      1 RES1    0.0000
     19 C12       -0.7969    8.7653   -2.1106 C.ar      1 RES1    0.0000
     20 C13        0.0889    7.7680   -2.1525 C.ar      1 RES1    0.0000
     21 C14        1.2031   11.4607   -0.3061 C.3       1 RES1    0.0000
     22 C15        3.1093    9.2402   -0.3496 C.ar      1 RES1    0.0000
     23 C16        4.2127    9.3662   -1.1431 C.ar      1 RES1    0.0000
     24 C17        5.5096    9.5598   -0.6461 C.ar      1 RES1    0.0000
     25 C18        5.6135    9.7012    0.7822 C.ar      1 RES1    0.0000
     26 C19        4.5430    9.5736    1.5620 C.ar      1 RES1    0.0000
     27 C20        3.2423    9.3708    1.0505 C.ar      1 RES1    0.0000
     28 C21        4.6092    9.7350    3.1240 C.3       1 RES1    0.0000
     29 C22        7.7877   10.6155    0.2981 C.3       1 RES1    0.0000
     30 C23        7.5797    8.9082    1.9600 C.3       1 RES1    0.0000
     31 C24        6.6552    9.6459   -1.5225 C.3       1 RES1    0.0000
     32 C25        8.2917    8.0369    0.9498 C.ar      1 RES1    0.0000
     33 C26        8.8399    6.8014    1.3574 C.ar      1 RES1    0.0000
     34 C27        9.5097    5.9870    0.4866 C.ar      1 RES1    0.0000
     35 C28        9.6856    6.3865   -0.8555 C.ar      1 RES1    0.0000
     36 C29        9.1322    7.6005   -1.2962 C.ar      1 RES1    0.0000
     37 C30        8.4547    8.3965   -0.3923 C.ar      1 RES1    0.0000
     38 C31        9.3634    8.0293   -2.7229 C.3       1 RES1    0.0000
     39 C32       10.1244    4.6977    0.9602 C.3       1 RES1    0.0000
     40 H1         7.0173    4.8637   -0.0097 H         1 RES1    0.0000
     41 H2         5.4657    6.6447   -0.3528 H         1 RES1    0.0000
     42 H3         2.4545    3.9601   -0.5752 H         1 RES1    0.0000
     43 H4         4.0120    2.2144   -0.2731 H         1 RES1    0.0000
     44 H5        -1.0695   10.7000   -1.4452 H         1 RES1    0.0000
     45 H6        -1.6678    8.6578   -2.5029 H         1 RES1    0.0000
     46 H7        -0.1510    6.9505   -2.5948 H         1 RES1    0.0000
     47 H8         2.1045   11.4438    0.0266 H         1 RES1    0.0000
     48 H9         1.1114   12.1737   -0.9425 H         1 RES1    0.0000
     49 H10        0.5951   11.6021    0.4229 H         1 RES1    0.0000
     50 H11        4.0814    9.3308   -2.0937 H         1 RES1    0.0000
     51 H12        2.4822    9.3170    1.6353 H         1 RES1    0.0000
     52 H13        5.5123    9.8764    3.4132 H         1 RES1    0.0000
     53 H14        4.0695   10.4849    3.3810 H         1 RES1    0.0000
     54 H15        4.2646    8.9374    3.5333 H         1 RES1    0.0000
     55 H16        7.4007   11.4300   -0.0306 H         1 RES1    0.0000
     56 H17        8.6415   10.8199    0.6847 H         1 RES1    0.0000
     57 H18        6.9241    8.3750    2.4167 H         1 RES1    0.0000
     58 H19        8.2114    9.2279    2.6093 H         1 RES1    0.0000
     59 H20        6.6561    8.8760   -2.0977 H         1 RES1    0.0000
     60 H21        6.5666   10.4250   -2.0744 H         1 RES1    0.0000
     61 H22        8.7414    6.5171    2.2693 H         1 RES1    0.0000
     62 H23       10.1766    5.8364   -1.4694 H         1 RES1    0.0000
     63 H24        8.9289    8.8683   -2.8880 H         1 RES1    0.0000
     64 H25       10.3074    8.1261   -2.8703 H         1 RES1    0.0000
     65 H26        9.0128    7.3639   -3.3182 H         1 RES1    0.0000
     66 H27       10.5576    4.2597    0.2231 H         1 RES1    0.0000
     67 H28       10.7696    4.8729    1.6498 H         1 RES1    0.0000
     68 H29        9.4320    4.1306    1.3066 H         1 RES1    0.0000
@<TRIPOS>BOND
     1    1    5 2
     2    2    5 2
     3    3   11 1
     4    4   14 2
     5    5    8 1
     6    6   29 1
     7    7   25 1
     8    8    9 ar
     9    9   10 ar
    10   10   11 ar
    11   11   12 ar
    12   12   13 ar
    13   13    8 ar
    14   14    3 1
    15   15   14 1
    16   16   15 ar
    17   17   16 ar
    18   18   17 ar
    19   19   18 ar
    20   20   15 ar
    21   21   17 1
    22   22   16 1
    23   23   22 ar
    24   24   23 ar
    25   25   24 ar
    26   26   25 ar
    27   27   22 ar
    28   28   26 1
    29   29    7 1
    30   30    7 1
    31   31    6 1
    32   32   30 1
    33   33   32 ar
    34   34   33 ar
    35   35   34 ar
    36   36   35 ar
    37   37    6 1
    38   38   36 1
    39   39   34 1
    40   40    9 1
    41   41   10 1
    42   42   12 1
    43   43   13 1
    44   44   18 1
    45   45   19 1
    46   46   20 1
    47   47   21 1
    48   48   21 1
    49   49   21 1
    50   50   23 1
    51   51   27 1
    52   52   28 1
    53   53   28 1
    54   54   28 1
    55   55   29 1
    56   56   29 1
    57   57   30 1
    58   58   30 1
    59   59   31 1
    60   60   31 1
    61   61   33 1
    62   62   35 1
    63   63   38 1
    64   64   38 1
    65   65   38 1
    66   66   39 1
    67   67   39 1
    68   68   39 1
    69   19   20 ar
    70   24   31 1
    71   26   27 ar
    72   32   37 ar
    73   36   37 ar
@<TRIPOS>SUBSTRUCTURE
     1 RES1 1

@<TRIPOS>CRYSIN
  21.6170   15.3670    8.0620  90.0000  92.2500  90.0000  14 1

