# MOL2 file generated by ConQuest
# Please check atom types

@<TRIPOS>MOLECULE
PIXBUV
    25    27     1
SMALL
NO_CHARGES
****
Generated from CSD

@<TRIPOS>ATOM
      1 O1         6.1440    1.0521    7.2228 O.2       1 RES1    0.0000
      2 N1         5.4251    1.2369    6.1754 N.3       1 RES1    0.0000
      3 C1         4.0987    1.8404    6.3467 C.3       1 RES1    0.0000
      4 H1         3.6830    1.5077    7.1824 H         1 RES1    0.0000
      5 C2         4.2575    3.3578    6.4167 C.3       1 RES1    0.0000
      6 H2         4.8096    3.5998    7.1904 H         1 RES1    0.0000
      7 H3         3.3799    3.7800    6.5210 H         1 RES1    0.0000
      8 C3         4.9234    3.8493    5.1267 C.3       1 RES1    0.0000
      9 H4         5.0360    4.8325    5.1663 H         1 RES1    0.0000
     10 C4         6.2979    3.1797    4.9987 C.3       1 RES1    0.0000
     11 H5         6.8578    3.4154    5.7684 H         1 RES1    0.0000
     12 H6         6.7463    3.4900    4.1840 H         1 RES1    0.0000
     13 C5         6.0984    1.6592    4.9419 C.3       1 RES1    0.0000
     14 H7         6.9783    1.2103    4.8732 H         1 RES1    0.0000
     15 C6         3.2267    1.4726    5.1545 C.3       1 RES1    0.0000
     16 H8         2.3423    1.8842    5.2508 H         1 RES1    0.0000
     17 H9         3.1106    0.5001    5.1162 H         1 RES1    0.0000
     18 C7         4.0638    3.4804    3.9239 C.3       1 RES1    0.0000
     19 H10        4.4930    3.7928    3.1001 H         1 RES1    0.0000
     20 H11        3.1872    3.9144    3.9965 H         1 RES1    0.0000
     21 C8         5.2456    1.2870    3.7497 C.3       1 RES1    0.0000
     22 H12        5.1295    0.3146    3.7140 H         1 RES1    0.0000
     23 H13        5.6861    1.5739    2.9231 H         1 RES1    0.0000
     24 C9         3.8869    1.9652    3.8724 C.3       1 RES1    0.0000
     25 H14        3.3236    1.7231    3.0961 H         1 RES1    0.0000
@<TRIPOS>BOND
     1    1    2 1
     2    2    3 1
     3    3    4 1
     4    5    3 1
     5    6    5 1
     6    7    5 1
     7    8    5 1
     8    9    8 1
     9   10    8 1
    10   11   10 1
    11   12   10 1
    12   13    2 1
    13   14   13 1
    14   15    3 1
    15   16   15 1
    16   17   15 1
    17   18    8 1
    18   19   18 1
    19   20   18 1
    20   21   13 1
    21   22   21 1
    22   23   21 1
    23   24   15 1
    24   25   24 1
    25   10   13 1
    26   18   24 1
    27   21   24 1
@<TRIPOS>SUBSTRUCTURE
     1 RES1 1

@<TRIPOS>CRYSIN
  11.2663   10.6630   13.2030  90.0000  90.0000  90.0000  61 1

