# MOL2 file generated by ConQuest
# Please check atom types

@<TRIPOS>MOLECULE
PIXLUE
    43    45     1
SMALL
NO_CHARGES
****
Generated from CSD

@<TRIPOS>ATOM
      1 C1         2.9044    5.6830    2.2538 C.3       1 RES1    0.0000
      2 H1         2.8141    4.8053    2.7257 H         1 RES1    0.0000
      3 C2         1.4736    6.2459    2.1926 C.3       1 RES1    0.0000
      4 H2         1.1302    6.3123    3.1289 H         1 RES1    0.0000
      5 C3         0.5643    2.8651    2.1513 C.ar      1 RES1    0.0000
      6 H3         1.2042    2.6862    1.4722 H         1 RES1    0.0000
      7 O1         1.9705    7.8260    0.5054 O.2       1 RES1    0.0000
      8 O2        -0.8970    4.1997   -0.9298 O.2       1 RES1    0.0000
      9 C4         0.5175    5.3140    1.4008 C.3       1 RES1    0.0000
     10 H4        -0.2973    5.8418    1.1613 H         1 RES1    0.0000
     11 C5         1.1549    4.8315    0.1167 C.2       1 RES1    0.0000
     12 C6         2.4740    4.8455   -0.0842 C.2       1 RES1    0.0000
     13 H5         2.7886    4.5168   -0.9186 H         1 RES1    0.0000
     14 C7         3.4991    5.3311    0.8849 C.3       1 RES1    0.0000
     15 H6         3.8983    6.1665    0.5074 H         1 RES1    0.0000
     16 C8         3.8581    6.4993    3.1235 C.ar      1 RES1    0.0000
     17 C9         0.0813    4.1599    2.3160 C.ar      1 RES1    0.0000
     18 C10       -0.8386    4.4052    3.3417 C.ar      1 RES1    0.0000
     19 H7        -1.1623    5.2879    3.4839 H         1 RES1    0.0000
     20 N1         1.4226    7.6306    1.5799 N.pl3     1 RES1    0.0000
     21 C11        0.3072    4.2997   -0.9595 C.2       1 RES1    0.0000
     22 H8         0.7450    4.0081   -1.7510 H         1 RES1    0.0000
     23 C12        4.0683    6.1414    4.4545 C.ar      1 RES1    0.0000
     24 H9         3.5714    5.4226    4.8277 H         1 RES1    0.0000
     25 C13        4.9875    6.8119    5.2441 C.ar      1 RES1    0.0000
     26 H10        5.1090    6.5556    6.1515 H         1 RES1    0.0000
     27 C14        4.5924    7.5659    2.6150 C.ar      1 RES1    0.0000
     28 H11        4.4536    7.8423    1.7169 H         1 RES1    0.0000
     29 C15        0.1199    1.8276    2.9694 C.ar      1 RES1    0.0000
     30 H12        0.4559    0.9470    2.8481 H         1 RES1    0.0000
     31 O3         0.7852    8.4831    2.1806 O.2       1 RES1    0.0000
     32 C16        5.7292    7.8564    4.7152 C.ar      1 RES1    0.0000
     33 H13        6.3707    8.3088    5.2509 H         1 RES1    0.0000
     34 C17       -1.2830    3.3657    4.1534 C.ar      1 RES1    0.0000
     35 H14       -1.9122    3.5397    4.8438 H         1 RES1    0.0000
     36 C18       -0.8148    2.0860    3.9597 C.ar      1 RES1    0.0000
     37 H15       -1.1335    1.3783    4.5068 H         1 RES1    0.0000
     38 C19        5.5247    8.2334    3.3985 C.ar      1 RES1    0.0000
     39 H16        6.0241    8.9522    3.0286 H         1 RES1    0.0000
     40 C20        4.6277    4.3087    1.0353 C.3       1 RES1    0.0000
     41 H17        4.2605    3.4643    1.3699 H         1 RES1    0.0000
     42 H18        5.2947    4.6495    1.6667 H         1 RES1    0.0000
     43 H19        5.0499    4.1589    0.1645 H         1 RES1    0.0000
@<TRIPOS>BOND
     1    1    2 1
     2    3    1 1
     3    4    3 1
     4    5    6 1
     5    7   20 2
     6    8   21 2
     7    9    3 1
     8   10    9 1
     9   11    9 1
    10   12   11 2
    11   13   12 1
    12   14    1 1
    13   15   14 1
    14   16    1 1
    15   17    5 ar
    16   18   17 ar
    17   19   18 1
    18   20    3 1
    19   21   11 1
    20   22   21 1
    21   23   16 ar
    22   24   23 1
    23   25   23 ar
    24   26   25 1
    25   27   16 ar
    26   28   27 1
    27   29    5 ar
    28   30   29 1
    29   31   20 2
    30   32   25 ar
    31   33   32 1
    32   34   18 ar
    33   35   34 1
    34   36   29 ar
    35   37   36 1
    36   38   27 ar
    37   39   38 1
    38   40   14 1
    39   41   40 1
    40   42   40 1
    41   43   40 1
    42    9   17 1
    43   12   14 1
    44   32   38 ar
    45   34   36 ar
@<TRIPOS>SUBSTRUCTURE
     1 RES1 1

@<TRIPOS>CRYSIN
   8.2139   10.0530   20.0570  90.0000  90.0000  90.0000  19 1

