# MOL2 file generated by ConQuest
# Please check atom types

@<TRIPOS>MOLECULE
PIZCEI
    55    53     2
SMALL
NO_CHARGES
****
Generated from CSD

@<TRIPOS>ATOM
      1 O1         0.8091    0.1016    2.5564 O.3       1 RES1    0.0000
      2 O2         2.2452    1.7910    1.0770 O.3       1 RES1    0.0000
      3 C1         0.0934   -0.8526    3.3536 C.3       1 RES1    0.0000
      4 H1         0.5264   -0.9478    4.2057 H         1 RES1    0.0000
      5 H2         0.0823   -1.7012    2.9034 H         1 RES1    0.0000
      6 H3        -0.8075   -0.5489    3.4841 H         1 RES1    0.0000
      7 C2         0.9285    1.3731    3.0317 C.ar      1 RES1    0.0000
      8 C3         1.6695    2.2558    2.2331 C.ar      1 RES1    0.0000
      9 C4         1.9138    3.5719    2.6212 C.ar      1 RES1    0.0000
     10 C5         2.7878    4.4318    1.7253 C.3       1 RES1    0.0000
     11 H4         3.2423    5.0916    2.2725 H         1 RES1    0.0000
     12 H5         3.4650    3.8703    1.3167 H         1 RES1    0.0000
     13 C6         1.3279    1.5919   -0.0210 C.3       1 RES1    0.0000
     14 H6         0.6062    1.0258    0.2629 H         1 RES1    0.0000
     15 H7         1.7901    1.1767   -0.7527 H         1 RES1    0.0000
     16 H8         0.9771    2.4394   -0.3035 H         1 RES1    0.0000
     17 C7         1.3477    3.9665    3.8368 C.ar      1 RES1    0.0000
     18 C8         0.6084    3.1118    4.6248 C.ar      1 RES1    0.0000
     19 H9         0.2588    3.4106    5.4340 H         1 RES1    0.0000
     20 C9         0.3875    1.8147    4.2169 C.ar      1 RES1    0.0000
     21 H10       -0.1244    1.2415    4.7410 H         1 RES1    0.0000
     22 C10        2.0288    5.1407    0.6416 C.2       1 RES1    0.0000
     23 H11        1.3591    5.7315    0.8985 H         1 RES1    0.0000
     24 N1         1.4865    5.3002    4.3300 N.pl3     1 RES1    0.0000
     25 O3         1.6009    6.2206    3.5373 O.2       1 RES1    0.0000
     26 O4         1.4721    5.4602    5.5597 O.2       1 RES1    0.0000
     27 N2         1.5457    5.4784    4.3132 Du        2 SUP2    0.0000
     28 O5         2.5753    6.0799    4.1053 Du        2 SUP2    0.0000
     29 O6         0.6378    6.0353    4.8891 Du        2 SUP2    0.0000
     30 O1B        3.4633   10.0248   -2.5564 O.3       1 RES1    0.0000
     31 O2B        2.0272    8.3354   -1.0770 O.3       1 RES1    0.0000
     32 C1B        4.1790   10.9790   -3.3536 C.3       1 RES1    0.0000
     33 H1B        3.7460   11.0742   -4.2057 H         1 RES1    0.0000
     34 H2B        4.1901   11.8276   -2.9034 H         1 RES1    0.0000
     35 H3B        5.0799   10.6753   -3.4841 H         1 RES1    0.0000
     36 C2B        3.3439    8.7533   -3.0317 C.ar      1 RES1    0.0000
     37 C3B        2.6029    7.8706   -2.2331 C.ar      1 RES1    0.0000
     38 C4B        2.3586    6.5545   -2.6212 C.ar      1 RES1    0.0000
     39 C5B        1.4846    5.6946   -1.7253 C.3       1 RES1    0.0000
     40 H4B        1.0301    5.0348   -2.2725 H         1 RES1    0.0000
     41 H5B        0.8074    6.2561   -1.3167 H         1 RES1    0.0000
     42 C6B        2.9445    8.5345    0.0210 C.3       1 RES1    0.0000
     43 H6B        3.6662    9.1006   -0.2629 H         1 RES1    0.0000
     44 H7B        2.4823    8.9497    0.7527 H         1 RES1    0.0000
     45 H8B        3.2953    7.6870    0.3035 H         1 RES1    0.0000
     46 C7B        2.9247    6.1599   -3.8368 C.ar      1 RES1    0.0000
     47 C8B        3.6640    7.0146   -4.6248 C.ar      1 RES1    0.0000
     48 H9B        4.0136    6.7158   -5.4340 H         1 RES1    0.0000
     49 C9B        3.8849    8.3117   -4.2169 C.ar      1 RES1    0.0000
     50 H10B       4.3968    8.8849   -4.7410 H         1 RES1    0.0000
     51 C10B       2.2436    4.9857   -0.6416 C.2       1 RES1    0.0000
     52 H11B       2.9133    4.3949   -0.8985 H         1 RES1    0.0000
     53 N1B        2.7859    4.8262   -4.3300 N.pl3     1 RES1    0.0000
     54 O3B        2.6715    3.9058   -3.5373 O.2       1 RES1    0.0000
     55 O4B        2.8003    4.6662   -5.5597 O.2       1 RES1    0.0000
@<TRIPOS>BOND
     1    1    3 1
     2    2    8 1
     3    3    4 1
     4    5    3 1
     5    6    3 1
     6    7    1 1
     7    8    7 ar
     8    9    8 ar
     9   10    9 1
    10   11   10 1
    11   12   10 1
    12   13    2 1
    13   14   13 1
    14   15   13 1
    15   16   13 1
    16   17    9 ar
    17   18   17 ar
    18   19   18 1
    19   20    7 ar
    20   21   20 1
    21   22   10 1
    22   23   22 1
    23   24   17 1
    24   25   24 2
    25   26   24 2
    26   30   32 1
    27   31   37 1
    28   32   33 1
    29   34   32 1
    30   35   32 1
    31   36   30 1
    32   37   36 ar
    33   38   37 ar
    34   39   38 1
    35   40   39 1
    36   41   39 1
    37   42   31 1
    38   43   42 1
    39   44   42 1
    40   45   42 1
    41   46   38 ar
    42   47   46 ar
    43   48   47 1
    44   49   36 ar
    45   50   49 1
    46   51   22 2
    47   52   51 1
    48   53   46 1
    49   54   53 2
    50   55   53 2
    51   18   20 ar
    52   39   51 1
    53   47   49 ar
@<TRIPOS>SUBSTRUCTURE
     1 RES1 1
     2 SUP2 27

@<TRIPOS>CRYSIN
   4.2724   10.1264   23.9160  90.0000  92.3380  90.0000  14 1

