# MOL2 file generated by ConQuest
# Please check atom types

@<TRIPOS>MOLECULE
PIZHAH
    21    21     1
SMALL
NO_CHARGES
****
Generated from CSD

@<TRIPOS>ATOM
      1 O1         1.7172    1.1931   12.7798 O.3       1 RES1    0.0000
      2 O2        -0.9053    4.1086   15.6813 O.2       1 RES1    0.0000
      3 O3         3.4837    0.5985   11.6747 O.2       1 RES1    0.0000
      4 O4         2.0339    1.8678   10.6696 O.2       1 RES1    0.0000
      5 N1        -0.0174    3.4067   13.9103 N.3       1 RES1    0.0000
      6 N2         2.4563    1.2312   11.5776 N.pl3     1 RES1    0.0000
      7 N3        -0.5218    4.4179   14.5621 N.2       1 RES1    0.0000
      8 C1         0.3731    3.3018   12.5166 C.3       1 RES1    0.0000
      9 C2         0.3911    1.7652   12.7080 C.3       1 RES1    0.0000
     10 C3        -0.0229    1.9766   14.1848 C.3       1 RES1    0.0000
     11 C4        -0.5443    0.9483   11.8535 C.3       1 RES1    0.0000
     12 C5        -0.5707   -0.5114   12.2449 C.3       1 RES1    0.0000
     13 H1         1.2166    3.6850   12.3110 H         1 RES1    0.0000
     14 H2        -0.2767    3.6158   11.8972 H         1 RES1    0.0000
     15 H3        -0.8733    1.6198   14.4129 H         1 RES1    0.0000
     16 H4         0.6215    1.6921   14.8211 H         1 RES1    0.0000
     17 H5        -0.2645    1.0143   10.9469 H         1 RES1    0.0000
     18 H6        -1.4219    1.3011   11.9394 H         1 RES1    0.0000
     19 H7        -1.1725   -0.9793   11.6775 H         1 RES1    0.0000
     20 H8         0.3003   -0.8783   12.1534 H         1 RES1    0.0000
     21 H9        -0.8571   -0.5915   13.1459 H         1 RES1    0.0000
@<TRIPOS>BOND
     1    1    6 1
     2    2    7 2
     3    3    6 2
     4    4    6 2
     5    5    7 1
     6    8    5 1
     7    9    1 1
     8   10    5 1
     9   11    9 1
    10   12   11 1
    11   13    8 1
    12   14    8 1
    13   15   10 1
    14   16   10 1
    15   17   11 1
    16   18   11 1
    17   19   12 1
    18   20   12 1
    19   21   12 1
    20    8    9 1
    21    9   10 1
@<TRIPOS>SUBSTRUCTURE
     1 RES1 1

@<TRIPOS>CRYSIN
   7.3784    7.7726   14.2170  90.0000  98.0240  90.0000  14 1

