# MOL2 file generated by ConQuest
# Please check atom types

@<TRIPOS>MOLECULE
PIZMEQ
    66    70     1
SMALL
NO_CHARGES
****
Generated from CSD

@<TRIPOS>ATOM
      1 O1         3.0266    4.3374    2.6537 O.2       1 RES1    0.0000
      2 O2         3.3673    3.0519    1.0007 O.2       1 RES1    0.0000
      3 O3        -2.6343    6.4876    1.8891 O.2       1 RES1    0.0000
      4 O4        -0.8682    7.0142    2.9916 O.2       1 RES1    0.0000
      5 O5        -1.6546   -0.8123   -2.2316 O.2       1 RES1    0.0000
      6 N1        -1.4671    6.3013    2.1976 N.pl3     1 RES1    0.0000
      7 N2         2.6052    3.7580    1.6678 N.pl3     1 RES1    0.0000
      8 N3         0.6674    1.3674   -1.2988 N.2       1 RES1    0.0000
      9 N4         1.3161    2.1818   -0.3911 N.3       1 RES1    0.0000
     10 N5        -1.0749    0.6010   -3.8860 N.am      1 RES1    0.0000
     11 C1        -0.2874    4.7856   -5.6763 C.3       1 RES1    0.0000
     12 C2        -0.0448    3.4974   -4.9088 C.3       1 RES1    0.0000
     13 C3         1.3268    0.3239   -1.6382 C.2       1 RES1    0.0000
     14 C4         2.6690   -0.0515   -1.0877 C.3       1 RES1    0.0000
     15 C5         1.5179   -1.9978   -4.6018 C.ar      1 RES1    0.0000
     16 C6         0.5546   -2.3468   -5.5243 C.ar      1 RES1    0.0000
     17 C7         0.4944   -3.6239   -6.0231 C.ar      1 RES1    0.0000
     18 C8         1.3767   -4.5747   -5.5877 C.ar      1 RES1    0.0000
     19 C9         2.3512   -4.2365   -4.7007 C.ar      1 RES1    0.0000
     20 C10        2.4180   -2.9480   -4.2048 C.ar      1 RES1    0.0000
     21 C11       -1.6874    2.1330   -6.2681 C.3       1 RES1    0.0000
     22 C12       -2.6806    2.0054   -5.1450 C.3       1 RES1    0.0000
     23 C13       -2.4736    0.8117   -4.2476 C.3       1 RES1    0.0000
     24 C14       -0.7155    3.4054    0.0044 C.ar      1 RES1    0.0000
     25 C15       -1.3968    4.3825    0.6450 C.ar      1 RES1    0.0000
     26 C16       -0.7743    5.1836    1.5792 C.ar      1 RES1    0.0000
     27 C17        0.5238    4.9622    1.9201 C.ar      1 RES1    0.0000
     28 C18        1.2237    3.9548    1.2766 C.ar      1 RES1    0.0000
     29 C19        0.6442    3.1623    0.2775 C.ar      1 RES1    0.0000
     30 C20        0.8514    1.9535   -6.7079 C.3       1 RES1    0.0000
     31 C21        1.9269    1.2053   -5.9036 C.3       1 RES1    0.0000
     32 C22        1.1334    0.4842   -4.8468 C.2       1 RES1    0.0000
     33 C23       -0.0601    1.0246   -4.7730 C.2       1 RES1    0.0000
     34 C24       -0.2840    2.1993   -5.6955 C.3       1 RES1    0.0000
     35 C25        1.5665   -0.6252   -3.9657 C.3       1 RES1    0.0000
     36 C26        0.7032   -0.5867   -2.6581 C.3       1 RES1    0.0000
     37 C27       -0.7755   -0.2744   -2.9016 C.2       1 RES1    0.0000
     38 H1         2.1957    2.0751   -0.2317 H         1 RES1    0.0000
     39 H2        -0.1242    5.5580   -5.1317 H         1 RES1    0.0000
     40 H3         0.2983    4.8006   -6.4364 H         1 RES1    0.0000
     41 H4        -1.1995    4.7914   -5.9744 H         1 RES1    0.0000
     42 H5        -0.6202    3.4919   -4.1399 H         1 RES1    0.0000
     43 H6         0.8646    3.5011   -4.5974 H         1 RES1    0.0000
     44 H7         2.9430    0.6228   -0.4605 H         1 RES1    0.0000
     45 H8         2.6236   -0.9010   -0.6450 H         1 RES1    0.0000
     46 H9         3.3055   -0.0976   -1.8050 H         1 RES1    0.0000
     47 H10       -0.0675   -1.6804   -5.8254 H         1 RES1    0.0000
     48 H11       -0.1778   -3.8517   -6.6696 H         1 RES1    0.0000
     49 H12        1.3118   -5.4740   -5.9169 H         1 RES1    0.0000
     50 H13        2.9689   -4.9081   -4.4026 H         1 RES1    0.0000
     51 H14        3.1192   -2.7122   -3.5923 H         1 RES1    0.0000
     52 H15       -1.8675    2.8881   -6.8319 H         1 RES1    0.0000
     53 H16       -1.7573    1.3346   -6.7965 H         1 RES1    0.0000
     54 H17       -3.5729    2.0367   -5.4962 H         1 RES1    0.0000
     55 H18       -2.5545    2.7801   -4.5915 H         1 RES1    0.0000
     56 H19       -2.9922    0.8943   -3.4433 H         1 RES1    0.0000
     57 H20       -2.7825    0.0420   -4.7302 H         1 RES1    0.0000
     58 H21       -1.1894    2.8646   -0.6302 H         1 RES1    0.0000
     59 H22       -2.3167    4.5722    0.4457 H         1 RES1    0.0000
     60 H23        0.9566    5.4951    2.5902 H         1 RES1    0.0000
     61 H24        0.5351    1.4085   -7.4326 H         1 RES1    0.0000
     62 H25        1.1878    2.7800   -7.0622 H         1 RES1    0.0000
     63 H26        2.5413    1.8278   -5.5095 H         1 RES1    0.0000
     64 H27        2.4155    0.5914   -6.4570 H         1 RES1    0.0000
     65 H28        2.4788   -0.4728   -3.7060 H         1 RES1    0.0000
     66 H29        0.6994   -1.4757   -2.2935 H         1 RES1    0.0000
@<TRIPOS>BOND
     1    1    7 2
     2    2    7 2
     3    3    6 2
     4    4    6 2
     5    5   37 2
     6    6   26 1
     7    7   28 1
     8    8    9 1
     9    9   29 1
    10   10   23 1
    11   11   12 1
    12   12   34 1
    13   13    8 2
    14   14   13 1
    15   15   16 ar
    16   16   17 ar
    17   17   18 ar
    18   18   19 ar
    19   19   20 ar
    20   20   15 ar
    21   21   22 1
    22   22   23 1
    23   23   56 1
    24   24   25 ar
    25   25   26 ar
    26   26   27 ar
    27   27   28 ar
    28   28   29 ar
    29   29   24 ar
    30   30   31 1
    31   31   32 1
    32   32   33 2
    33   33   10 1
    34   34   21 1
    35   35   15 1
    36   36   13 1
    37   37   10 1
    38   38    9 1
    39   39   11 1
    40   40   11 1
    41   41   11 1
    42   42   12 1
    43   43   12 1
    44   44   14 1
    45   45   14 1
    46   46   14 1
    47   47   16 1
    48   48   17 1
    49   49   18 1
    50   50   19 1
    51   51   20 1
    52   52   21 1
    53   53   21 1
    54   54   22 1
    55   55   22 1
    56   57   23 1
    57   58   24 1
    58   59   25 1
    59   60   27 1
    60   61   30 1
    61   62   30 1
    62   63   31 1
    63   64   31 1
    64   65   35 1
    65   66   36 1
    66   30   34 1
    67   32   35 1
    68   33   34 1
    69   35   36 1
    70   36   37 1
@<TRIPOS>SUBSTRUCTURE
     1 RES1 1

@<TRIPOS>CRYSIN
   8.3440   10.6670   15.3320  86.1500  74.3000  78.0600   2 1

