# MOL2 file generated by ConQuest
# Please check atom types

@<TRIPOS>MOLECULE
PMBSYD
    31    32     1
SMALL
USER_CHARGES
****
Generated from CSD

@<TRIPOS>ATOM
      1 O1         0.6622    7.0458   10.9623 O.3       1 RES1    0.0000
      2 N1        -0.6004    7.5372   10.7096 N.2       1 RES1   -1.0000
      3 N2        -0.7055    7.4533    9.4007 N.pl3     1 RES1    1.0000
      4 C1         0.3739    6.9526    8.7572 C.2       1 RES1    0.0000
      5 C2         1.3230    6.6976    9.7721 C.2       1 RES1    0.0000
      6 O2         2.4643    6.2750    9.8047 O.2       1 RES1    0.0000
      7 C3        -1.9285    7.9726    8.8192 C.ar      1 RES1    0.0000
      8 C4        -3.1386    7.4754    9.2603 C.ar      1 RES1    0.0000
      9 C5        -4.2992    7.9878    8.7005 C.ar      1 RES1    0.0000
     10 C6        -4.2231    8.9682    7.7390 C.ar      1 RES1    0.0000
     11 C7        -3.0029    9.4584    7.3133 C.ar      1 RES1    0.0000
     12 C8        -1.8293    8.9554    7.8523 C.ar      1 RES1    0.0000
     13 C9         0.4818    6.6906    7.3220 C.2       1 RES1    0.0000
     14 C10        1.5687    7.1331    6.6871 C.2       1 RES1    0.0000
     15 C11       -0.5793    5.8208    6.6773 C.3       1 RES1    0.0000
     16 C12       -0.7146    6.0409    5.1855 C.3       1 RES1    0.0000
     17 C13       -0.2712    4.3560    6.9898 C.3       1 RES1    0.0000
     18 H1        -3.1731    6.8234    9.9528 H         1 RES1    0.0000
     19 H2        -5.1548    7.6850    8.9401 H         1 RES1    0.0000
     20 H3        -5.0742    9.2570    7.4265 H         1 RES1    0.0000
     21 H4        -2.9437   10.1536    6.6643 H         1 RES1    0.0000
     22 H5        -0.9729    9.3268    7.5790 H         1 RES1    0.0000
     23 H6         1.7430    6.9282    5.7278 H         1 RES1    0.0000
     24 H7         2.3229    7.7316    7.1434 H         1 RES1    0.0000
     25 H8        -1.4283    6.0782    7.1325 H         1 RES1    0.0000
     26 H9         0.1364    5.7288    4.7042 H         1 RES1    0.0000
     27 H10       -1.3643    5.3446    4.8893 H         1 RES1    0.0000
     28 H11       -1.1008    6.8932    5.1289 H         1 RES1    0.0000
     29 H12       -0.1518    4.1453    7.8730 H         1 RES1    0.0000
     30 H13        0.6373    4.1802    6.5445 H         1 RES1    0.0000
     31 H14       -1.0520    3.7261    6.6969 H         1 RES1    0.0000
@<TRIPOS>BOND
     1    1    2 1
     2    2    3 1
     3    3    4 2
     4    4    5 1
     5    5    1 1
     6    6    5 2
     7    7    3 1
     8    8    7 ar
     9    9    8 ar
    10   10    9 ar
    11   11   10 ar
    12   12    7 ar
    13   13    4 1
    14   14   13 2
    15   15   13 1
    16   16   15 1
    17   17   15 1
    18   18    8 1
    19   19    9 1
    20   20   10 1
    21   21   11 1
    22   22   12 1
    23   23   14 1
    24   24   14 1
    25   25   15 1
    26   26   16 1
    27   27   16 1
    28   28   16 1
    29   29   17 1
    30   30   17 1
    31   31   17 1
    32   11   12 ar
@<TRIPOS>SUBSTRUCTURE
     1 RES1 1

@<TRIPOS>CRYSIN
   9.7320   11.6440   12.0980  90.0000 115.8300  90.0000  14 1

