# MOL2 file generated by ConQuest
# Please check atom types

@<TRIPOS>MOLECULE
PMOXMB
    45    46     1
SMALL
NO_CHARGES
****
Generated from CSD

@<TRIPOS>ATOM
      1 C1       -14.1722   -4.8157    3.3734 C.ar      1 RES1    0.0000
      2 C2       -12.9222   -5.2287    2.9389 C.ar      1 RES1    0.0000
      3 C3       -11.8037   -4.7861    3.6122 C.ar      1 RES1    0.0000
      4 C4       -11.8774   -3.9725    4.7259 C.ar      1 RES1    0.0000
      5 C5       -13.1393   -3.6111    5.1376 C.ar      1 RES1    0.0000
      6 C6       -14.2904   -3.9987    4.4898 C.ar      1 RES1    0.0000
      7 C7       -15.3424   -5.2155    2.5344 C.2       1 RES1    0.0000
      8 C8       -17.6264   -4.7937    2.0342 C.3       1 RES1    0.0000
      9 C9       -18.8145   -4.3956    2.8518 C.3       1 RES1    0.0000
     10 C10      -20.2466   -4.7290    2.3609 C.3       1 RES1    0.0000
     11 C11      -20.4657   -5.1617    3.8410 C.3       1 RES1    0.0000
     12 C12      -21.0644   -3.5740    1.8138 C.3       1 RES1    0.0000
     13 C13      -20.3132   -5.9007    1.3849 C.3       1 RES1    0.0000
     14 C14      -21.0827   -6.5011    4.1633 C.3       1 RES1    0.0000
     15 C15      -21.0880   -4.0882    4.7231 C.3       1 RES1    0.0000
     16 C16      -17.4735   -3.9068    0.8161 C.3       1 RES1    0.0000
     17 O1       -16.4573   -4.5873    2.9048 O.3       1 RES1    0.0000
     18 O2       -19.0074   -5.1811    4.0489 O.3       1 RES1    0.0000
     19 O3       -15.2582   -5.9959    1.6203 O.2       1 RES1    0.0000
     20 O4       -10.4188   -5.9030    2.1318 O.2       1 RES1    0.0000
     21 O5        -9.4982   -4.6707    3.6333 O.2       1 RES1    0.0000
     22 O6       -14.3191   -2.6871    6.8983 O.2       1 RES1    0.0000
     23 O7       -12.2596   -2.0759    6.6185 O.2       1 RES1    0.0000
     24 N1       -10.4773   -5.1484    3.0918 N.pl3     1 RES1    0.0000
     25 N2       -13.2453   -2.7306    6.3128 N.pl3     1 RES1    0.0000
     26 H1       -12.8099   -5.7858    2.1524 H         1 RES1    0.0000
     27 H2       -11.1049   -3.6755    5.1507 H         1 RES1    0.0000
     28 H3       -15.1151   -3.7019    4.8059 H         1 RES1    0.0000
     29 H4       -17.6682   -5.7686    1.8342 H         1 RES1    0.0000
     30 H5       -18.6924   -3.3969    3.0863 H         1 RES1    0.0000
     31 H6       -21.2902   -6.1738    1.2475 H         1 RES1    0.0000
     32 H7       -20.0390   -5.5498    0.4664 H         1 RES1    0.0000
     33 H8       -19.7972   -6.7371    1.6536 H         1 RES1    0.0000
     34 H9       -21.0632   -6.6905    5.2051 H         1 RES1    0.0000
     35 H10      -22.0576   -6.4626    3.8280 H         1 RES1    0.0000
     36 H11      -20.5855   -7.1393    3.6521 H         1 RES1    0.0000
     37 H12      -21.0065   -4.3867    5.6414 H         1 RES1    0.0000
     38 H13      -22.1322   -4.1010    4.4656 H         1 RES1    0.0000
     39 H14      -20.6243   -3.1821    4.6450 H         1 RES1    0.0000
     40 H15      -18.1967   -3.9815    0.2430 H         1 RES1    0.0000
     41 H16      -16.7365   -4.1750    0.3772 H         1 RES1    0.0000
     42 H17      -17.5189   -2.8883    1.0172 H         1 RES1    0.0000
     43 H18      -22.0307   -3.7991    1.7636 H         1 RES1    0.0000
     44 H19      -20.7258   -3.3716    0.8691 H         1 RES1    0.0000
     45 H20      -21.0274   -2.8336    2.3433 H         1 RES1    0.0000
@<TRIPOS>BOND
     1    1    2 ar
     2    2    3 ar
     3    3    4 ar
     4    4    5 ar
     5    5    6 ar
     6    6    1 ar
     7    7    1 1
     8    8    9 1
     9    9   10 1
    10   10   11 1
    11   11   14 1
    12   12   10 1
    13   13   10 1
    14   14   34 1
    15   15   11 1
    16   16    8 1
    17   17    7 1
    18   18    9 1
    19   19    7 2
    20   20   24 2
    21   21   24 2
    22   22   25 2
    23   23   25 2
    24   24    3 1
    25   25    5 1
    26   26    2 1
    27   27    4 1
    28   28    6 1
    29   29    8 1
    30   30    9 1
    31   31   13 1
    32   32   13 1
    33   33   13 1
    34   35   14 1
    35   36   14 1
    36   37   15 1
    37   38   15 1
    38   39   15 1
    39   40   16 1
    40   41   16 1
    41   42   16 1
    42   43   12 1
    43   44   12 1
    44   45   12 1
    45    8   17 1
    46   11   18 1
@<TRIPOS>SUBSTRUCTURE
     1 RES1 1

@<TRIPOS>CRYSIN
  29.8600   10.1310   11.5720  90.0000  90.0000  90.0000  61 1

