# MOL2 file generated by ConQuest
# Please check atom types

@<TRIPOS>MOLECULE
PNOIZD
    28    30     1
SMALL
NO_CHARGES
****
Generated from CSD

@<TRIPOS>ATOM
      1 O1         6.2136   -0.0203    1.8465 O.2       1 RES1    0.0000
      2 O2         5.8218    0.4819   -0.2221 O.2       1 RES1    0.0000
      3 N1         5.0496    1.4025    3.9049 N.3       1 RES1    0.0000
      4 N2         5.6731    0.6746    0.9816 N.pl3     1 RES1    0.0000
      5 C1         4.5160    2.0315    5.0061 C.2       1 RES1    0.0000
      6 C2         3.7074    3.0688    4.6178 C.2       1 RES1    0.0000
      7 C3         3.1479    3.8576    2.1791 C.ar      1 RES1    0.0000
      8 C4         3.3961    3.5989    0.8457 C.ar      1 RES1    0.0000
      9 C5         4.2263    2.5514    0.4543 C.ar      1 RES1    0.0000
     10 C6         4.8264    1.7627    1.4135 C.ar      1 RES1    0.0000
     11 C7         4.6120    2.0163    2.7743 C.ar      1 RES1    0.0000
     12 C8         3.7558    3.0866    3.1667 C.ar      1 RES1    0.0000
     13 C9         2.8945    3.9108    5.5050 C.ar      1 RES1    0.0000
     14 C10        2.4837    3.4340    6.7583 C.ar      1 RES1    0.0000
     15 C11        1.6474    4.1949    7.5594 C.ar      1 RES1    0.0000
     16 C12        1.1830    5.4275    7.1416 C.ar      1 RES1    0.0000
     17 C13        1.5964    5.9144    5.9319 C.ar      1 RES1    0.0000
     18 C14        2.4578    5.1815    5.1227 C.ar      1 RES1    0.0000
     19 H1         5.5953    0.7862    3.9343 H         1 RES1    0.0000
     20 H2         4.7737    1.6993    5.9319 H         1 RES1    0.0000
     21 H3         2.5685    4.5905    2.4235 H         1 RES1    0.0000
     22 H4         3.0527    4.1847    0.1420 H         1 RES1    0.0000
     23 H5         4.4105    2.4094   -0.4360 H         1 RES1    0.0000
     24 H6         2.7155    2.5616    6.9865 H         1 RES1    0.0000
     25 H7         1.3318    3.8804    8.3452 H         1 RES1    0.0000
     26 H8         0.5448    5.9093    7.7165 H         1 RES1    0.0000
     27 H9         1.2713    6.7717    5.6074 H         1 RES1    0.0000
     28 H10        2.7328    5.6050    4.2994 H         1 RES1    0.0000
@<TRIPOS>BOND
     1    1    4 2
     2    2    4 2
     3    3    5 1
     4    4   10 1
     5    5    6 2
     6    6   12 1
     7    7    8 ar
     8    8    9 ar
     9    9   10 ar
    10   10   11 ar
    11   11    3 1
    12   12    7 ar
    13   13    6 1
    14   14   13 ar
    15   15   14 ar
    16   16   15 ar
    17   17   16 ar
    18   18   13 ar
    19   19    3 1
    20   20    5 1
    21   21    7 1
    22   22    8 1
    23   23    9 1
    24   24   14 1
    25   25   15 1
    26   26   16 1
    27   27   17 1
    28   28   18 1
    29   11   12 ar
    30   17   18 ar
@<TRIPOS>SUBSTRUCTURE
     1 RES1 1

@<TRIPOS>CRYSIN
   8.6480   25.3620   10.1400  90.0000  90.0000  90.0000  61 1

