# MOL2 file generated by ConQuest
# Please check atom types

@<TRIPOS>MOLECULE
PNOIZA
    28    30     1
SMALL
NO_CHARGES
****
Generated from CSD

@<TRIPOS>ATOM
      1 O1         2.7490   -0.0889    1.9756 O.2       1 RES1    0.0000
      2 O2         4.7609    0.6355    1.7739 O.2       1 RES1    0.0000
      3 N1         3.5735    0.8055    2.0057 N.pl3     1 RES1    0.0000
      4 N2         3.5576    4.4303    2.4549 N.pl3     1 RES1    0.0000
      5 C1         2.2260    6.0178    3.2787 C.2       1 RES1    0.0000
      6 C2         3.4150    6.6351    2.7879 C.2       1 RES1    0.0000
      7 C3         4.2187    5.6334    2.2920 C.2       1 RES1    0.0000
      8 C4         3.9639    3.1645    2.1248 C.2       1 RES1    0.0000
      9 C5         3.1253    2.1419    2.3774 C.2       1 RES1    0.0000
     10 C6         1.8405    2.3119    2.9716 C.2       1 RES1    0.0000
     11 C7         1.4579    3.5647    3.3182 C.2       1 RES1    0.0000
     12 C8         2.3032    4.6814    3.0764 C.2       1 RES1    0.0000
     13 C9         3.7215    8.0761    2.7520 C.ar      1 RES1    0.0000
     14 C10        2.7798    9.0228    3.1811 C.ar      1 RES1    0.0000
     15 C11        3.0314   10.3854    3.0742 C.ar      1 RES1    0.0000
     16 C12        4.2437   10.8353    2.5568 C.ar      1 RES1    0.0000
     17 C13        5.1930    9.9068    2.1564 C.ar      1 RES1    0.0000
     18 C14        4.9408    8.5521    2.2475 C.ar      1 RES1    0.0000
     19 H1         1.4959    6.5906    3.7172 H         1 RES1    0.0000
     20 H2         5.0916    5.6229    1.8586 H         1 RES1    0.0000
     21 H3         4.7990    3.0573    1.6792 H         1 RES1    0.0000
     22 H4         1.2733    1.5038    3.1144 H         1 RES1    0.0000
     23 H5         0.6321    3.7059    3.8463 H         1 RES1    0.0000
     24 H6         1.9069    8.7482    3.5808 H         1 RES1    0.0000
     25 H7         2.2738   11.0340    3.4301 H         1 RES1    0.0000
     26 H8         4.4166   11.8029    2.4398 H         1 RES1    0.0000
     27 H9         5.9991   10.2102    1.7796 H         1 RES1    0.0000
     28 H10        5.5869    7.9506    1.9303 H         1 RES1    0.0000
@<TRIPOS>BOND
     1    1    3 2
     2    2    3 2
     3    3    9 1
     4    4    7 1
     5    5    6 1
     6    6    7 2
     7    7   20 1
     8    8    4 1
     9    9    8 2
    10   10    9 1
    11   11   10 2
    12   12    4 1
    13   13    6 1
    14   14   13 ar
    15   15   14 ar
    16   16   15 ar
    17   17   16 ar
    18   18   13 ar
    19   19    5 1
    20   21    8 1
    21   22   10 1
    22   23   11 1
    23   24   14 1
    24   25   15 1
    25   26   16 1
    26   27   17 1
    27   28   18 1
    28    5   12 2
    29   11   12 1
    30   17   18 ar
@<TRIPOS>SUBSTRUCTURE
     1 RES1 1

@<TRIPOS>CRYSIN
   5.8710   26.4880    7.1760  90.0000  90.0000  99.1200  14 3

