# MOL2 file generated by ConQuest
# Please check atom types

@<TRIPOS>MOLECULE
POCVOU
    48    50     1
SMALL
NO_CHARGES
****
Generated from CSD

@<TRIPOS>ATOM
      1 O1        -1.7220    8.1517   19.4054 O.3       1 RES1    0.0000
      2 N1        -0.5455    7.3004   19.5281 N.3       1 RES1    0.0000
      3 C1        -1.6308    8.6823   18.0701 C.3       1 RES1    0.0000
      4 O2         0.9587    4.7841   19.0002 O.3       1 RES1    0.0000
      5 C2        -0.9934    7.5311   17.2708 C.3       1 RES1    0.0000
      6 H1        -0.1961    7.8343   16.8087 H         1 RES1    0.0000
      7 H2        -1.6187    7.1791   16.6183 H         1 RES1    0.0000
      8 N2        -1.8528    4.4888   17.2831 N.pl3     1 RES1    0.0000
      9 C3        -0.6391    6.4573   18.3221 C.3       1 RES1    0.0000
     10 O3         2.9365    5.8002   18.5871 O.3       1 RES1    0.0000
     11 O4        -2.3119    4.9282   16.2873 O.2       1 RES1    0.0000
     12 C4        -0.6859    6.6820   20.8479 C.3       1 RES1    0.0000
     13 H3        -0.6101    7.3571   21.5275 H         1 RES1    0.0000
     14 H4         0.0056    6.0278   20.9691 H         1 RES1    0.0000
     15 H5        -1.5437    6.2575   20.9120 H         1 RES1    0.0000
     16 C5        -3.0527    8.9935   17.6619 C.3       1 RES1    0.0000
     17 H6        -3.5724    8.1862   17.6695 H         1 RES1    0.0000
     18 H7        -3.0567    9.3674   16.7770 H         1 RES1    0.0000
     19 H8        -3.4320    9.6239   18.2787 H         1 RES1    0.0000
     20 O5        -1.5259    3.3455   17.4115 O.2       1 RES1    0.0000
     21 C6        -0.7545    9.9122   18.0814 C.3       1 RES1    0.0000
     22 H9         0.1356    9.6686   18.3464 H         1 RES1    0.0000
     23 H10       -1.1087   10.5524   18.7017 H         1 RES1    0.0000
     24 H11       -0.7327   10.2969   17.2021 H         1 RES1    0.0000
     25 C7        -1.7495    5.3975   18.4735 C.3       1 RES1    0.0000
     26 H12       -1.5727    4.8646   19.2643 H         1 RES1    0.0000
     27 H13       -2.6000    5.8469   18.6023 H         1 RES1    0.0000
     28 C8         0.6859    5.7823   18.0105 C.3       1 RES1    0.0000
     29 H14        0.6222    5.3488   17.1344 H         1 RES1    0.0000
     30 C9         1.9464    6.6373   18.0458 C.3       1 RES1    0.0000
     31 H15        2.1917    6.9256   17.1535 H         1 RES1    0.0000
     32 H16        1.8156    7.4197   18.6023 H         1 RES1    0.0000
     33 C10        2.3636    4.5495   18.9769 C.3       1 RES1    0.0000
     34 C11        2.8324    4.1836   20.3515 C.3       1 RES1    0.0000
     35 H17        2.5467    4.8616   20.9839 H         1 RES1    0.0000
     36 H18        3.8015    4.1488   20.3642 H         1 RES1    0.0000
     37 C12        2.2667    2.8285   20.7686 C.3       1 RES1    0.0000
     38 H19        2.6299    2.5859   21.6354 H         1 RES1    0.0000
     39 H20        1.3040    2.9001   20.8591 H         1 RES1    0.0000
     40 C13        2.5927    1.7438   19.7730 C.3       1 RES1    0.0000
     41 H21        2.1578    0.9196   20.0406 H         1 RES1    0.0000
     42 H22        3.5506    1.5897   19.7656 H         1 RES1    0.0000
     43 C14        2.1328    2.1296   18.3823 C.3       1 RES1    0.0000
     44 H23        1.1636    2.1693   18.3633 H         1 RES1    0.0000
     45 H24        2.4168    1.4515   17.7499 H         1 RES1    0.0000
     46 C15        2.7033    3.4817   17.9678 C.3       1 RES1    0.0000
     47 H25        3.6668    3.4121   17.8853 H         1 RES1    0.0000
     48 H26        2.3442    3.7312   17.1027 H         1 RES1    0.0000
@<TRIPOS>BOND
     1    1    2 1
     2    2    9 1
     3    3    1 1
     4    4   28 1
     5    5    3 1
     6    6    5 1
     7    7    5 1
     8    8   11 2
     9    9    5 1
    10   10   30 1
    11   12    2 1
    12   13   12 1
    13   14   12 1
    14   15   12 1
    15   16    3 1
    16   17   16 1
    17   18   16 1
    18   19   16 1
    19   20    8 2
    20   21    3 1
    21   22   21 1
    22   23   21 1
    23   24   21 1
    24   25    8 1
    25   26   25 1
    26   27   25 1
    27   28    9 1
    28   29   28 1
    29   30   28 1
    30   31   30 1
    31   32   30 1
    32   33    4 1
    33   34   33 1
    34   35   34 1
    35   36   34 1
    36   37   34 1
    37   38   37 1
    38   39   37 1
    39   40   37 1
    40   41   40 1
    41   42   40 1
    42   43   40 1
    43   44   43 1
    44   45   43 1
    45   46   33 1
    46   47   46 1
    47   48   46 1
    48    9   25 1
    49   10   33 1
    50   43   46 1
@<TRIPOS>SUBSTRUCTURE
     1 RES1 1

@<TRIPOS>CRYSIN
   8.0695    9.9420   21.1510  90.0000  90.0000  90.0000  19 1

