# MOL2 file generated by ConQuest
# Please check atom types

@<TRIPOS>MOLECULE
PODLID
    41    42     1
SMALL
NO_CHARGES
****
Generated from CSD

@<TRIPOS>ATOM
      1 O1        14.4568    1.9050    9.5274 O.2       1 RES1    0.0000
      2 O2        12.9037    3.0556    8.5681 O.2       1 RES1    0.0000
      3 O3         6.0416    1.5834   18.6777 O.3       1 RES1    0.0000
      4 O4        -6.4585    2.2860   32.4260 O.3       1 RES1    0.0000
      5 O5        -4.3532    2.0498   32.6745 O.2       1 RES1    0.0000
      6 O6        -6.9275    2.5672   29.1295 O.3       1 RES1    0.0000
      7 O7        -5.9677    0.6111   29.6353 O.2       1 RES1    0.0000
      8 N1        13.3483    2.3546    9.4969 N.pl3     1 RES1    0.0000
      9 N2        10.0511    1.6688   13.9925 N.2       1 RES1    0.0000
     10 N3         8.8622    2.1184   13.9685 N.2       1 RES1    0.0000
     11 C1        12.4598    2.1793   10.6219 C.ar      1 RES1    0.0000
     12 C2        12.9076    1.5011   11.7163 C.ar      1 RES1    0.0000
     13 C3        12.0877    1.3640   12.7868 C.ar      1 RES1    0.0000
     14 C4        10.7838    1.8745   12.8021 C.ar      1 RES1    0.0000
     15 C5        10.3188    2.5451   11.6989 C.ar      1 RES1    0.0000
     16 C6        11.1923    2.7432   10.6132 C.ar      1 RES1    0.0000
     17 C7         8.1837    1.9126   15.1981 C.ar      1 RES1    0.0000
     18 C8         8.6487    1.2573   16.3013 C.ar      1 RES1    0.0000
     19 C9         7.9270    1.1506   17.4284 C.ar      1 RES1    0.0000
     20 C10        6.6064    1.7374   17.4655 C.ar      1 RES1    0.0000
     21 C11        6.1291    2.3927   16.4147 C.ar      1 RES1    0.0000
     22 C12        6.9013    2.4841   15.2526 C.ar      1 RES1    0.0000
     23 C13        4.7473    2.1869   18.8892 C.3       1 RES1    0.0000
     24 C14        4.3653    1.8821   20.3455 C.3       1 RES1    0.0000
     25 C15        3.0820    2.5146   20.7794 C.3       1 RES1    0.0000
     26 C16        2.7639    2.2327   22.2750 C.3       1 RES1    0.0000
     27 C17        1.4836    2.8499   22.7612 C.3       1 RES1    0.0000
     28 C18        1.1983    2.5222   24.2154 C.3       1 RES1    0.0000
     29 C19       -0.1342    3.0175   24.7190 C.3       1 RES1    0.0000
     30 C20       -0.3802    2.6213   26.1536 C.3       1 RES1    0.0000
     31 C21       -1.7540    3.0099   26.6855 C.3       1 RES1    0.0000
     32 C22       -1.9970    2.5603   28.1157 C.3       1 RES1    0.0000
     33 C23       -3.3892    2.8880   28.6194 C.3       1 RES1    0.0000
     34 C24       -3.6240    2.4232   30.0474 C.3       1 RES1    0.0000
     35 C25       -5.0522    2.6137   30.5488 C.3       1 RES1    0.0000
     36 C26       -5.3139    2.3165   32.0096 C.2       1 RES1    0.0000
     37 C27       -6.7314    1.9736   33.9499 C.3       1 RES1    0.0000
     38 C28       -7.6481    1.8745   34.3053 C.3       1 RES1    0.0000
     39 C29       -6.0161    1.8288   29.7182 C.2       1 RES1    0.0000
     40 C30       -7.8645    1.8440   28.3229 C.3       1 RES1    0.0000
     41 C31       -8.7138    2.8880   27.7647 C.3       1 RES1    0.0000
@<TRIPOS>BOND
     1    1    8 2
     2    2    8 2
     3    3   20 1
     4    4   36 1
     5    5   36 2
     6    6   39 1
     7    7   39 2
     8    8   11 1
     9    9   10 2
    10   10   17 1
    11   11   12 ar
    12   12   13 ar
    13   13   14 ar
    14   14    9 1
    15   15   14 ar
    16   16   11 ar
    17   17   18 ar
    18   18   19 ar
    19   19   20 ar
    20   20   21 ar
    21   21   22 ar
    22   22   17 ar
    23   23    3 1
    24   24   23 1
    25   25   24 1
    26   26   25 1
    27   27   26 1
    28   28   27 1
    29   29   28 1
    30   30   29 1
    31   31   30 1
    32   32   31 1
    33   33   32 1
    34   34   33 1
    35   35   34 1
    36   36   35 1
    37   37    4 1
    38   38   37 1
    39   39   35 1
    40   40    6 1
    41   41   40 1
    42   15   16 ar
@<TRIPOS>SUBSTRUCTURE
     1 RES1 1

@<TRIPOS>CRYSIN
  19.2350    7.6200   22.4000  90.0000 103.2700  90.0000  14 1

