# MOL2 file generated by ConQuest
# Please check atom types

@<TRIPOS>MOLECULE
POFHID
    47    49     1
SMALL
NO_CHARGES
****
Generated from CSD

@<TRIPOS>ATOM
      1 C1         3.0464    2.0746    1.1545 C.ar      1 RES1    0.0000
      2 C2         2.2595    0.9932    0.7848 C.ar      1 RES1    0.0000
      3 H1         2.3478    0.6355   -0.0692 H         1 RES1    0.0000
      4 C3         1.3445    0.4369    1.6637 C.ar      1 RES1    0.0000
      5 H2         0.8169   -0.2774    1.3878 H         1 RES1    0.0000
      6 C4         1.2065    0.9327    2.9491 C.ar      1 RES1    0.0000
      7 C5         1.9808    2.0240    3.3173 C.ar      1 RES1    0.0000
      8 H3         1.8905    2.3852    4.1692 H         1 RES1    0.0000
      9 C6         2.8844    2.5816    2.4347 C.ar      1 RES1    0.0000
     10 H4         3.3943    3.3108    2.7040 H         1 RES1    0.0000
     11 C7         4.0676    2.6686    0.2160 C.3       1 RES1    0.0000
     12 H5         4.5120    3.4011    0.6493 H         1 RES1    0.0000
     13 H6         3.6278    2.9843   -0.5767 H         1 RES1    0.0000
     14 H7         4.7121    1.9985   -0.0211 H         1 RES1    0.0000
     15 C8         1.5102    0.9002    8.7397 C.3       1 RES1    0.0000
     16 H8         2.0897    0.4961    9.3897 H         1 RES1    0.0000
     17 H9         0.6052    0.8748    9.0580 H         1 RES1    0.0000
     18 H10        1.7750    1.8115    8.5985 H         1 RES1    0.0000
     19 C9        -3.2828    4.7581    5.3135 C.3       1 RES1    0.0000
     20 H11       -3.9758    4.2395    5.7304 H         1 RES1    0.0000
     21 H12       -3.6490    5.2427    4.5700 H         1 RES1    0.0000
     22 H13       -2.9180    5.3759    5.9507 H         1 RES1    0.0000
     23 C10       -1.0654    4.6456    4.1599 C.3       1 RES1    0.0000
     24 H14       -1.4247    5.1318    3.4143 H         1 RES1    0.0000
     25 H15       -0.3730    4.0557    3.8527 H         1 RES1    0.0000
     26 H16       -0.7003    5.2618    4.7986 H         1 RES1    0.0000
     27 C11        0.2383    0.3040    3.9558 C.3       1 RES1    0.0000
     28 H17       -0.2226   -0.4453    3.5233 H         1 RES1    0.0000
     29 C12        0.9514   -0.2083    5.1757 C.2       1 RES1    0.0000
     30 C13        0.9374    0.4647    6.3936 C.2       1 RES1    0.0000
     31 C14       -0.7458    1.9177    5.5662 C.2       1 RES1    0.0000
     32 C15       -1.6137    3.0430    6.0111 C.3       1 RES1    0.0000
     33 H18       -1.0990    3.6420    6.5743 H         1 RES1    0.0000
     34 H19       -2.3478    2.6927    6.5403 H         1 RES1    0.0000
     35 C16       -2.1772    3.8265    4.8184 C.3       1 RES1    0.0000
     36 C17       -2.7564    2.8347    3.8120 C.3       1 RES1    0.0000
     37 H20       -3.5694    2.4597    4.1844 H         1 RES1    0.0000
     38 H21       -3.0006    3.3203    3.0088 H         1 RES1    0.0000
     39 C18       -1.8431    1.7036    3.4258 C.2       1 RES1    0.0000
     40 C19       -0.7856    1.3189    4.3820 C.2       1 RES1    0.0000
     41 N1         1.6028    0.1694    7.4876 N.pl3     1 RES1    0.0000
     42 H22        2.1326   -0.5072    7.4604 H         1 RES1    0.0000
     43 N2         1.7263   -1.3448    5.0235 N.pl3     1 RES1    0.0000
     44 O1         0.1663    1.5687    6.5492 O.3       1 RES1    0.0000
     45 O2        -1.9783    1.0894    2.3845 O.2       1 RES1    0.0000
     46 O3         2.4236   -1.7858    5.9791 O.2       1 RES1    0.0000
     47 O4         1.7196   -1.9270    3.9263 O.2       1 RES1    0.0000
@<TRIPOS>BOND
     1    1    2 ar
     2    2    3 1
     3    4    2 ar
     4    5    4 1
     5    6    4 ar
     6    7    6 ar
     7    8    7 1
     8    9    1 ar
     9   10    9 1
    10   11    1 1
    11   12   11 1
    12   13   11 1
    13   14   11 1
    14   15   16 1
    15   17   15 1
    16   18   15 1
    17   19   20 1
    18   21   19 1
    19   22   19 1
    20   23   24 1
    21   25   23 1
    22   26   23 1
    23   27    6 1
    24   28   27 1
    25   29   27 1
    26   30   29 2
    27   31   32 1
    28   32   33 1
    29   34   32 1
    30   35   19 1
    31   36   35 1
    32   37   36 1
    33   38   36 1
    34   39   36 1
    35   40   27 1
    36   41   15 1
    37   42   41 1
    38   43   29 1
    39   44   30 1
    40   45   39 2
    41   46   43 2
    42   47   43 2
    43    7    9 ar
    44   23   35 1
    45   30   41 1
    46   31   40 2
    47   31   44 1
    48   32   35 1
    49   39   40 1
@<TRIPOS>SUBSTRUCTURE
     1 RES1 1

@<TRIPOS>CRYSIN
   9.4373   15.8487   12.1414  90.0000 105.1220  90.0000  14 1

