# MOL2 file generated by ConQuest
# Please check atom types

@<TRIPOS>MOLECULE
POHHUR
    37    39     1
SMALL
NO_CHARGES
****
Generated from CSD

@<TRIPOS>ATOM
      1 C1         7.3568    1.2954    1.1214 C.3       1 RES1    0.0000
      2 C2         8.0258    0.8539    2.4514 C.3       1 RES1    0.0000
      3 C3         8.1671   -0.6814    2.5214 C.3       1 RES1    0.0000
      4 H1         8.6589   -0.9273    3.3327 H         1 RES1    0.0000
      5 H2         8.6546   -1.0006    1.7335 H         1 RES1    0.0000
      6 H3         7.2769   -1.0902    2.5419 H         1 RES1    0.0000
      7 C4         7.2985    1.3721    3.6797 C.3       1 RES1    0.0000
      8 H4         7.7835    1.0983    4.4862 H         1 RES1    0.0000
      9 H5         6.3911    1.0016    3.7034 H         1 RES1    0.0000
     10 H6         7.2510    2.3504    3.6427 H         1 RES1    0.0000
     11 C5         9.4088    1.4401    2.1896 C.2       1 RES1    0.0000
     12 C6        10.4704    1.7474    3.1706 C.ar      1 RES1    0.0000
     13 C7        11.3671    2.7891    2.9001 C.ar      1 RES1    0.0000
     14 H7        11.2713    3.3011    2.1057 H         1 RES1    0.0000
     15 C8        12.3969    3.0775    3.7877 C.ar      1 RES1    0.0000
     16 H8        13.0065    3.7795    3.5947 H         1 RES1    0.0000
     17 C9        12.5364    2.3401    4.9590 C.ar      1 RES1    0.0000
     18 H9        13.2421    2.5376    5.5631 H         1 RES1    0.0000
     19 C10       11.6462    1.3165    5.2440 C.ar      1 RES1    0.0000
     20 H10       11.7415    0.8153    6.0455 H         1 RES1    0.0000
     21 C11       10.6127    1.0213    4.3589 C.ar      1 RES1    0.0000
     22 H11       10.0010    0.3237    4.5629 H         1 RES1    0.0000
     23 C12        6.2961    0.3759    0.5530 C.ar      1 RES1    0.0000
     24 C13        6.6242   -0.6957   -0.2820 C.ar      1 RES1    0.0000
     25 H12        7.5298   -0.8408   -0.5304 H         1 RES1    0.0000
     26 C14        5.6352   -1.5511   -0.7523 C.ar      1 RES1    0.0000
     27 H13        5.8690   -2.2862   -1.3069 H         1 RES1    0.0000
     28 C15        4.3030   -1.3319   -0.4127 C.ar      1 RES1    0.0000
     29 H14        3.6246   -1.9076   -0.7461 H         1 RES1    0.0000
     30 C16        3.9707   -0.2658    0.4171 C.ar      1 RES1    0.0000
     31 H15        3.0627   -0.1160    0.6534 H         1 RES1    0.0000
     32 C17        4.9614    0.5815    0.9016 C.ar      1 RES1    0.0000
     33 H16        4.7278    1.3039    1.4730 H         1 RES1    0.0000
     34 N1         9.6427    1.6295    0.9378 N.2       1 RES1    0.0000
     35 O1         8.4787    1.2936    0.1925 O.3       1 RES1    0.0000
     36 O2         6.9015    2.6017    1.2909 O.3       1 RES1    0.0000
     37 H17        6.4708    2.8390    0.6103 H         1 RES1    0.0000
@<TRIPOS>BOND
     1    1    2 1
     2    2    3 1
     3    3    4 1
     4    5    3 1
     5    6    3 1
     6    7    2 1
     7    8    7 1
     8    9    7 1
     9   10    7 1
    10   11    2 1
    11   12   11 1
    12   13   12 ar
    13   14   13 1
    14   15   13 ar
    15   16   15 1
    16   17   15 ar
    17   18   17 1
    18   19   17 ar
    19   20   19 1
    20   21   12 ar
    21   22   21 1
    22   23    1 1
    23   24   23 ar
    24   25   24 1
    25   26   24 ar
    26   27   26 1
    27   28   26 ar
    28   29   28 1
    29   30   28 ar
    30   31   30 1
    31   32   23 ar
    32   33   32 1
    33   34   11 2
    34   35    1 1
    35   36    1 1
    36   37   36 1
    37   19   21 ar
    38   30   32 ar
    39   34   35 1
@<TRIPOS>SUBSTRUCTURE
     1 RES1 1

@<TRIPOS>CRYSIN
   8.6589   10.1791   15.9766  90.0000  90.0000  90.0000  19 1

