# MOL2 file generated by ConQuest
# Please check atom types

@<TRIPOS>MOLECULE
POJTOX
    38    41     1
SMALL
NO_CHARGES
****
Generated from CSD

@<TRIPOS>ATOM
      1 O1         1.4395    0.7085    3.8016 O.3       1 RES1    0.0000
      2 N1         2.5840   -0.1071    3.5965 N.2       1 RES1    0.0000
      3 C1         3.2974    0.4020    2.6712 C.2       1 RES1    0.0000
      4 C2         2.7261    1.6377    2.0597 C.3       1 RES1    0.0000
      5 C3         1.5767    1.9370    2.9947 C.3       1 RES1    0.0000
      6 C4         0.2470    2.2352    2.3614 C.ar      1 RES1    0.0000
      7 C5        -0.3356    1.3357    1.4808 C.ar      1 RES1    0.0000
      8 C6        -1.5883    1.5839    0.9512 C.ar      1 RES1    0.0000
      9 C7        -2.2682    2.7334    1.2895 C.ar      1 RES1    0.0000
     10 C8        -1.6854    3.6478    2.1387 C.ar      1 RES1    0.0000
     11 C9        -0.4278    3.3990    2.6735 C.ar      1 RES1    0.0000
     12 O2         6.0462    1.2357    1.1317 O.3       1 RES1    0.0000
     13 C10        5.3376    0.4372    0.2862 C.2       1 RES1    0.0000
     14 N2         4.5551   -0.4322    0.7790 N.2       1 RES1    0.0000
     15 C11        4.5914   -0.2285    2.2449 C.3       1 RES1    0.0000
     16 C12        5.7778    0.7178    2.4636 C.3       1 RES1    0.0000
     17 C13        5.5175    0.7222   -1.1504 C.ar      1 RES1    0.0000
     18 C14        6.1931    1.8453   -1.5825 C.ar      1 RES1    0.0000
     19 C15        6.3013    2.1172   -2.9410 C.ar      1 RES1    0.0000
     20 C16        5.7380    1.2654   -3.8635 C.ar      1 RES1    0.0000
     21 C17        5.0706    0.1422   -3.4369 C.ar      1 RES1    0.0000
     22 C18        4.9533   -0.1395   -2.0911 C.ar      1 RES1    0.0000
     23 H1         3.3705    2.3725    2.0031 H         1 RES1    0.0000
     24 H2         2.4298    1.4554    1.1244 H         1 RES1    0.0000
     25 H3         1.8120    2.6746    3.5889 H         1 RES1    0.0000
     26 H4         0.1034    0.5437    1.2464 H         1 RES1    0.0000
     27 H5        -1.9757    1.0160    0.4049 H         1 RES1    0.0000
     28 H6        -3.1539    2.9053    0.9529 H         1 RES1    0.0000
     29 H7        -2.1541    4.4650    2.4026 H         1 RES1    0.0000
     30 H8        -0.0282    4.0806    3.2689 H         1 RES1    0.0000
     31 H9         4.7159   -1.0819    2.7120 H         1 RES1    0.0000
     32 H10        5.5924    1.5103    3.0568 H         1 RES1    0.0000
     33 H11        6.6011    0.2362    2.7332 H         1 RES1    0.0000
     34 H12        6.6180    2.4330   -0.9971 H         1 RES1    0.0000
     35 H13        6.7662    2.8833   -3.2318 H         1 RES1    0.0000
     36 H14        5.8662    1.4389   -4.8123 H         1 RES1    0.0000
     37 H15        4.7184   -0.4943   -4.0574 H         1 RES1    0.0000
     38 H16        4.4902   -0.9062   -1.7556 H         1 RES1    0.0000
@<TRIPOS>BOND
     1    1    2 1
     2    2    3 2
     3    3    4 1
     4    4    5 1
     5    5    1 1
     6    6    5 1
     7    7    6 ar
     8    8    7 ar
     9    9    8 ar
    10   10    9 ar
    11   11    6 ar
    12   12   13 1
    13   13   14 2
    14   14   15 1
    15   15    3 1
    16   16   12 1
    17   17   13 1
    18   18   17 ar
    19   19   18 ar
    20   20   19 ar
    21   21   20 ar
    22   22   17 ar
    23   23    4 1
    24   24    4 1
    25   25    5 1
    26   26    7 1
    27   27    8 1
    28   28    9 1
    29   29   10 1
    30   30   11 1
    31   31   15 1
    32   32   16 1
    33   33   16 1
    34   34   18 1
    35   35   19 1
    36   36   20 1
    37   37   21 1
    38   38   22 1
    39   10   11 ar
    40   15   16 1
    41   21   22 ar
@<TRIPOS>SUBSTRUCTURE
     1 RES1 1

@<TRIPOS>CRYSIN
  14.6240    5.4920   17.7090  90.0000  93.3100  90.0000 231 1

