# MOL2 file generated by ConQuest
# Please check atom types

@<TRIPOS>MOLECULE
POJTIR
    45    49     1
SMALL
NO_CHARGES
****
Generated from CSD

@<TRIPOS>ATOM
      1 O1         5.9857    4.2759    0.5294 O.3       1 RES1    0.0000
      2 C1         4.8045    4.2833    1.1953 C.2       1 RES1    0.0000
      3 N1         4.2695    3.1602    1.4847 N.2       1 RES1    0.0000
      4 C2         5.1421    2.1191    0.9112 C.3       1 RES1    0.0000
      5 C3         6.3829    2.8883    0.4093 C.3       1 RES1    0.0000
      6 C4         5.4165    1.0240    1.8861 C.2       1 RES1    0.0000
      7 N2         5.3262   -0.2236    1.4778 N.2       1 RES1    0.0000
      8 O2         5.5962   -1.0681    2.5710 O.3       1 RES1    0.0000
      9 O3         5.1762   -0.8225    0.6109 O.2       1 RES1    0.0000
     10 C5         4.2443    5.6044    1.4961 C.2       1 RES1    0.0000
     11 C6         4.8034    6.7503    0.9488 C.2       1 RES1    0.0000
     12 C7         4.2456    7.9876    1.2403 C.2       1 RES1    0.0000
     13 C8         3.1561    8.0793    2.0794 C.2       1 RES1    0.0000
     14 C9         2.6078    6.9424    2.6327 C.2       1 RES1    0.0000
     15 C10        3.1443    5.7016    2.3434 C.2       1 RES1    0.0000
     16 H1         4.6898    1.5838    0.0915 H         1 RES1    0.0000
     17 H2         6.6051    2.6373   -0.6170 H         1 RES1    0.0000
     18 H3         7.2422    2.6776    1.0253 H         1 RES1    0.0000
     19 H4         5.6645    6.6800    0.3024 H         1 RES1    0.0000
     20 H5         4.6672    8.8834    0.8083 H         1 RES1    0.0000
     21 H6         2.7314    9.0448    2.3036 H         1 RES1    0.0000
     22 H7         1.7587    7.0210    3.2930 H         1 RES1    0.0000
     23 H8         2.7119    4.8102    2.7736 H         1 RES1    0.0000
     24 C4A        5.7759    1.0240    3.2559 C.2       1 RES1    0.0000
     25 N2A        5.8662   -0.2236    3.6642 N.2       1 RES1    0.0000
     26 C2A        6.0503    2.1191    4.2309 C.3       1 RES1    0.0000
     27 O3A        6.0162   -0.8225    4.5312 O.2       1 RES1    0.0000
     28 N1A        6.9229    3.1602    3.6573 N.2       1 RES1    0.0000
     29 C3A        4.8095    2.8883    4.7327 C.3       1 RES1    0.0000
     30 H1A        6.5026    1.5838    5.0505 H         1 RES1    0.0000
     31 C1A        6.3879    4.2833    3.9467 C.2       1 RES1    0.0000
     32 O1A        5.2067    4.2759    4.6126 O.3       1 RES1    0.0000
     33 H2A        4.5873    2.6373    5.7591 H         1 RES1    0.0000
     34 H3A        3.9502    2.6776    4.1167 H         1 RES1    0.0000
     35 C5A        6.9481    5.6044    3.6459 C.2       1 RES1    0.0000
     36 C6A        6.3890    6.7503    4.1932 C.2       1 RES1    0.0000
     37 C10A       8.0481    5.7016    2.7986 C.2       1 RES1    0.0000
     38 C7A        6.9468    7.9876    3.9018 C.2       1 RES1    0.0000
     39 H4A        5.5279    6.6800    4.8397 H         1 RES1    0.0000
     40 C9A        8.5845    6.9424    2.5093 C.2       1 RES1    0.0000
     41 H8A        8.4805    4.8102    2.3684 H         1 RES1    0.0000
     42 C8A        8.0363    8.0793    3.0626 C.2       1 RES1    0.0000
     43 H5A        6.5252    8.8834    4.3337 H         1 RES1    0.0000
     44 H7A        9.4337    7.0210    1.8491 H         1 RES1    0.0000
     45 H6A        8.4610    9.0448    2.8384 H         1 RES1    0.0000
@<TRIPOS>BOND
     1    1    2 1
     2    2    3 1
     3    3    4 1
     4    4    5 1
     5    5    1 1
     6    6    4 1
     7    7    6 1
     8    8    7 1
     9    9    7 1
    10   10    2 1
    11   11   10 1
    12   12   11 1
    13   13   12 1
    14   14   13 1
    15   15   10 1
    16   16    4 1
    17   17    5 1
    18   18    5 1
    19   19   11 1
    20   20   12 1
    21   21   13 1
    22   22   14 1
    23   23   15 1
    24   24    6 1
    25   25    8 1
    26   26   24 1
    27   27   25 1
    28   28   26 1
    29   29   26 1
    30   30   26 1
    31   31   28 1
    32   32   29 1
    33   33   29 1
    34   34   29 1
    35   35   31 1
    36   36   35 1
    37   37   35 1
    38   38   36 1
    39   39   36 1
    40   40   37 1
    41   41   37 1
    42   42   38 1
    43   43   38 1
    44   44   40 1
    45   45   42 1
    46   14   15 1
    47   24   25 1
    48   31   32 1
    49   40   42 1
@<TRIPOS>SUBSTRUCTURE
     1 RES1 1

@<TRIPOS>CRYSIN
  13.6450   12.2210   11.3940  90.0000 115.5000  90.0000  15 1

