# MOL2 file generated by ConQuest
# Please check atom types

@<TRIPOS>MOLECULE
POJWER
    48    52     1
SMALL
NO_CHARGES
****
Generated from CSD

@<TRIPOS>ATOM
      1 O1         0.6848    0.7819    8.0241 O.3       1 RES1    0.0000
      2 O2         5.4467    0.7064    8.5910 O.3       1 RES1    0.0000
      3 O3         5.5416   -1.2015    6.3235 O.2       1 RES1    0.0000
      4 O4         1.7168   -2.6580   10.6763 O.3       1 RES1    0.0000
      5 O5         2.3505   -0.0825   10.4374 O.2       1 RES1    0.0000
      6 O6         2.6773    1.9183    8.5853 O.3       1 RES1    0.0000
      7 N1        -0.1928    1.9084    7.9948 N.2       1 RES1    0.0000
      8 C1         1.9374    1.2131    7.5833 C.3       1 RES1    0.0000
      9 C2         2.0282    1.7384    6.1744 C.3       1 RES1    0.0000
     10 H1         1.9624    2.7165    6.1872 H         1 RES1    0.0000
     11 H2         1.2767    1.3921    5.6499 H         1 RES1    0.0000
     12 C3         3.3438    1.3280    5.5081 C.3       1 RES1    0.0000
     13 H3         3.2711    0.3994    5.2046 H         1 RES1    0.0000
     14 H4         3.4903    1.8903    4.7193 H         1 RES1    0.0000
     15 C4         4.5417    1.4521    6.4332 C.3       1 RES1    0.0000
     16 H5         4.5946    2.3693    6.7753 H         1 RES1    0.0000
     17 H6         5.3617    1.2680    5.9295 H         1 RES1    0.0000
     18 C5         4.4358    0.4780    7.6049 C.3       1 RES1    0.0000
     19 C6         4.7365   -0.9785    7.2031 C.2       1 RES1    0.0000
     20 C7         4.0916   -2.0815    7.9731 C.ar      1 RES1    0.0000
     21 C8         4.4848   -3.3855    7.6708 C.ar      1 RES1    0.0000
     22 H7         5.1112   -3.5418    6.9880 H         1 RES1    0.0000
     23 C9         3.9553   -4.4401    8.3718 C.ar      1 RES1    0.0000
     24 H8         4.2299   -5.3152    8.1674 H         1 RES1    0.0000
     25 C10        3.0222   -4.2365    9.3778 C.ar      1 RES1    0.0000
     26 H9         2.6583   -4.9717    9.8370 H         1 RES1    0.0000
     27 C11        2.6215   -2.9380    9.7097 C.ar      1 RES1    0.0000
     28 C12        3.1702   -1.8380    9.0168 C.ar      1 RES1    0.0000
     29 C13        2.8104   -0.4394    9.3692 C.2       1 RES1    0.0000
     30 C14        3.0761    0.5653    8.2719 C.3       1 RES1    0.0000
     31 C15       -1.3277    1.5706    8.3801 C.2       1 RES1    0.0000
     32 H10       -1.4927    0.6802    8.6337 H         1 RES1    0.0000
     33 H11       -2.0205    2.2056    8.4170 H         1 RES1    0.0000
     34 C16        1.1521   -3.7276   11.4376 C.3       1 RES1    0.0000
     35 H12        1.8630   -4.2383   11.8781 H         1 RES1    0.0000
     36 H13        0.6551   -4.3329   10.8485 H         1 RES1    0.0000
     37 C17        0.2306   -3.1365   12.4641 C.ar      1 RES1    0.0000
     38 C18        0.1074   -1.7695   12.6632 C.ar      1 RES1    0.0000
     39 H14        0.6279   -1.1774   12.1517 H         1 RES1    0.0000
     40 C19       -0.7772   -1.2624   13.6106 C.ar      1 RES1    0.0000
     41 H15       -0.8549   -0.3325   13.7324 H         1 RES1    0.0000
     42 C20       -1.5403   -2.1267   14.3706 C.ar      1 RES1    0.0000
     43 H16       -2.1409   -1.7888   15.0096 H         1 RES1    0.0000
     44 C21       -1.4179   -3.4765   14.1888 C.ar      1 RES1    0.0000
     45 H17       -1.9333   -4.0668   14.7070 H         1 RES1    0.0000
     46 C22       -0.5409   -3.9773   13.2491 C.ar      1 RES1    0.0000
     47 H18       -0.4650   -4.9071   13.1393 H         1 RES1    0.0000
     48 H19        5.2529    1.4441    9.0072 H         1 RES1    0.0000
@<TRIPOS>BOND
     1    1    7 1
     2    2   18 1
     3    3   19 2
     4    4   27 1
     5    5   29 2
     6    6    8 1
     7    7   31 2
     8    8    1 1
     9    9    8 1
    10   10    9 1
    11   11    9 1
    12   12    9 1
    13   13   12 1
    14   14   12 1
    15   15   12 1
    16   16   15 1
    17   17   15 1
    18   18   15 1
    19   19   18 1
    20   20   19 1
    21   21   20 ar
    22   22   21 1
    23   23   21 ar
    24   24   23 1
    25   25   23 ar
    26   26   25 1
    27   27   25 ar
    28   28   20 ar
    29   29   28 1
    30   30    6 1
    31   31   32 1
    32   33   31 1
    33   34    4 1
    34   35   34 1
    35   36   34 1
    36   37   34 1
    37   38   37 ar
    38   39   38 1
    39   40   38 ar
    40   41   40 1
    41   42   40 ar
    42   43   42 1
    43   44   42 ar
    44   45   44 1
    45   46   37 ar
    46   47   46 1
    47   48    2 1
    48    8   30 1
    49   18   30 1
    50   27   28 ar
    51   29   30 1
    52   44   46 ar
@<TRIPOS>SUBSTRUCTURE
     1 RES1 1

@<TRIPOS>CRYSIN
   9.6600    9.9480   10.4800 107.2100  90.4700 101.3000   2 1

