# MOL2 file generated by ConQuest
# Please check atom types

@<TRIPOS>MOLECULE
POKPOU
    54    57     1
SMALL
NO_CHARGES
****
Generated from CSD

@<TRIPOS>ATOM
      1 O1         6.3381    7.8720   17.7024 O.3       1 RES1    0.0000
      2 O2        10.4783    9.7079   13.1956 O.2       1 RES1    0.0000
      3 O3         4.2106    7.8657   15.7282 O.3       1 RES1    0.0000
      4 O4         2.3898    7.0295   16.7591 O.2       1 RES1    0.0000
      5 O5         5.0655   11.6817   14.9136 O.3       1 RES1    0.0000
      6 O6         9.3906   11.4941   12.4163 O.3       1 RES1    0.0000
      7 O7         4.4772    8.5473   18.8164 O.3       1 RES1    0.0000
      8 O8         8.2743   10.4707   21.8248 O.2       1 RES1    0.0000
      9 O9         6.0282   10.3991   21.7373 O.3       1 RES1    0.0000
     10 N1         7.5906    8.2056   17.0778 N.3       1 RES1    0.0000
     11 N2         7.1712    9.3799   20.1304 N.am      1 RES1    0.0000
     12 N3         3.8726    5.6849   15.6914 N.am      1 RES1    0.0000
     13 C1         7.4198    9.1965   16.0630 C.ar      1 RES1    0.0000
     14 C2         8.4826    9.3566   15.1755 C.ar      1 RES1    0.0000
     15 C3         8.3964   10.3112   14.1764 C.ar      1 RES1    0.0000
     16 C4         7.2639   11.1220   14.0482 C.ar      1 RES1    0.0000
     17 C5         6.2149   10.9423   14.9377 C.ar      1 RES1    0.0000
     18 C6         6.2721    9.9813   15.9570 C.ar      1 RES1    0.0000
     19 C7         5.1096    9.8049   16.9140 C.3       1 RES1    0.0000
     20 C8         5.5964    9.0446   18.1315 C.3       1 RES1    0.0000
     21 C9         6.4728    9.9465   18.9728 C.3       1 RES1    0.0000
     22 C10        7.9602    9.7635   18.9550 C.3       1 RES1    0.0000
     23 C11        8.5134    8.6200   18.1493 C.3       1 RES1    0.0000
     24 C12        9.5380   10.4504   13.2240 C.2       1 RES1    0.0000
     25 C13        3.8976    9.1847   16.2201 C.3       1 RES1    0.0000
     26 C14        3.3920    6.8645   16.1239 C.2       1 RES1    0.0000
     27 C15        4.8757   12.5624   13.8089 C.3       1 RES1    0.0000
     28 C16       10.4087   11.7120   11.4170 C.3       1 RES1    0.0000
     29 C17        4.6772    7.5803   19.8268 C.3       1 RES1    0.0000
     30 C18        5.9259   11.1557   22.9519 C.3       1 RES1    0.0000
     31 C19        7.2529   10.1499   21.2849 C.2       1 RES1    0.0000
     32 H1         9.2747    8.7147   15.1140 H         1 RES1    0.0000
     33 H2         4.7859    5.5641   15.2727 H         1 RES1    0.0000
     34 H3         3.4725    4.7770   16.0640 H         1 RES1    0.0000
     35 H4         7.3767   11.9324   13.2885 H         1 RES1    0.0000
     36 H5         4.7444   10.8662   17.1800 H         1 RES1    0.0000
     37 H6         6.1625   10.9762   19.2652 H         1 RES1    0.0000
     38 H7         8.5466   10.6761   19.0512 H         1 RES1    0.0000
     39 H8         9.4561    8.7968   17.6730 H         1 RES1    0.0000
     40 H9         8.7080    7.7566   18.7433 H         1 RES1    0.0000
     41 H10        3.1828    9.1178   16.8457 H         1 RES1    0.0000
     42 H11        3.6350    9.7329   15.4964 H         1 RES1    0.0000
     43 H12        3.9342   13.0186   13.9571 H         1 RES1    0.0000
     44 H13        4.8844   11.9574   12.8411 H         1 RES1    0.0000
     45 H14        5.6201   13.4967   13.7502 H         1 RES1    0.0000
     46 H15       11.2669   11.8514   11.8141 H         1 RES1    0.0000
     47 H16       10.4772   10.9612   10.8184 H         1 RES1    0.0000
     48 H17       10.2064   12.4875   10.8761 H         1 RES1    0.0000
     49 H18        3.8903    7.1824   20.1070 H         1 RES1    0.0000
     50 H19        5.2379    6.8694   19.6453 H         1 RES1    0.0000
     51 H20        5.4453    7.7035   20.4967 H         1 RES1    0.0000
     52 H21        6.7393   11.6163   23.1039 H         1 RES1    0.0000
     53 H22        5.7596   10.5561   23.6739 H         1 RES1    0.0000
     54 H23        5.2126   11.7694   22.8754 H         1 RES1    0.0000
@<TRIPOS>BOND
     1    1   10 1
     2    2   24 2
     3    3   25 1
     4    4   26 2
     5    5   17 1
     6    6   24 1
     7    7   20 1
     8    8   31 2
     9    9   30 1
    10   10   13 1
    11   11   21 1
    12   12   26 1
    13   13   14 ar
    14   14   15 ar
    15   15   16 ar
    16   16   17 ar
    17   17   18 ar
    18   18   13 ar
    19   19   18 1
    20   20    1 1
    21   21   20 1
    22   22   11 1
    23   23   10 1
    24   24   15 1
    25   25   19 1
    26   26    3 1
    27   27    5 1
    28   28    6 1
    29   29    7 1
    30   30   52 1
    31   31    9 1
    32   32   14 1
    33   33   12 1
    34   34   12 1
    35   35   16 1
    36   36   19 1
    37   37   21 1
    38   38   22 1
    39   39   23 1
    40   40   23 1
    41   41   25 1
    42   42   25 1
    43   43   27 1
    44   44   27 1
    45   45   27 1
    46   46   28 1
    47   47   28 1
    48   48   28 1
    49   49   29 1
    50   50   29 1
    51   51   29 1
    52   53   30 1
    53   54   30 1
    54   11   31 1
    55   19   20 1
    56   21   22 1
    57   22   23 1
@<TRIPOS>SUBSTRUCTURE
     1 RES1 1

@<TRIPOS>CRYSIN
   8.5200   10.0020   24.0900  90.0000  93.2400  90.0000  14 1

