# MOL2 file generated by ConQuest
# Please check atom types

@<TRIPOS>MOLECULE
POKPUA
    54    57     1
SMALL
NO_CHARGES
****
Generated from CSD

@<TRIPOS>ATOM
      1 O1        10.9373    6.9246    4.5481 O.3       1 RES1    0.0000
      2 O2         8.4452    0.9234    7.2448 O.2       1 RES1    0.0000
      3 O3         8.6224    6.1836    2.7517 O.3       1 RES1    0.0000
      4 O4         6.7721    6.0265    1.4805 O.2       1 RES1    0.0000
      5 O5         6.4434    5.4629    5.7965 O.3       1 RES1    0.0000
      6 O6        10.4444    1.6093    7.9262 O.3       1 RES1    0.0000
      7 O7         9.8115    8.8265    4.0791 O.3       1 RES1    0.0000
      8 O8         9.8968    8.1845    9.7776 O.2       1 RES1    0.0000
      9 O9         8.2326    8.7282    8.3809 O.3       1 RES1    0.0000
     10 N1        11.2156    5.8919    5.4995 N.3       1 RES1    0.0000
     11 N2         9.9290    7.5608    7.5639 N.am      1 RES1    0.0000
     12 N3         8.7253    5.0760    0.8389 N.am      1 RES1    0.0000
     13 C1        10.0363    5.1579    5.8364 C.ar      1 RES1    0.0000
     14 C2        10.2306    3.8994    6.3915 C.ar      1 RES1    0.0000
     15 C3         9.1334    3.1422    6.7479 C.ar      1 RES1    0.0000
     16 C4         7.8405    3.6249    6.5492 C.ar      1 RES1    0.0000
     17 C5         7.6664    4.8794    6.0002 C.ar      1 RES1    0.0000
     18 C6         8.7632    5.6646    5.6077 C.ar      1 RES1    0.0000
     19 C7         8.5629    7.0462    5.0196 C.3       1 RES1    0.0000
     20 C8         9.8936    7.8061    5.0227 C.3       1 RES1    0.0000
     21 C9        10.2761    8.3558    6.3846 C.3       1 RES1    0.0000
     22 C10       11.3345    7.6925    7.1979 C.3       1 RES1    0.0000
     23 C11       11.9692    6.4744    6.6204 C.3       1 RES1    0.0000
     24 C12        9.2799    1.7760    7.3154 C.2       1 RES1    0.0000
     25 C13        7.8739    7.0150    3.6667 C.3       1 RES1    0.0000
     26 C14        7.9480    5.7790    1.6569 C.2       1 RES1    0.0000
     27 C15        5.2747    4.7003    6.1051 C.3       1 RES1    0.0000
     28 C16       10.6922    0.3018    8.4661 C.3       1 RES1    0.0000
     29 C17       10.9793    9.6464    3.9318 C.3       1 RES1    0.0000
     30 C18        7.5262    9.3791    9.4516 C.3       1 RES1    0.0000
     31 C19        9.4098    8.1971    8.6808 C.2       1 RES1    0.0000
     32 H1         9.6290    4.9258    1.0641 H         1 RES1    0.0000
     33 H2         8.3625    4.7388    0.0307 H         1 RES1    0.0000
     34 H3        11.1106    3.5588    6.5179 H         1 RES1    0.0000
     35 H4         7.0926    3.0969    6.7867 H         1 RES1    0.0000
     36 H5         7.9785    7.5109    5.6193 H         1 RES1    0.0000
     37 H6        10.1963    9.3017    6.4835 H         1 RES1    0.0000
     38 H7        11.8835    8.2572    7.7532 H         1 RES1    0.0000
     39 H8        12.0471    5.8283    7.3132 H         1 RES1    0.0000
     40 H9        12.8402    6.7122    6.3151 H         1 RES1    0.0000
     41 H10        7.8243    7.9071    3.3096 H         1 RES1    0.0000
     42 H11        6.9888    6.6775    3.7506 H         1 RES1    0.0000
     43 H12        4.5009    5.2150    5.9068 H         1 RES1    0.0000
     44 H13        5.2695    3.9150    5.5533 H         1 RES1    0.0000
     45 H14        5.2840    4.4532    7.0081 H         1 RES1    0.0000
     46 H15       10.0450    0.0770    9.1243 H         1 RES1    0.0000
     47 H16       10.6987   -0.3531    7.7858 H         1 RES1    0.0000
     48 H17       11.5645    0.2915    8.9001 H         1 RES1    0.0000
     49 H18       11.7109    9.1174    3.6389 H         1 RES1    0.0000
     50 H19       10.8080   10.3178    3.2529 H         1 RES1    0.0000
     51 H20       11.1882   10.0788    4.7384 H         1 RES1    0.0000
     52 H21        8.0639   10.1115    9.8034 H         1 RES1    0.0000
     53 H22        6.7004    9.7289    9.1680 H         1 RES1    0.0000
     54 H23        7.3804    8.7719   10.1819 H         1 RES1    0.0000
@<TRIPOS>BOND
     1    1   10 1
     2    2   24 2
     3    3   25 1
     4    4   26 2
     5    5   17 1
     6    6   24 1
     7    7   20 1
     8    8   31 2
     9    9   30 1
    10   10   13 1
    11   11   21 1
    12   12   26 1
    13   13   14 ar
    14   14   15 ar
    15   15   16 ar
    16   16   17 ar
    17   17   18 ar
    18   18   13 ar
    19   19   18 1
    20   20    1 1
    21   21   20 1
    22   22   11 1
    23   23   10 1
    24   24   15 1
    25   25   19 1
    26   26    3 1
    27   27    5 1
    28   28    6 1
    29   29    7 1
    30   30   52 1
    31   31    9 1
    32   32   12 1
    33   33   12 1
    34   34   14 1
    35   35   16 1
    36   36   19 1
    37   37   21 1
    38   38   22 1
    39   39   23 1
    40   40   23 1
    41   41   25 1
    42   42   25 1
    43   43   27 1
    44   44   27 1
    45   45   27 1
    46   46   28 1
    47   47   28 1
    48   48   28 1
    49   49   29 1
    50   50   29 1
    51   51   29 1
    52   53   30 1
    53   54   30 1
    54   11   31 1
    55   19   20 1
    56   21   22 1
    57   22   23 1
@<TRIPOS>SUBSTRUCTURE
     1 RES1 1

@<TRIPOS>CRYSIN
  10.1800   10.9790    9.8260 108.2100 100.1200  71.0500   2 1

