# MOL2 file generated by ConQuest
# Please check atom types

@<TRIPOS>MOLECULE
POLQIS
    57    60     1
SMALL
NO_CHARGES
****
Generated from CSD

@<TRIPOS>ATOM
      1 O1        -2.1694   10.5347    2.4737 O.3       1 RES1    0.0000
      2 O2        -4.4273   13.3676    5.6269 O.3       1 RES1    0.0000
      3 O3        -1.8091   14.3042    5.5719 O.3       1 RES1    0.0000
      4 O4        -2.3486   12.8500    7.2350 O.3       1 RES1    0.0000
      5 O5         0.1097   12.0860    6.1412 O.2       1 RES1    0.0000
      6 O6        -0.1483    9.0300    5.8848 O.3       1 RES1    0.0000
      7 O7         4.3777    7.7166    5.3624 O.3       1 RES1    0.0000
      8 O8         3.3758   10.1236    1.1805 O.3       1 RES1    0.0000
      9 O9         2.2089   11.8639    2.2134 O.3       1 RES1    0.0000
     10 N1        -0.8877    9.8708    2.4895 N.2       1 RES1    0.0000
     11 C1        -2.2417   11.3238    3.5554 C.2       1 RES1    0.0000
     12 C2        -3.4458   12.0142    3.9104 C.2       1 RES1    0.0000
     13 H1        -4.2291   11.9695    3.3744 H         1 RES1    0.0000
     14 C3        -3.4004   12.7309    5.0508 C.2       1 RES1    0.0000
     15 C4        -2.1136   12.9648    5.8596 C.3       1 RES1    0.0000
     16 C5        -0.8950   12.0548    5.4572 C.2       1 RES1    0.0000
     17 C6        -1.0665   11.2779    4.2549 C.2       1 RES1    0.0000
     18 C7        -0.2687   10.3227    3.5510 C.2       1 RES1    0.0000
     19 C8        -5.7201   13.1969    5.0084 C.3       1 RES1    0.0000
     20 H2        -6.3886   13.7212    5.4982 H         1 RES1    0.0000
     21 H3        -5.9692   12.2498    5.0279 H         1 RES1    0.0000
     22 H4        -5.6814   13.5051    4.0790 H         1 RES1    0.0000
     23 C9        -0.7040   14.8986    6.2723 C.3       1 RES1    0.0000
     24 H5        -0.8066   15.8728    6.2769 H         1 RES1    0.0000
     25 H6         0.1339   14.6612    5.8235 H         1 RES1    0.0000
     26 H7        -0.6862   14.5678    7.1947 H         1 RES1    0.0000
     27 C10       -2.6469   11.5164    7.6446 C.3       1 RES1    0.0000
     28 H8        -1.8452   10.9594    7.5554 H         1 RES1    0.0000
     29 H9        -3.3607   11.1521    7.0801 H         1 RES1    0.0000
     30 H10       -2.9403   11.5200    8.5794 H         1 RES1    0.0000
     31 C11        1.0229    9.7210    3.9650 C.ar      1 RES1    0.0000
     32 C12        1.0331    9.0312    5.1968 C.ar      1 RES1    0.0000
     33 C13        2.1711    8.3758    5.6330 C.ar      1 RES1    0.0000
     34 H11        2.1724    7.9174    6.4649 H         1 RES1    0.0000
     35 C14        3.3158    8.3956    4.8380 C.ar      1 RES1    0.0000
     36 C15        3.3345    9.0624    3.6197 C.ar      1 RES1    0.0000
     37 H12        4.1209    9.0706    3.0871 H         1 RES1    0.0000
     38 C16        2.1788    9.7231    3.1869 C.ar      1 RES1    0.0000
     39 C17       -0.2515    8.1921    7.0381 C.3       1 RES1    0.0000
     40 H13        0.3948    8.4867    7.7138 H         1 RES1    0.0000
     41 H14       -0.0617    7.2635    6.7860 H         1 RES1    0.0000
     42 H15       -1.1579    8.2531    7.4054 H         1 RES1    0.0000
     43 C18        5.5526    7.5828    4.5715 C.3       1 RES1    0.0000
     44 H16        5.9603    8.4633    4.4405 H         1 RES1    0.0000
     45 H17        5.3187    7.1992    3.7014 H         1 RES1    0.0000
     46 H18        6.1883    6.9949    5.0288 H         1 RES1    0.0000
     47 C19        2.2181   10.4912    1.8786 C.3       1 RES1    0.0000
     48 H19        1.4098   10.2704    1.3324 H         1 RES1    0.0000
     49 C20        3.5194   10.8645   -0.0442 C.3       1 RES1    0.0000
     50 H20        2.7658   10.6558   -0.6506 H         1 RES1    0.0000
     51 H21        4.3605   10.6033   -0.4955 H         1 RES1    0.0000
     52 C21        3.5393   12.3459    0.2490 C.3       1 RES1    0.0000
     53 H22        3.5617   12.8600   -0.5975 H         1 RES1    0.0000
     54 H23        4.3453   12.5768    0.7762 H         1 RES1    0.0000
     55 C22        2.2898   12.6924    1.0331 C.3       1 RES1    0.0000
     56 H24        2.3141   13.6453    1.2962 H         1 RES1    0.0000
     57 H25        1.4898   12.5476    0.4677 H         1 RES1    0.0000
@<TRIPOS>BOND
     1    1   10 1
     2    2   14 1
     3    3   15 1
     4    4   15 1
     5    5   16 2
     6    6   32 1
     7    7   35 1
     8    8   47 1
     9    9   47 1
    10   10   18 2
    11   11    1 1
    12   12   11 1
    13   13   12 1
    14   14   12 2
    15   15   14 1
    16   16   15 1
    17   17   11 2
    18   18   17 1
    19   19    2 1
    20   20   19 1
    21   21   19 1
    22   22   19 1
    23   23    3 1
    24   24   23 1
    25   25   23 1
    26   26   23 1
    27   27    4 1
    28   28   27 1
    29   29   27 1
    30   30   27 1
    31   31   18 1
    32   32   31 ar
    33   33   32 ar
    34   34   33 1
    35   35   33 ar
    36   36   35 ar
    37   37   36 1
    38   38   31 ar
    39   39    6 1
    40   40   39 1
    41   41   39 1
    42   42   39 1
    43   43    7 1
    44   44   43 1
    45   45   43 1
    46   46   43 1
    47   47   38 1
    48   48   47 1
    49   49    8 1
    50   50   49 1
    51   51   49 1
    52   52   49 1
    53   53   52 1
    54   54   52 1
    55   55    9 1
    56   56   55 1
    57   57   55 1
    58   16   17 1
    59   36   38 ar
    60   52   55 1
@<TRIPOS>SUBSTRUCTURE
     1 RES1 1

@<TRIPOS>CRYSIN
   8.6568   29.1940    8.5290  90.0000  98.8410  90.0000  14 1

