# MOL2 file generated by ConQuest
# Please check atom types

@<TRIPOS>MOLECULE
POLQEO
    59    62     1
SMALL
NO_CHARGES
****
Generated from CSD

@<TRIPOS>ATOM
      1 O1        27.3957    8.6027    1.8375 O.3       1 RES1    0.0000
      2 O2        32.0073   10.9929    4.7551 O.2       1 RES1    0.0000
      3 O3        31.2547   11.5283    2.7285 O.3       1 RES1    0.0000
      4 O4        31.6461    8.0920    4.9466 O.3       1 RES1    0.0000
      5 O5        29.9454    9.1841    5.9806 O.3       1 RES1    0.0000
      6 O6        29.5478    6.3257    5.1568 O.2       1 RES1    0.0000
      7 O7        28.6875    4.8253    1.5710 O.3       1 RES1    0.0000
      8 O8        27.4949    2.9115    1.0653 O.3       1 RES1    0.0000
      9 O9        24.9713    2.1745    5.2514 O.3       1 RES1    0.0000
     10 O10       26.1192    6.7754    5.3967 O.3       1 RES1    0.0000
     11 N1        26.6776    7.3798    2.0415 N.2       1 RES1    0.0000
     12 C1        28.3699    8.6487    2.7503 C.2       1 RES1    0.0000
     13 C2        29.3073    9.7390    2.8207 C.2       1 RES1    0.0000
     14 H1        29.2484   10.4724    2.2197 H         1 RES1    0.0000
     15 C3        30.2616    9.6904    3.7539 C.2       1 RES1    0.0000
     16 C4        30.3469    8.5692    4.7840 C.3       1 RES1    0.0000
     17 C5        29.3913    7.3516    4.5245 C.2       1 RES1    0.0000
     18 C6        28.3601    7.5521    3.5264 C.2       1 RES1    0.0000
     19 C7        31.2700   10.7870    3.8359 C.2       1 RES1    0.0000
     20 C8        32.1775   12.6284    2.6777 C.3       1 RES1    0.0000
     21 H2        32.1475   13.1197    3.5257 H         1 RES1    0.0000
     22 H3        31.9295   13.2293    1.9438 H         1 RES1    0.0000
     23 H4        33.0846   12.2882    2.5292 H         1 RES1    0.0000
     24 C9        32.1684    7.5000    3.7500 C.3       1 RES1    0.0000
     25 H5        32.2354    8.1821    3.0497 H         1 RES1    0.0000
     26 H6        31.5684    6.7834    3.4522 H         1 RES1    0.0000
     27 H7        33.0586    7.1289    3.9297 H         1 RES1    0.0000
     28 C10       29.9434    8.3739    7.1607 C.3       1 RES1    0.0000
     29 H8        30.7224    7.7792    7.1506 H         1 RES1    0.0000
     30 H9        29.1248    7.8375    7.1873 H         1 RES1    0.0000
     31 H10       29.9838    8.9500    7.9525 H         1 RES1    0.0000
     32 C11       27.2665    6.7719    3.0341 C.2       1 RES1    0.0000
     33 C12       26.7306    5.5004    3.5522 C.ar      1 RES1    0.0000
     34 C13       26.7794    4.2952    2.8715 C.ar      1 RES1    0.0000
     35 C14       26.2107    3.1527    3.4076 C.ar      1 RES1    0.0000
     36 H11       26.2549    2.3265    2.9403 H         1 RES1    0.0000
     37 C15       25.5729    3.2313    4.6371 C.ar      1 RES1    0.0000
     38 C16       25.5085    4.4268    5.3452 C.ar      1 RES1    0.0000
     39 H12       25.0608    4.4719    6.1822 H         1 RES1    0.0000
     40 C17       26.1052    5.5411    4.8074 C.ar      1 RES1    0.0000
     41 C18       27.4221    4.2413    1.5123 C.3       1 RES1    0.0000
     42 H13       26.8601    4.7635    0.8722 H         1 RES1    0.0000
     43 C19       29.2670    4.8951    0.2571 C.3       1 RES1    0.0000
     44 H14       30.1692    5.2972    0.3126 H         1 RES1    0.0000
     45 H15       28.7083    5.4713   -0.3228 H         1 RES1    0.0000
     46 C20       29.3620    3.5176   -0.3392 C.3       1 RES1    0.0000
     47 H16       29.6584    3.5795   -1.2810 H         1 RES1    0.0000
     48 H17       30.0261    2.9804    0.1610 H         1 RES1    0.0000
     49 C21       28.0207    2.8523   -0.2743 C.3       1 RES1    0.0000
     50 H18       27.3970    3.3038   -0.8957 H         1 RES1    0.0000
     51 H19       28.1063    1.9068   -0.5557 H         1 RES1    0.0000
     52 C22       24.8125    0.9764    4.5065 C.3       1 RES1    0.0000
     53 H20       25.6888    0.5690    4.3526 H         1 RES1    0.0000
     54 H21       24.3905    1.1805    3.6452 H         1 RES1    0.0000
     55 H22       24.2473    0.3534    5.0075 H         1 RES1    0.0000
     56 C23       25.5762    6.9089    6.6988 C.3       1 RES1    0.0000
     57 H23       26.0434    6.3027    7.3108 H         1 RES1    0.0000
     58 H24       24.6215    6.6818    6.6793 H         1 RES1    0.0000
     59 H25       25.6855    7.8331    7.0052 H         1 RES1    0.0000
@<TRIPOS>BOND
     1    1   11 1
     2    2   19 2
     3    3   19 1
     4    4   16 1
     5    5   16 1
     6    6   17 2
     7    7   41 1
     8    8   41 1
     9    9   37 1
    10   10   40 1
    11   11   32 2
    12   12    1 1
    13   13   12 1
    14   14   13 1
    15   15   13 2
    16   16   15 1
    17   17   16 1
    18   18   12 2
    19   19   15 1
    20   20    3 1
    21   21   20 1
    22   22   20 1
    23   23   20 1
    24   24    4 1
    25   25   24 1
    26   26   24 1
    27   27   24 1
    28   28    5 1
    29   29   28 1
    30   30   28 1
    31   31   28 1
    32   32   18 1
    33   33   32 1
    34   34   33 ar
    35   35   34 ar
    36   36   35 1
    37   37   35 ar
    38   38   37 ar
    39   39   38 1
    40   40   33 ar
    41   41   34 1
    42   42   41 1
    43   43    7 1
    44   44   43 1
    45   45   43 1
    46   46   43 1
    47   47   46 1
    48   48   46 1
    49   49    8 1
    50   50   49 1
    51   51   49 1
    52   52    9 1
    53   53   52 1
    54   54   52 1
    55   55   52 1
    56   56   10 1
    57   57   56 1
    58   58   56 1
    59   59   56 1
    60   17   18 1
    61   38   40 ar
    62   46   49 1
@<TRIPOS>SUBSTRUCTURE
     1 RES1 1

@<TRIPOS>CRYSIN
  32.5380    8.8360    7.8157  90.0000  90.0000  90.0000  29 1

