# MOL2 file generated by ConQuest
# Please check atom types

@<TRIPOS>MOLECULE
POMVAP
    40    41     1
SMALL
NO_CHARGES
****
Generated from CSD

@<TRIPOS>ATOM
      1 C1         5.9911    5.2717    9.3830 C.2       1 RES1    0.0000
      2 H1         6.3603    6.0862    9.6371 H         1 RES1    0.0000
      3 N1         5.6492    5.1100    8.1840 N.2       1 RES1    0.0000
      4 C2         5.9628    6.2167    7.2648 C.3       1 RES1    0.0000
      5 H2         6.5822    5.8997    6.5901 H         1 RES1    0.0000
      6 H3         6.4039    6.9239    7.7623 H         1 RES1    0.0000
      7 C3         4.7434    6.7867    6.5814 C.2       1 RES1    0.0000
      8 C4         4.3830    6.5021    5.3238 C.2       1 RES1    0.0000
      9 H4         3.6747    6.9937    4.9749 H         1 RES1    0.0000
     10 C5         3.9889    7.7687    7.3936 C.2       1 RES1    0.0000
     11 O1         4.2333    7.9974    8.5488 O.2       1 RES1    0.0000
     12 O2         2.9992    8.3858    6.7298 O.3       1 RES1    0.0000
     13 C6         2.2410    9.3528    7.4895 C.3       1 RES1    0.0000
     14 H5         1.8847    8.9335    8.2754 H         1 RES1    0.0000
     15 H6         1.5202    9.6880    6.9511 H         1 RES1    0.0000
     16 H7         2.8136   10.0789    7.7454 H         1 RES1    0.0000
     17 C7         5.8281    4.2145   10.4040 C.ar      1 RES1    0.0000
     18 C8         5.1329    3.0484   10.1185 C.ar      1 RES1    0.0000
     19 H8         4.7532    2.9142    9.2798 H         1 RES1    0.0000
     20 C9         5.0140    2.0898   11.1049 C.ar      1 RES1    0.0000
     21 N2         4.2803    0.8571   10.7860 N.pl3     1 RES1    0.0000
     22 O3         3.9564    0.6516    9.6303 O.2       1 RES1    0.0000
     23 O4         4.0358    0.0707   11.6956 O.2       1 RES1    0.0000
     24 C10        5.5536    2.2441   12.3672 C.ar      1 RES1    0.0000
     25 H9         5.4558    1.5828   13.0136 H         1 RES1    0.0000
     26 C11        6.2397    3.4027   12.6387 C.ar      1 RES1    0.0000
     27 H10        6.6137    3.5315   13.4796 H         1 RES1    0.0000
     28 C12        6.3763    4.3783   11.6679 C.ar      1 RES1    0.0000
     29 H11        6.8430    5.1570   11.8656 H         1 RES1    0.0000
     30 C13        4.9837    5.4947    4.4324 C.ar      1 RES1    0.0000
     31 C14        5.2045    5.7942    3.0947 C.ar      1 RES1    0.0000
     32 H12        4.9689    6.6328    2.7693 H         1 RES1    0.0000
     33 C15        5.7649    4.8736    2.2435 C.ar      1 RES1    0.0000
     34 H13        5.9206    5.0991    1.3545 H         1 RES1    0.0000
     35 C16        6.0985    3.6194    2.7000 C.ar      1 RES1    0.0000
     36 H14        6.4714    2.9940    2.1223 H         1 RES1    0.0000
     37 C17        5.8743    3.2969    4.0179 C.ar      1 RES1    0.0000
     38 H15        6.0940    2.4482    4.3278 H         1 RES1    0.0000
     39 C18        5.3258    4.2207    4.8866 C.ar      1 RES1    0.0000
     40 H16        5.1838    3.9929    5.7765 H         1 RES1    0.0000
@<TRIPOS>BOND
     1    1    2 1
     2    3    1 2
     3    4    3 1
     4    5    4 1
     5    6    4 1
     6    7    4 1
     7    8    7 2
     8    9    8 1
     9   10    7 1
    10   11   10 2
    11   12   10 1
    12   13   12 1
    13   14   13 1
    14   15   13 1
    15   16   13 1
    16   17    1 1
    17   18   17 ar
    18   19   18 1
    19   20   18 ar
    20   21   20 1
    21   22   21 2
    22   23   21 2
    23   24   20 ar
    24   25   24 1
    25   26   24 ar
    26   27   26 1
    27   28   17 ar
    28   29   28 1
    29   30    8 1
    30   31   30 ar
    31   32   31 1
    32   33   31 ar
    33   34   33 1
    34   35   33 ar
    35   36   35 1
    36   37   35 ar
    37   38   37 1
    38   39   30 ar
    39   40   39 1
    40   26   28 ar
    41   37   39 ar
@<TRIPOS>SUBSTRUCTURE
     1 RES1 1

@<TRIPOS>CRYSIN
   8.6035    8.7829   12.4680  79.2750  76.5260  63.1580   2 1

