# MOL2 file generated by ConQuest
# Please check atom types

@<TRIPOS>MOLECULE
PONJAF
    62    66     1
SMALL
NO_CHARGES
****
Generated from CSD

@<TRIPOS>ATOM
      1 C1        16.9022    9.3394    5.8273 C.ar      1 RES1    0.0000
      2 C2        16.6691    9.9039    7.0907 C.ar      1 RES1    0.0000
      3 H1        17.1837   10.6525    7.3700 H         1 RES1    0.0000
      4 C3        15.7075    9.3924    7.9353 C.ar      1 RES1    0.0000
      5 H2        15.5751    9.7763    8.7937 H         1 RES1    0.0000
      6 C4        14.9301    8.3129    7.5254 C.ar      1 RES1    0.0000
      7 C5        15.0914    7.7901    6.2513 C.ar      1 RES1    0.0000
      8 H3        14.5305    7.0821    5.9564 H         1 RES1    0.0000
      9 C6        16.0653    8.2949    5.4046 C.ar      1 RES1    0.0000
     10 C7        18.0237    9.7484    4.9971 C.2       1 RES1    0.0000
     11 H4        18.4515   10.5757    5.1826 H         1 RES1    0.0000
     12 C8        18.4787    8.9960    3.9737 C.2       1 RES1    0.0000
     13 C9        19.6877    9.3022    3.1854 C.ar      1 RES1    0.0000
     14 C10       20.2095    8.3527    2.2912 C.ar      1 RES1    0.0000
     15 H5        19.8067    7.4942    2.2454 H         1 RES1    0.0000
     16 C11       21.2854    8.6250    1.4786 C.ar      1 RES1    0.0000
     17 H6        21.6180    7.9707    0.8758 H         1 RES1    0.0000
     18 C12       21.8702    9.8734    1.5620 C.ar      1 RES1    0.0000
     19 C13       21.4215   10.8319    2.4501 C.ar      1 RES1    0.0000
     20 H7        21.8443   11.6812    2.4973 H         1 RES1    0.0000
     21 C14       20.3532   10.5391    3.2635 C.ar      1 RES1    0.0000
     22 H8        20.0568   11.1866    3.8930 H         1 RES1    0.0000
     23 C15       13.2718    6.6824    8.0817 C.3       1 RES1    0.0000
     24 H9        12.7018    6.8947    7.3121 H         1 RES1    0.0000
     25 H10       12.7125    6.4136    8.8396 H         1 RES1    0.0000
     26 H11       13.8778    5.9495    7.8459 H         1 RES1    0.0000
     27 C16       15.4986    8.5829    2.9500 C.ar      1 RES1    0.0000
     28 C17       15.2632    8.0125    1.7087 C.ar      1 RES1    0.0000
     29 H12       15.5016    7.1047    1.5656 H         1 RES1    0.0000
     30 C18       14.6900    8.7295    0.6700 C.ar      1 RES1    0.0000
     31 H13       14.5434    8.3163   -0.1720 H         1 RES1    0.0000
     32 C19       14.3316   10.0586    0.8732 C.ar      1 RES1    0.0000
     33 C20       14.5141   10.6322    2.1058 C.ar      1 RES1    0.0000
     34 H14       14.2482   11.5321    2.2574 H         1 RES1    0.0000
     35 C21       15.0897    9.8893    3.1340 C.ar      1 RES1    0.0000
     36 H15       15.2034   10.2923    3.9869 H         1 RES1    0.0000
     37 C22       16.2442    7.7716    4.0069 C.3       1 RES1    0.0000
     38 H16       15.8814    6.8393    3.9849 H         1 RES1    0.0000
     39 C23       17.7569    7.6977    3.6564 C.3       1 RES1    0.0000
     40 H17       17.8256    7.5541    2.6693 H         1 RES1    0.0000
     41 C24       18.3998    6.4946    4.3328 C.ar      1 RES1    0.0000
     42 C25       18.2721    5.2554    3.7210 C.ar      1 RES1    0.0000
     43 H18       17.8473    5.1953    2.8732 H         1 RES1    0.0000
     44 C26       18.7519    4.1101    4.3215 C.ar      1 RES1    0.0000
     45 H19       18.6634    3.2633    3.8990 H         1 RES1    0.0000
     46 C27       19.3631    4.2287    5.5533 C.ar      1 RES1    0.0000
     47 C28       19.5431    5.4414    6.1794 C.ar      1 RES1    0.0000
     48 H20       19.9852    5.4956    7.0181 H         1 RES1    0.0000
     49 C29       19.0641    6.5819    5.5547 C.ar      1 RES1    0.0000
     50 H21       19.1896    7.4299    5.9624 H         1 RES1    0.0000
     51 C30       13.4666   12.0843   -0.0612 C.3       1 RES1    0.0000
     52 H22       12.8206   12.1723    0.6698 H         1 RES1    0.0000
     53 H23       13.0693   12.4208   -0.8918 H         1 RES1    0.0000
     54 H24       14.2717   12.6026    0.1500 H         1 RES1    0.0000
     55 N1        22.9697   10.1877    0.6548 N.pl3     1 RES1    0.0000
     56 N2        19.8134    2.9979    6.2119 N.pl3     1 RES1    0.0000
     57 O1        14.0398    7.8428    8.4424 O.3       1 RES1    0.0000
     58 O2        23.4095   11.3409    0.6486 O.2       1 RES1    0.0000
     59 O3        23.4156    9.2941   -0.0608 O.2       1 RES1    0.0000
     60 O4        13.8152   10.7096   -0.2235 O.3       1 RES1    0.0000
     61 O5        19.5394    1.9230    5.6683 O.2       1 RES1    0.0000
     62 O6        20.4126    3.0973    7.2787 O.2       1 RES1    0.0000
@<TRIPOS>BOND
     1    1    2 ar
     2    2    3 1
     3    4    2 ar
     4    5    4 1
     5    6    4 ar
     6    7    6 ar
     7    8    7 1
     8    9    1 ar
     9   10    1 1
    10   11   10 1
    11   12   10 2
    12   13   12 1
    13   14   13 ar
    14   15   14 1
    15   16   14 ar
    16   17   16 1
    17   18   16 ar
    18   19   18 ar
    19   20   19 1
    20   21   13 ar
    21   22   21 1
    22   23   24 1
    23   25   23 1
    24   26   23 1
    25   27   28 ar
    26   28   29 1
    27   30   28 ar
    28   31   30 1
    29   32   30 ar
    30   33   32 ar
    31   34   33 1
    32   35   27 ar
    33   36   35 1
    34   37    9 1
    35   38   37 1
    36   39   12 1
    37   40   39 1
    38   41   39 1
    39   42   41 ar
    40   43   42 1
    41   44   42 ar
    42   45   44 1
    43   46   44 ar
    44   47   46 ar
    45   48   47 1
    46   49   41 ar
    47   50   49 1
    48   51   52 1
    49   53   51 1
    50   54   51 1
    51   55   18 1
    52   56   46 1
    53   57    6 1
    54   58   55 2
    55   59   55 2
    56   60   32 1
    57   61   56 2
    58   62   56 2
    59    7    9 ar
    60   19   21 ar
    61   23   57 1
    62   27   37 1
    63   33   35 ar
    64   37   39 1
    65   47   49 ar
    66   51   60 1
@<TRIPOS>SUBSTRUCTURE
     1 RES1 1

@<TRIPOS>CRYSIN
  21.8582   11.2916   20.2879  90.0000  99.7530  90.0000  15 1

