# MOL2 file generated by ConQuest
# Please check atom types

@<TRIPOS>MOLECULE
PONTIW
    35    36     1
SMALL
NO_CHARGES
****
Generated from CSD

@<TRIPOS>ATOM
      1 O1         2.6604    0.5333    4.2470 O.3       1 RES1    0.0000
      2 O2         1.1418    3.6000   -0.9124 O.2       1 RES1    0.0000
      3 O3         0.5032    4.2361   -2.8808 O.2       1 RES1    0.0000
      4 O4        -0.4645    1.2201   -6.3372 O.2       1 RES1    0.0000
      5 O5         0.1707   -0.8546   -6.2074 O.2       1 RES1    0.0000
      6 N1         1.8530   -0.0525    0.3598 N.2       1 RES1    0.0000
      7 N2         1.5750    1.0637   -0.3910 N.3       1 RES1    0.0000
      8 N3         0.8251    3.3531   -2.0915 N.pl3     1 RES1    0.0000
      9 N4         0.0351    0.2725   -5.7267 N.pl3     1 RES1    0.0000
     10 C1         2.8039   -0.7476    3.8077 C.ar      1 RES1    0.0000
     11 C2         3.1644   -1.8201    4.6297 C.ar      1 RES1    0.0000
     12 H1         3.3593   -1.6754    5.5278 H         1 RES1    0.0000
     13 C3         3.2300   -3.1028    4.1000 C.ar      1 RES1    0.0000
     14 H2         3.4653   -3.8157    4.6491 H         1 RES1    0.0000
     15 C4         2.9480   -3.3328    2.7568 C.ar      1 RES1    0.0000
     16 H3         2.9889   -4.1949    2.4109 H         1 RES1    0.0000
     17 C5         2.6051   -2.2666    1.9363 C.ar      1 RES1    0.0000
     18 H4         2.4201   -2.4211    1.0376 H         1 RES1    0.0000
     19 C6         2.5344   -0.9628    2.4414 C.ar      1 RES1    0.0000
     20 C7         2.2125    0.1689    1.5742 C.2       1 RES1    0.0000
     21 H5         2.2675    1.0393    1.8969 H         1 RES1    0.0000
     22 C8         1.2227    0.9076   -1.6894 C.ar      1 RES1    0.0000
     23 C9         1.2292   -0.3912   -2.2694 C.ar      1 RES1    0.0000
     24 H6         1.4810   -1.1194   -1.7491 H         1 RES1    0.0000
     25 C10        0.8742   -0.5956   -3.5758 C.ar      1 RES1    0.0000
     26 H7         0.9006   -1.4512   -3.9403 H         1 RES1    0.0000
     27 C11        0.4712    0.4922   -4.3593 C.ar      1 RES1    0.0000
     28 C12        0.4598    1.7720   -3.8624 C.ar      1 RES1    0.0000
     29 H8         0.1993    2.4860   -4.3990 H         1 RES1    0.0000
     30 C13        0.8449    1.9819   -2.5421 C.ar      1 RES1    0.0000
     31 C14        3.1499    0.8644    5.5540 C.3       1 RES1    0.0000
     32 H9         3.0787    1.8121    5.6922 H         1 RES1    0.0000
     33 H10        4.0694    0.5981    5.6286 H         1 RES1    0.0000
     34 H11        2.6289    0.4045    6.2172 H         1 RES1    0.0000
     35 H12        1.6679    1.8467   -0.0373 H         1 RES1    0.0000
@<TRIPOS>BOND
     1    1   10 1
     2    2    8 2
     3    3    8 2
     4    4    9 2
     5    5    9 2
     6    6    7 1
     7    7   22 1
     8    8   30 1
     9    9   27 1
    10   10   11 ar
    11   11   12 1
    12   13   11 ar
    13   14   13 1
    14   15   13 ar
    15   16   15 1
    16   17   15 ar
    17   18   17 1
    18   19   10 ar
    19   20    6 2
    20   21   20 1
    21   22   23 ar
    22   23   24 1
    23   25   23 ar
    24   26   25 1
    25   27   25 ar
    26   28   27 ar
    27   29   28 1
    28   30   22 ar
    29   31    1 1
    30   32   31 1
    31   33   31 1
    32   34   31 1
    33   35    7 1
    34   17   19 ar
    35   19   20 1
    36   28   30 ar
@<TRIPOS>SUBSTRUCTURE
     1 RES1 1

@<TRIPOS>CRYSIN
   7.0315    7.6205   14.1896  98.0480  97.0640 109.4670   2 1

