# MOL2 file generated by ConQuest
# Please check atom types

@<TRIPOS>MOLECULE
PONWOF
    32    32     1
SMALL
USER_CHARGES
****
Generated from CSD

@<TRIPOS>ATOM
      1 O1         2.4123   -0.0988    1.7936 O.2       1 RES1    0.0000
      2 O2         2.3744    0.8693    3.7372 O.2       1 RES1    0.0000
      3 O3         1.3635    2.7378    1.6427 O.3       1 RES1    0.0000
      4 O4        -0.1617    3.6803    3.9776 O.2       1 RES1    0.0000
      5 O5        -2.0078    4.7916    3.3898 O.3       1 RES1    0.0000
      6 N1         1.8321    0.3698    2.7638 N.pl3     1 RES1    0.0000
      7 N2         0.0570    3.1948   -0.9860 N.2       1 RES1    0.0000
      8 N3         1.2018    3.6389   -1.1607 N.1       1 RES1    1.0000
      9 N4         2.1720    4.1576   -1.4327 N.2       1 RES1   -1.0000
     10 C1         0.3544    0.2522    2.7890 C.ar      1 RES1    0.0000
     11 C2        -0.1134   -0.8863    3.4346 C.ar      1 RES1    0.0000
     12 C3        -1.4675   -1.1134    3.4721 C.ar      1 RES1    0.0000
     13 C4        -2.3399   -0.2222    2.8777 C.ar      1 RES1    0.0000
     14 C5        -1.8423    0.9056    2.2487 C.ar      1 RES1    0.0000
     15 C6        -0.4731    1.1900    2.1840 C.ar      1 RES1    0.0000
     16 C7        -0.0086    2.4256    1.4100 C.3       1 RES1    0.0000
     17 C8        -0.0706    2.0396   -0.0816 C.3       1 RES1    0.0000
     18 C9        -0.9540    4.0221    3.1344 C.2       1 RES1    0.0000
     19 C10       -0.8826    3.6520    1.6855 C.3       1 RES1    0.0000
     20 C11       -2.1903    5.2005    4.7592 C.3       1 RES1    0.0000
     21 H1         0.5493   -1.5337    3.8547 H         1 RES1    0.0000
     22 H2        -1.8283   -1.8306    3.9024 H         1 RES1    0.0000
     23 H3         1.3911    3.0295    2.4139 H         1 RES1    0.0000
     24 H4        -3.3221   -0.3757    2.9292 H         1 RES1    0.0000
     25 H5        -2.3977    1.5197    1.7747 H         1 RES1    0.0000
     26 H6         0.6304    1.3382   -0.2843 H         1 RES1    0.0000
     27 H7        -0.9775    1.7012   -0.2500 H         1 RES1    0.0000
     28 H8        -0.4731    4.3873    1.2251 H         1 RES1    0.0000
     29 H9        -1.7748    3.5389    1.3759 H         1 RES1    0.0000
     30 H10       -2.3290    4.4324    5.3431 H         1 RES1    0.0000
     31 H11       -2.9857    5.7128    4.7420 H         1 RES1    0.0000
     32 H12       -1.4555    5.7199    5.0092 H         1 RES1    0.0000
@<TRIPOS>BOND
     1    1    6 2
     2    2    6 2
     3    3   16 1
     4    4   18 2
     5    5   18 1
     6    6   10 1
     7    7    8 2
     8    8    9 2
     9   10   11 ar
    10   11   12 ar
    11   12   13 ar
    12   13   14 ar
    13   14   15 ar
    14   15   10 ar
    15   16   15 1
    16   17    7 1
    17   18   19 1
    18   19   16 1
    19   20    5 1
    20   21   11 1
    21   22   12 1
    22   23    3 1
    23   24   13 1
    24   25   14 1
    25   26   17 1
    26   27   17 1
    27   28   19 1
    28   29   19 1
    29   30   20 1
    30   31   20 1
    31   32   20 1
    32   16   17 1
@<TRIPOS>SUBSTRUCTURE
     1 RES1 1

@<TRIPOS>CRYSIN
   9.4772   14.0710   10.1861  90.0000 110.4960  90.0000 231 1

