# MOL2 file generated by ConQuest
# Please check atom types

@<TRIPOS>MOLECULE
POPDAZ
    50    54     1
SMALL
NO_CHARGES
****
Generated from CSD

@<TRIPOS>ATOM
      1 O1         4.4272    7.4954    2.3326 O.3       1 RES1    0.0000
      2 N1         3.3481    7.2523    3.3698 N.3       1 RES1    0.0000
      3 C1         3.3722    6.5780    2.0991 C.3       1 RES1    0.0000
      4 C2         3.7651    5.1398    1.8393 C.3       1 RES1    0.0000
      5 C3         3.4078    4.9645    0.3578 C.3       1 RES1    0.0000
      6 C4         3.3771    3.5468   -0.1707 C.3       1 RES1    0.0000
      7 C5         2.0811    2.8661   -0.0445 C.2       1 RES1    0.0000
      8 C6         0.9831    3.4598    0.3785 C.2       1 RES1    0.0000
      9 C7         0.9450    4.8737    0.8239 C.3       1 RES1    0.0000
     10 C8         2.0722    5.7105    0.2524 C.3       1 RES1    0.0000
     11 C9         2.3251    6.9798    1.0762 C.3       1 RES1    0.0000
     12 C10        3.9377    6.5537    4.5024 C.3       1 RES1    0.0000
     13 C11        2.7984    6.2172    5.4941 C.3       1 RES1    0.0000
     14 C12        1.6019    5.5211    4.9062 C.2       1 RES1    0.0000
     15 C13        1.3847    4.1904    4.8142 C.2       1 RES1    0.0000
     16 N2         0.1360    3.9422    4.3109 N.3       1 RES1    0.0000
     17 C14       -0.4867    5.1283    4.0704 C.ar      1 RES1    0.0000
     18 C15       -1.7513    5.4060    3.5672 C.ar      1 RES1    0.0000
     19 C16       -2.1059    6.7162    3.4173 C.ar      1 RES1    0.0000
     20 C17       -1.2200    7.7616    3.7721 C.ar      1 RES1    0.0000
     21 C18        0.0171    7.4878    4.2827 C.ar      1 RES1    0.0000
     22 C19        0.4155    6.1545    4.4356 C.ar      1 RES1    0.0000
     23 C20        4.9045    7.4852    5.2001 C.2       1 RES1    0.0000
     24 O2         5.0336    8.6483    4.9626 O.2       1 RES1    0.0000
     25 O3         5.5887    6.8365    6.1235 O.3       1 RES1    0.0000
     26 C21        6.5671    7.5965    6.8628 C.3       1 RES1    0.0000
     27 H1         4.7200    4.9773    2.0040 H         1 RES1    0.0000
     28 H2         3.2238    4.6063    2.3752 H         1 RES1    0.0000
     29 H3         4.1152    5.5019   -0.1484 H         1 RES1    0.0000
     30 H4         3.6865    3.4931   -0.9501 H         1 RES1    0.0000
     31 H5         4.0888    3.0453    0.1633 H         1 RES1    0.0000
     32 H6         2.0173    1.8937   -0.3563 H         1 RES1    0.0000
     33 H7         0.0888    2.9685    0.3266 H         1 RES1    0.0000
     34 H8         0.1112    5.2204    0.5196 H         1 RES1    0.0000
     35 H9         0.9823    4.7598    1.7814 H         1 RES1    0.0000
     36 H10        1.8807    5.8986   -0.6086 H         1 RES1    0.0000
     37 H11        1.5396    7.3189    1.4845 H         1 RES1    0.0000
     38 H12        2.6970    7.7027    0.5938 H         1 RES1    0.0000
     39 H13        4.4239    5.7578    4.1565 H         1 RES1    0.0000
     40 H14        3.1738    5.7578    6.1606 H         1 RES1    0.0000
     41 H15        2.4702    7.1141    5.8785 H         1 RES1    0.0000
     42 H16        1.9696    3.4931    5.0472 H         1 RES1    0.0000
     43 H17       -0.1664    3.1348    4.1417 H         1 RES1    0.0000
     44 H18       -2.3726    4.7214    3.2807 H         1 RES1    0.0000
     45 H19       -3.0168    6.9350    2.9987 H         1 RES1    0.0000
     46 H20       -1.5052    8.6624    3.6221 H         1 RES1    0.0000
     47 H21        0.5921    8.2657    4.4831 H         1 RES1    0.0000
     48 H22        7.2914    7.8307    6.3684 H         1 RES1    0.0000
     49 H23        6.8034    7.1397    7.6005 H         1 RES1    0.0000
     50 H24        6.1177    8.2529    7.4076 H         1 RES1    0.0000
@<TRIPOS>BOND
     1    1    2 1
     2    2    3 1
     3    3    1 1
     4    4    3 1
     5    5    4 1
     6    6    5 1
     7    7    6 1
     8    8    7 2
     9    9    8 1
    10   10    5 1
    11   11    3 1
    12   12    2 1
    13   13   12 1
    14   14   13 1
    15   15   14 2
    16   16   15 1
    17   17   16 1
    18   18   17 ar
    19   19   18 ar
    20   20   19 ar
    21   21   20 ar
    22   22   14 1
    23   23   12 1
    24   24   23 2
    25   25   23 1
    26   26   25 1
    27   27    4 1
    28   28    4 1
    29   29    5 1
    30   30    6 1
    31   31    6 1
    32   32    7 1
    33   33    8 1
    34   34    9 1
    35   35    9 1
    36   36   10 1
    37   37   11 1
    38   38   11 1
    39   39   12 1
    40   40   13 1
    41   41   13 1
    42   42   15 1
    43   43   16 1
    44   44   18 1
    45   45   19 1
    46   46   20 1
    47   47   21 1
    48   48   26 1
    49   49   26 1
    50   50   26 1
    51    9   10 1
    52   10   11 1
    53   17   22 ar
    54   21   22 ar
@<TRIPOS>SUBSTRUCTURE
     1 RES1 1

@<TRIPOS>CRYSIN
   9.9006   12.7952   15.2781  90.0000 103.6780  90.0000 231 1

