# MOL2 file generated by ConQuest
# Please check atom types

@<TRIPOS>MOLECULE
POPDED
    59    62     2
SMALL
NO_CHARGES
****
Generated from CSD

@<TRIPOS>ATOM
      1 O1        10.2127    6.9992    7.0581 O.3       1 RES1    0.0000
      2 O2         8.5741    1.1631    3.0023 O.3       1 RES1    0.0000
      3 O3         7.3700    1.4209    1.1454 O.2       1 RES1    0.0000
      4 O4        10.9822    2.3632    2.6452 O.3       1 RES1    0.0000
      5 O5        11.5074    2.3041    0.4671 O.2       1 RES1    0.0000
      6 O6        10.9387    1.4458    0.6683 Du        2 SUP2    0.0000
      7 N1         8.8585    7.4073    6.4990 N.3       1 RES1    0.0000
      8 N2         7.4642    7.3111    1.9108 N.3       1 RES1    0.0000
      9 C1         9.6404    6.3033    5.9816 C.3       1 RES1    0.0000
     10 C2         9.1206    4.9145    6.2389 C.3       1 RES1    0.0000
     11 C3         8.9438    4.3375    4.8642 C.3       1 RES1    0.0000
     12 C4         8.8122    2.8347    4.6831 C.3       1 RES1    0.0000
     13 C5         8.6603    2.5854    3.1884 C.3       1 RES1    0.0000
     14 C6         9.7968    3.1517    2.3577 C.3       1 RES1    0.0000
     15 C7        10.0909    4.6118    2.6401 C.3       1 RES1    0.0000
     16 C8        10.1905    4.8575    4.1334 C.3       1 RES1    0.0000
     17 C9        10.2935    6.3033    4.6048 C.3       1 RES1    0.0000
     18 C10        9.0015    8.7214    5.8429 C.3       1 RES1    0.0000
     19 C11        7.7122    9.0775    5.1294 C.3       1 RES1    0.0000
     20 C12        7.4145    8.2121    3.9473 C.2       1 RES1    0.0000
     21 C13        7.9121    8.3296    2.7142 C.2       1 RES1    0.0000
     22 C14        6.6396    6.5206    2.6394 C.ar      1 RES1    0.0000
     23 C15        5.9216    5.3774    2.2923 C.ar      1 RES1    0.0000
     24 C16        5.1832    4.7542    3.2768 C.ar      1 RES1    0.0000
     25 C17        5.1263    5.2919    4.5775 C.ar      1 RES1    0.0000
     26 C18        5.8026    6.4030    4.9253 C.ar      1 RES1    0.0000
     27 C19        6.5748    7.0619    3.9523 C.ar      1 RES1    0.0000
     28 C20        7.8881    0.6909    1.9632 C.2       1 RES1    0.0000
     29 C21        7.8997   -0.7906    1.9373 C.3       1 RES1    0.0000
     30 C22       11.5625    1.7450    1.6672 C.2       1 RES1    0.0000
     31 C23       12.7221    0.9117    2.1199 C.3       1 RES1    0.0000
     32 H1         7.5975    7.1936    1.0060 H         1 RES1    0.0000
     33 H2         9.8812    4.3304    6.6542 H         1 RES1    0.0000
     34 H3         8.3351    4.9145    6.7908 H         1 RES1    0.0000
     35 H4         8.2107    4.8219    4.4050 H         1 RES1    0.0000
     36 H5         9.6946    2.3504    5.0374 H         1 RES1    0.0000
     37 H6         8.0685    2.3504    5.0733 H         1 RES1    0.0000
     38 H7         7.6686    3.0982    2.8744 H         1 RES1    0.0000
     39 H8         9.5791    3.0982    1.4085 H         1 RES1    0.0000
     40 H9        10.9476    4.8076    2.1271 H         1 RES1    0.0000
     41 H10        9.4192    5.1994    2.3211 H         1 RES1    0.0000
     42 H11       11.1075    4.2912    4.4841 H         1 RES1    0.0000
     43 H12        9.7302    6.9764    4.0026 H         1 RES1    0.0000
     44 H13       11.2052    6.5882    4.6350 H         1 RES1    0.0000
     45 H14        9.3570    9.2947    6.4243 H         1 RES1    0.0000
     46 H15        9.8368    8.7606    5.2098 H         1 RES1    0.0000
     47 H16        6.9755    9.1167    5.7272 H         1 RES1    0.0000
     48 H17        7.9174   10.0426    4.8362 H         1 RES1    0.0000
     49 H18        8.4772    9.0098    2.3498 H         1 RES1    0.0000
     50 H19        6.0425    5.0213    1.4444 H         1 RES1    0.0000
     51 H20        4.7540    3.9529    3.2409 H         1 RES1    0.0000
     52 H21        4.6740    4.7720    5.1739 H         1 RES1    0.0000
     53 H22        5.9625    6.8731    5.7847 H         1 RES1    0.0000
     54 H23        7.4865   -1.1396    2.7846 H         1 RES1    0.0000
     55 H24        7.4056   -1.1431    1.2353 H         1 RES1    0.0000
     56 H25        8.7883   -1.1431    1.9402 H         1 RES1    0.0000
     57 H26       12.4751    0.2849    2.7724 H         1 RES1    0.0000
     58 H27       13.1557    0.4986    1.3941 H         1 RES1    0.0000
     59 H28       13.3921    1.5135    2.5417 H         1 RES1    0.0000
@<TRIPOS>BOND
     1    1    7 1
     2    2   13 1
     3    3   28 2
     4    4   14 1
     5    5   30 2
     6    7    9 1
     7    8   21 1
     8    9    1 1
     9   10    9 1
    10   11   10 1
    11   12   11 1
    12   13   12 1
    13   14   13 1
    14   15   14 1
    15   16   11 1
    16   17    9 1
    17   18    7 1
    18   19   18 1
    19   20   19 1
    20   21   20 2
    21   22    8 1
    22   23   22 ar
    23   24   23 ar
    24   25   24 ar
    25   26   25 ar
    26   27   20 1
    27   28    2 1
    28   29   28 1
    29   30    4 1
    30   31   30 1
    31   32    8 1
    32   33   10 1
    33   34   10 1
    34   35   11 1
    35   36   12 1
    36   37   12 1
    37   38   13 1
    38   39   14 1
    39   40   15 1
    40   41   15 1
    41   42   16 1
    42   43   17 1
    43   44   17 1
    44   45   18 1
    45   46   18 1
    46   47   19 1
    47   48   19 1
    48   49   21 1
    49   50   23 1
    50   51   24 1
    51   52   25 1
    52   53   26 1
    53   54   29 1
    54   55   29 1
    55   56   29 1
    56   57   31 1
    57   58   31 1
    58   59   31 1
    59   15   16 1
    60   16   17 1
    61   22   27 ar
    62   26   27 ar
@<TRIPOS>SUBSTRUCTURE
     1 RES1 1
     2 SUP2 6

@<TRIPOS>CRYSIN
   8.8860   35.6120    7.1860  90.0000  90.0000  90.0000  19 1

