# MOL2 file generated by ConQuest
# Please check atom types

@<TRIPOS>MOLECULE
POPNOX
    20    21     1
SMALL
NO_CHARGES
****
Generated from CSD

@<TRIPOS>ATOM
      1 O1        -1.1298   -3.4628    7.3589 O.3       1 RES1    0.0000
      2 O2         0.0694   -0.2677    4.2192 O.2       1 RES1    0.0000
      3 O3         1.0062   -2.2976    4.1884 O.3       1 RES1    0.0000
      4 O4        -1.5818   -0.4333    8.2067 O.3       1 RES1    0.0000
      5 O5         0.0230    1.3231    6.8302 O.2       1 RES1    0.0000
      6 O6        -1.7493    1.8989    5.5854 O.3       1 RES1    0.0000
      7 N1        -0.2786   -2.9235    6.3622 N.2       1 RES1    0.0000
      8 C1        -0.7290   -1.9009    5.7209 C.2       1 RES1    0.0000
      9 C2        -2.0579   -1.2056    5.9289 C.3       1 RES1    0.0000
     10 C3        -2.9995   -2.2321    6.4576 C.ar      1 RES1    0.0000
     11 C4        -4.3879   -2.1493    6.2968 C.ar      1 RES1    0.0000
     12 C5        -5.2093   -3.0930    6.9019 C.ar      1 RES1    0.0000
     13 C6        -4.6814   -4.0887    7.6741 C.ar      1 RES1    0.0000
     14 C7        -3.3144   -4.2062    7.8293 C.ar      1 RES1    0.0000
     15 C8        -2.5104   -3.2798    7.2053 C.ar      1 RES1    0.0000
     16 C9         0.1616   -1.3905    4.6320 C.2       1 RES1    0.0000
     17 C10        1.8254   -1.8835    3.0413 C.3       1 RES1    0.0000
     18 C11       -1.9881   -0.0116    6.9311 C.3       1 RES1    0.0000
     19 C12       -1.1112    1.1209    6.4686 C.2       1 RES1    0.0000
     20 C13       -1.0307    3.0737    5.0953 C.3       1 RES1    0.0000
@<TRIPOS>BOND
     1    1    7 1
     2    2   16 2
     3    3   16 1
     4    4   18 1
     5    5   19 2
     6    6   19 1
     7    7    8 2
     8    8    9 1
     9    9   10 1
    10   10   11 ar
    11   11   12 ar
    12   12   13 ar
    13   13   14 ar
    14   14   15 ar
    15   15    1 1
    16   16    8 1
    17   17    3 1
    18   18    9 1
    19   19   18 1
    20   20    6 1
    21   10   15 ar
@<TRIPOS>SUBSTRUCTURE
     1 RES1 1

@<TRIPOS>CRYSIN
   8.5840   19.2590    8.7520  90.0000 115.8100  90.0000 231 1

