# MOL2 file generated by ConQuest
# Please check atom types

@<TRIPOS>MOLECULE
POQBON
    45    47     1
SMALL
NO_CHARGES
****
Generated from CSD

@<TRIPOS>ATOM
      1 O1         2.2650    5.2166   11.2578 O.3       1 RES1    0.0000
      2 O2         2.8830    5.5126    9.1065 O.2       1 RES1    0.0000
      3 O3        -1.6839    0.1860    4.7802 O.2       1 RES1    0.0000
      4 O4         0.1220   -0.6552    5.6258 O.2       1 RES1    0.0000
      5 O5         0.1332    7.0916    9.0878 O.3       1 RES1    0.0000
      6 O6        -0.6426    6.5275    7.0185 O.2       1 RES1    0.0000
      7 N1         0.7882    4.7381    9.6888 N.am      1 RES1    0.0000
      8 N2         0.2003    4.9618    8.4531 N.am      1 RES1    0.0000
      9 N3        -0.6804    0.2708    5.4868 N.pl3     1 RES1    0.0000
     10 C1         2.0579    5.1971    9.9255 C.2       1 RES1    0.0000
     11 C2         1.1037    4.6272   11.9361 C.3       1 RES1    0.0000
     12 H1         0.8463    5.1499   12.7486 H         1 RES1    0.0000
     13 C3         1.3243    3.1863   12.2564 C.2       1 RES1    0.0000
     14 H2         2.0548    2.8588   12.7673 H         1 RES1    0.0000
     15 C4         0.3794    2.4281   11.7433 C.2       1 RES1    0.0000
     16 H3         0.3630    1.4812   11.8234 H         1 RES1    0.0000
     17 C5        -0.6661    3.2163   11.0188 C.3       1 RES1    0.0000
     18 H4        -1.5089    3.2544   11.5371 H         1 RES1    0.0000
     19 H5        -0.8521    2.8298   10.1269 H         1 RES1    0.0000
     20 C6        -0.0235    4.6028   10.9002 C.3       1 RES1    0.0000
     21 H6        -0.6788    5.3488   11.0176 H         1 RES1    0.0000
     22 C7        -0.0052    3.8243    7.6354 C.ar      1 RES1    0.0000
     23 C8         0.9131    2.7891    7.6908 C.ar      1 RES1    0.0000
     24 H7         1.6944    2.8774    8.2233 H         1 RES1    0.0000
     25 C9         0.6987    1.6357    6.9798 C.ar      1 RES1    0.0000
     26 H8         1.3230    0.9218    7.0247 H         1 RES1    0.0000
     27 C10       -0.4277    1.5236    6.2019 C.ar      1 RES1    0.0000
     28 C11       -1.3383    2.5538    6.0966 C.ar      1 RES1    0.0000
     29 H9        -2.1006    2.4693    5.5354 H         1 RES1    0.0000
     30 C12       -1.1239    3.7120    6.8228 C.ar      1 RES1    0.0000
     31 H10       -1.7421    4.4311    6.7642 H         1 RES1    0.0000
     32 C13       -0.1640    6.2596    8.0873 C.2       1 RES1    0.0000
     33 C14       -0.2522    8.5195    9.0214 C.3       1 RES1    0.0000
     34 C15        0.3643    9.0550   10.2946 C.3       1 RES1    0.0000
     35 H11        1.3395    8.9719   10.2449 H         1 RES1    0.0000
     36 H12        0.0316    8.5410   11.0594 H         1 RES1    0.0000
     37 H13        0.1212    9.9973   10.4032 H         1 RES1    0.0000
     38 C16        0.3581    9.1934    7.8106 C.3       1 RES1    0.0000
     39 H14        1.3101    8.9678    7.7571 H         1 RES1    0.0000
     40 H15        0.2571   10.1651    7.8923 H         1 RES1    0.0000
     41 H16       -0.0975    8.8849    7.0002 H         1 RES1    0.0000
     42 C17       -1.7602    8.6162    9.0545 C.3       1 RES1    0.0000
     43 H17       -2.1011    8.1371    9.8392 H         1 RES1    0.0000
     44 H18       -2.1310    8.2158    8.2406 H         1 RES1    0.0000
     45 H19       -2.0264    9.5582    9.1053 H         1 RES1    0.0000
@<TRIPOS>BOND
     1    1   10 1
     2    2   10 2
     3    3    9 2
     4    4    9 2
     5    5   32 1
     6    6   32 2
     7    7    8 1
     8    8   22 1
     9    9   27 1
    10   10    7 1
    11   11    1 1
    12   12   11 1
    13   13   11 1
    14   14   13 1
    15   15   13 2
    16   16   15 1
    17   17   15 1
    18   18   17 1
    19   19   17 1
    20   20    7 1
    21   21   20 1
    22   22   23 ar
    23   23   24 1
    24   25   23 ar
    25   26   25 1
    26   27   25 ar
    27   28   27 ar
    28   29   28 1
    29   30   22 ar
    30   31   30 1
    31   32    8 1
    32   33    5 1
    33   34   33 1
    34   35   34 1
    35   36   34 1
    36   37   34 1
    37   38   33 1
    38   39   38 1
    39   40   38 1
    40   41   38 1
    41   42   33 1
    42   43   42 1
    43   44   42 1
    44   45   42 1
    45   11   20 1
    46   17   20 1
    47   28   30 ar
@<TRIPOS>SUBSTRUCTURE
     1 RES1 1

@<TRIPOS>CRYSIN
   5.8184   20.7156   14.5591  90.0000  98.7680  90.0000  14 1

