# MOL2 file generated by ConQuest
# Please check atom types

@<TRIPOS>MOLECULE
POQFEH
    47    49     1
SMALL
NO_CHARGES
****
Generated from CSD

@<TRIPOS>ATOM
      1 C1         6.0944   14.5114    1.8824 C.2       1 RES1    0.0000
      2 C2         6.4454   15.3887    0.7103 C.3       1 RES1    0.0000
      3 H1         5.6554   15.6092    0.1923 H         1 RES1    0.0000
      4 H2         7.0912   14.9542    0.1322 H         1 RES1    0.0000
      5 C3         7.0461   16.6473    1.3604 C.3       1 RES1    0.0000
      6 H3         8.0018   16.5419    1.4887 H         1 RES1    0.0000
      7 H4         6.8909   17.4257    0.8034 H         1 RES1    0.0000
      8 C4         6.3423   16.7996    2.6978 C.3       1 RES1    0.0000
      9 C5         4.8309   17.1604    2.6043 C.3       1 RES1    0.0000
     10 H5         4.5928   17.9622    3.0956 H         1 RES1    0.0000
     11 H6         4.4983   17.2024    1.6950 H         1 RES1    0.0000
     12 C6         4.4617   15.8566    3.3358 C.3       1 RES1    0.0000
     13 H7         3.7899   15.3300    2.8752 H         1 RES1    0.0000
     14 H8         4.2217   15.9877    4.2657 H         1 RES1    0.0000
     15 C7         5.9131   15.3314    3.1334 C.3       1 RES1    0.0000
     16 C8         7.1107   17.6034    3.7241 C.3       1 RES1    0.0000
     17 H9         7.3058   18.4728    3.3681 H         1 RES1    0.0000
     18 H10        7.9313   17.1520    3.9351 H         1 RES1    0.0000
     19 H11        6.5817   17.6939    4.5201 H         1 RES1    0.0000
     20 C9         6.5895   14.7665    4.3546 C.2       1 RES1    0.0000
     21 C10        8.6097   13.7959    5.1677 C.3       1 RES1    0.0000
     22 H12        8.0429   13.4250    5.8625 H         1 RES1    0.0000
     23 H13        9.1263   14.5225    5.5500 H         1 RES1    0.0000
     24 C11        9.5216   12.7444    4.6333 C.3       1 RES1    0.0000
     25 H14       10.0709   12.4064    5.3436 H         1 RES1    0.0000
     26 H15       10.0793   13.1213    3.9491 H         1 RES1    0.0000
     27 H16        9.0011   12.0279    4.2617 H         1 RES1    0.0000
     28 C12        6.0944   11.2780    0.5851 C.ar      1 RES1    0.0000
     29 C13        6.0997   10.4762    1.7590 C.ar      1 RES1    0.0000
     30 H17        6.0886   10.8882    2.5927 H         1 RES1    0.0000
     31 C14        6.1205    9.1099    1.6852 C.ar      1 RES1    0.0000
     32 H18        6.1257    8.5991    2.4624 H         1 RES1    0.0000
     33 C15        6.1329    8.4907    0.4354 C.ar      1 RES1    0.0000
     34 C16        6.1427    9.2145   -0.7307 C.ar      1 RES1    0.0000
     35 H19        6.1629    8.7830   -1.5548 H         1 RES1    0.0000
     36 C17        6.1212   10.6000   -0.6612 C.ar      1 RES1    0.0000
     37 N1         5.9411   13.2425    1.9112 N.2       1 RES1    0.0000
     38 N2         6.0703   12.6270    0.6778 N.pl3     1 RES1    0.0000
     39 H20        6.1349   13.1050   -0.0341 H         1 RES1    0.0000
     40 N3         6.1460   11.3078   -1.9301 N.pl3     1 RES1    0.0000
     41 N4         6.1473    7.0369    0.3570 N.pl3     1 RES1    0.0000
     42 O1         6.1284   14.7975    5.4558 O.2       1 RES1    0.0000
     43 O2         7.7943   14.2863    4.0645 O.3       1 RES1    0.0000
     44 O3         6.1401   12.5458   -1.9200 O.2       1 RES1    0.0000
     45 O4         6.1884   10.6627   -2.9625 O.2       1 RES1    0.0000
     46 O5         6.2419    6.5054   -0.7441 O.2       1 RES1    0.0000
     47 O6         6.0507    6.4034    1.3969 O.2       1 RES1    0.0000
@<TRIPOS>BOND
     1    1    2 1
     2    2    3 1
     3    4    2 1
     4    5    2 1
     5    6    5 1
     6    7    5 1
     7    8    5 1
     8    9    8 1
     9   10    9 1
    10   11    9 1
    11   12    9 1
    12   13   12 1
    13   14   12 1
    14   15    1 1
    15   16    8 1
    16   17   16 1
    17   18   16 1
    18   19   16 1
    19   20   15 1
    20   21   22 1
    21   23   21 1
    22   24   21 1
    23   25   24 1
    24   26   24 1
    25   27   24 1
    26   28   29 ar
    27   29   30 1
    28   31   29 ar
    29   32   31 1
    30   33   31 ar
    31   34   33 ar
    32   35   34 1
    33   36   28 ar
    34   37    1 2
    35   38   28 1
    36   39   38 1
    37   40   36 1
    38   41   33 1
    39   42   20 2
    40   43   20 1
    41   44   40 2
    42   45   40 2
    43   46   41 2
    44   47   41 2
    45    8   15 1
    46   12   15 1
    47   21   43 1
    48   34   36 ar
    49   37   38 1
@<TRIPOS>SUBSTRUCTURE
     1 RES1 1

@<TRIPOS>CRYSIN
   6.5230   13.6170   20.0360  90.0000  90.0000  90.0000  19 1

