# MOL2 file generated by ConQuest
# Please check atom types

@<TRIPOS>MOLECULE
POQPOB
    74    79     1
SMALL
NO_CHARGES
****
Generated from CSD

@<TRIPOS>ATOM
      1 O1         3.7325    2.5558    5.2983 O.3       1 RES1    0.0000
      2 O2        -1.4896    1.6909   -1.9014 O.2       1 RES1    0.0000
      3 O3        -1.9743    3.7113   -1.2657 O.2       1 RES1    0.0000
      4 N1         3.8914    4.1039    6.9958 N.2       1 RES1    0.0000
      5 N2         1.4665    2.3525    5.0582 N.2       1 RES1    0.0000
      6 N3         3.8021    1.4787    2.6264 N.3       1 RES1    0.0000
      7 H1         4.6363    1.5288    2.9888 H         1 RES1    0.0000
      8 N4        -1.2722    2.7065   -1.2356 N.pl3     1 RES1    0.0000
      9 C1         3.1898    3.5039    6.1336 C.2       1 RES1    0.0000
     10 C2         1.7010    3.5443    5.9122 C.3       1 RES1    0.0000
     11 C3         1.0660    3.5233    7.3283 C.3       1 RES1    0.0000
     12 H2         0.1175    3.8290    7.2439 H         1 RES1    0.0000
     13 C4         1.8218    4.5656    8.1446 C.2       1 RES1    0.0000
     14 H3         1.3181    5.0134    8.8094 H         1 RES1    0.0000
     15 C5         3.1089    4.8737    7.9258 C.2       1 RES1    0.0000
     16 C6         2.6102    1.9219    4.7223 C.2       1 RES1    0.0000
     17 C7         1.2432    4.7701    5.1067 C.ar      1 RES1    0.0000
     18 C8         2.0364    5.8934    4.9191 C.ar      1 RES1    0.0000
     19 H4         2.8993    5.9348    5.3145 H         1 RES1    0.0000
     20 C9         1.5741    6.9581    4.1555 C.ar      1 RES1    0.0000
     21 H5         2.1223    7.7248    4.0332 H         1 RES1    0.0000
     22 C10        0.3208    6.9095    3.5722 C.ar      1 RES1    0.0000
     23 H6         0.0097    7.6372    3.0470 H         1 RES1    0.0000
     24 C11       -0.4777    5.7922    3.7587 C.ar      1 RES1    0.0000
     25 H7        -1.3414    5.7577    3.3657 H         1 RES1    0.0000
     26 C12       -0.0221    4.7281    4.5156 C.ar      1 RES1    0.0000
     27 H8        -0.5729    3.9634    4.6340 H         1 RES1    0.0000
     28 C13        1.0554    2.1374    7.9504 C.ar      1 RES1    0.0000
     29 C14       -0.0830    1.3519    7.8274 C.ar      1 RES1    0.0000
     30 H9        -0.8471    1.7007    7.3838 H         1 RES1    0.0000
     31 C15       -0.1193    0.0658    8.3432 C.ar      1 RES1    0.0000
     32 H10       -0.9056   -0.4593    8.2495 H         1 RES1    0.0000
     33 C16        0.9805   -0.4550    8.9922 C.ar      1 RES1    0.0000
     34 H11        0.9564   -1.3376    9.3412 H         1 RES1    0.0000
     35 C17        2.1186    0.3166    9.1306 C.ar      1 RES1    0.0000
     36 H12        2.8770   -0.0364    9.5802 H         1 RES1    0.0000
     37 C18        2.1575    1.6025    8.6160 C.ar      1 RES1    0.0000
     38 H13        2.9442    2.1258    8.7189 H         1 RES1    0.0000
     39 C19        3.8889    5.9306    8.6231 C.ar      1 RES1    0.0000
     40 C20        3.5202    6.4276    9.8669 C.ar      1 RES1    0.0000
     41 H14        2.7336    6.1005   10.2865 H         1 RES1    0.0000
     42 C21        4.2842    7.3949   10.5040 C.ar      1 RES1    0.0000
     43 H15        4.0188    7.7231   11.3546 H         1 RES1    0.0000
     44 C22        5.4277    7.8820    9.9073 C.ar      1 RES1    0.0000
     45 H16        5.9530    8.5390   10.3490 H         1 RES1    0.0000
     46 C23        5.8052    7.4115    8.6687 C.ar      1 RES1    0.0000
     47 H17        6.5875    7.7506    8.2516 H         1 RES1    0.0000
     48 C24        5.0414    6.4394    8.0277 C.ar      1 RES1    0.0000
     49 H18        5.3098    6.1193    7.1750 H         1 RES1    0.0000
     50 C25        2.9416    0.8957    3.6697 C.3       1 RES1    0.0000
     51 H19        2.0793    0.6529    3.2257 H         1 RES1    0.0000
     52 C26        3.5348   -0.4109    4.2244 C.3       1 RES1    0.0000
     53 H20        3.4966   -1.0822    3.4841 H         1 RES1    0.0000
     54 C27        2.6735   -0.9465    5.3433 C.3       1 RES1    0.0000
     55 H21        2.9699   -1.8503    5.5793 H         1 RES1    0.0000
     56 H22        1.7383   -0.9761    5.0496 H         1 RES1    0.0000
     57 H23        2.7521   -0.3616    6.1263 H         1 RES1    0.0000
     58 C28        4.9975   -0.3013    4.6437 C.3       1 RES1    0.0000
     59 H24        5.0976    0.4244    5.2951 H         1 RES1    0.0000
     60 H25        5.5498   -0.1121    3.8566 H         1 RES1    0.0000
     61 H26        5.2859   -1.1456    5.0496 H         1 RES1    0.0000
     62 C29        3.3691    2.7864    2.1383 C.3       1 RES1    0.0000
     63 H27        4.1054    3.1933    1.6172 H         1 RES1    0.0000
     64 H28        3.1884    3.3744    2.9135 H         1 RES1    0.0000
     65 C30        2.1329    2.7249    1.2735 C.ar      1 RES1    0.0000
     66 C31        1.2701    3.8071    1.2388 C.ar      1 RES1    0.0000
     67 H29        1.4441    4.5570    1.7959 H         1 RES1    0.0000
     68 C32        0.1611    3.8205    0.4124 C.ar      1 RES1    0.0000
     69 H30       -0.4203    4.5711    0.3898 H         1 RES1    0.0000
     70 C33       -0.0800    2.7117   -0.3799 C.ar      1 RES1    0.0000
     71 C34        0.7514    1.6150   -0.3665 C.ar      1 RES1    0.0000
     72 H31        0.5686    0.8657   -0.9195 H         1 RES1    0.0000
     73 C35        1.8586    1.6199    0.4645 C.ar      1 RES1    0.0000
     74 H32        2.4355    0.8657    0.4845 H         1 RES1    0.0000
@<TRIPOS>BOND
     1    1    9 1
     2    2    8 2
     3    3    8 2
     4    4    9 2
     5    5   10 1
     6    6    7 1
     7    8   70 1
     8    9   10 1
     9   10   11 1
    10   11   12 1
    11   13   11 1
    12   14   13 1
    13   15    4 1
    14   16    1 1
    15   17   10 1
    16   18   17 ar
    17   19   18 1
    18   20   18 ar
    19   21   20 1
    20   22   20 ar
    21   23   22 1
    22   24   22 ar
    23   25   24 1
    24   26   17 ar
    25   27   26 1
    26   28   11 1
    27   29   28 ar
    28   30   29 1
    29   31   29 ar
    30   32   31 1
    31   33   31 ar
    32   34   33 1
    33   35   33 ar
    34   36   35 1
    35   37   28 ar
    36   38   37 1
    37   39   15 1
    38   40   39 ar
    39   41   40 1
    40   42   40 ar
    41   43   42 1
    42   44   42 ar
    43   45   44 1
    44   46   44 ar
    45   47   46 1
    46   48   39 ar
    47   49   48 1
    48   50    6 1
    49   51   50 1
    50   52   50 1
    51   53   52 1
    52   54   52 1
    53   55   54 1
    54   56   54 1
    55   57   54 1
    56   58   52 1
    57   59   58 1
    58   60   58 1
    59   61   58 1
    60   62    6 1
    61   63   62 1
    62   64   62 1
    63   65   62 1
    64   66   65 ar
    65   67   66 1
    66   68   66 ar
    67   69   68 1
    68   70   68 ar
    69   71   70 ar
    70   72   71 1
    71   73   65 ar
    72   74   73 1
    73    5   16 2
    74   13   15 2
    75   16   50 1
    76   24   26 ar
    77   35   37 ar
    78   46   48 ar
    79   71   73 ar
@<TRIPOS>SUBSTRUCTURE
     1 RES1 1

@<TRIPOS>CRYSIN
   6.2462   10.9131   21.5977  89.2207  85.5827  81.5275   2 1

