# MOL2 file generated by ConQuest
# Please check atom types

@<TRIPOS>MOLECULE
POQQET
    42    44     1
SMALL
NO_CHARGES
****
Generated from CSD

@<TRIPOS>ATOM
      1 O1         0.7275    2.8287    4.4615 O.3       1 RES1    0.0000
      2 O2        -0.4505    1.9697    4.6760 O.3       1 RES1    0.0000
      3 O3         1.1999    0.7512    3.7766 O.3       1 RES1    0.0000
      4 O4         4.4826    3.0717    5.6575 O.2       1 RES1    0.0000
      5 O5         5.8212   -3.4845    9.8198 O.2       1 RES1    0.0000
      6 O6         5.9728   -1.6496   10.9047 O.2       1 RES1    0.0000
      7 N1         5.6845   -2.2778    9.9132 N.pl3     1 RES1    0.0000
      8 C1         2.5786    1.6311    5.5791 C.3       1 RES1    0.0000
      9 C2         1.8336    1.9331    4.2238 C.3       1 RES1    0.0000
     10 C3         0.0841    0.6163    4.6437 C.3       1 RES1    0.0000
     11 C4         0.5478    0.2081    6.0213 C.3       1 RES1    0.0000
     12 H1         0.9932   -0.6522    5.9693 H         1 RES1    0.0000
     13 H2        -0.2214    0.1129    6.6045 H         1 RES1    0.0000
     14 C5         1.5039    1.2385    6.6088 C.3       1 RES1    0.0000
     15 H3         1.9308    0.8705    7.3988 H         1 RES1    0.0000
     16 H4         1.0066    2.0278    6.8760 H         1 RES1    0.0000
     17 C6        -0.9451   -0.2766    4.0287 C.3       1 RES1    0.0000
     18 H5        -1.0501   -0.0520    3.1018 H         1 RES1    0.0000
     19 H6        -1.7832   -0.1586    4.4836 H         1 RES1    0.0000
     20 H7        -0.6650   -1.1903    4.1082 H         1 RES1    0.0000
     21 C7         3.3248    2.9252    5.9704 C.2       1 RES1    0.0000
     22 C8         2.6117    4.0035    6.7074 C.3       1 RES1    0.0000
     23 H8         2.5334    3.7612    7.6332 H         1 RES1    0.0000
     24 H9         1.7352    4.1215    6.3320 H         1 RES1    0.0000
     25 H10        3.1056    4.8233    6.6310 H         1 RES1    0.0000
     26 C9         3.5937    0.4974    5.3309 C.3       1 RES1    0.0000
     27 H11        3.1700   -0.1751    4.7752 H         1 RES1    0.0000
     28 H12        4.3400    0.8603    4.8283 H         1 RES1    0.0000
     29 C10        4.1393   -0.1826    6.5674 C.ar      1 RES1    0.0000
     30 C11        4.6200    0.4924    7.6841 C.ar      1 RES1    0.0000
     31 H13        4.6112    1.4225    7.6862 H         1 RES1    0.0000
     32 C12        5.1115   -0.1726    8.7891 C.ar      1 RES1    0.0000
     33 H14        5.4108    0.2944    9.5346 H         1 RES1    0.0000
     34 C13        5.1430   -1.5545    8.7562 C.ar      1 RES1    0.0000
     35 C14        4.6869   -2.2600    7.6809 C.ar      1 RES1    0.0000
     36 H15        4.7094   -3.1901    7.6862 H         1 RES1    0.0000
     37 C15        4.1883   -1.5811    6.5833 C.ar      1 RES1    0.0000
     38 H16        3.8813   -2.0608    5.8474 H         1 RES1    0.0000
     39 C16        2.6532    2.5252    3.1220 C.3       1 RES1    0.0000
     40 H17        3.4524    2.0075    3.0053 H         1 RES1    0.0000
     41 H18        2.8858    3.4287    3.3468 H         1 RES1    0.0000
     42 H19        2.1453    2.5189    2.3076 H         1 RES1    0.0000
@<TRIPOS>BOND
     1    1    2 1
     2    2   10 1
     3    3    9 1
     4    4   21 2
     5    5    7 2
     6    6    7 2
     7    7   34 1
     8    8    9 1
     9    9    1 1
    10   10    3 1
    11   11   10 1
    12   12   11 1
    13   13   11 1
    14   14    8 1
    15   15   14 1
    16   16   14 1
    17   17   10 1
    18   18   17 1
    19   19   17 1
    20   20   17 1
    21   21    8 1
    22   22   21 1
    23   23   22 1
    24   24   22 1
    25   25   22 1
    26   26    8 1
    27   27   26 1
    28   28   26 1
    29   29   26 1
    30   30   29 ar
    31   31   30 1
    32   32   30 ar
    33   33   32 1
    34   34   32 ar
    35   35   34 ar
    36   36   35 1
    37   37   29 ar
    38   38   37 1
    39   39    9 1
    40   40   39 1
    41   41   39 1
    42   42   39 1
    43   11   14 1
    44   35   37 ar
@<TRIPOS>SUBSTRUCTURE
     1 RES1 1

@<TRIPOS>CRYSIN
  11.5499   12.6895   11.1559  90.0000 108.0880  90.0000   9 1

