# MOL2 file generated by ConQuest
# Please check atom types

@<TRIPOS>MOLECULE
POQSIY
    55    59     1
SMALL
NO_CHARGES
****
Generated from CSD

@<TRIPOS>ATOM
      1 C1         1.4521    2.6327    8.4030 C.ar      1 RES1    0.0000
      2 H1         0.8010    3.1368    8.8352 H         1 RES1    0.0000
      3 C2         1.4467    2.5767    7.0317 C.ar      1 RES1    0.0000
      4 H2         0.7945    3.0304    6.5506 H         1 RES1    0.0000
      5 C3         2.4142    1.8438    6.3649 C.ar      1 RES1    0.0000
      6 O1         2.3452    1.8793    5.0050 O.3       1 RES1    0.0000
      7 C4         3.3849    1.1782    7.0984 C.ar      1 RES1    0.0000
      8 H3         4.0425    0.6927    6.6556 H         1 RES1    0.0000
      9 C5         3.3871    1.2267    8.4966 C.ar      1 RES1    0.0000
     10 C6         4.4489    0.4575    9.2377 C.3       1 RES1    0.0000
     11 H4         5.3054    0.6115    8.8101 H         1 RES1    0.0000
     12 H5         4.2527   -0.4911    9.1753 H         1 RES1    0.0000
     13 C7         4.5497    0.8449   10.7039 C.3       1 RES1    0.0000
     14 H6         4.9814    1.7103   10.7812 H         1 RES1    0.0000
     15 H7         5.0957    0.1942   11.1731 H         1 RES1    0.0000
     16 C8         3.1672    0.9074   11.3455 C.3       1 RES1    0.0000
     17 H8         2.7015    0.0747   11.1228 H         1 RES1    0.0000
     18 C9         2.3921    2.0576   10.6948 C.3       1 RES1    0.0000
     19 H9         2.8691    2.8819   10.9246 H         1 RES1    0.0000
     20 C10        2.4072    1.9549    9.1749 C.ar      1 RES1    0.0000
     21 C11        0.9950    2.1808   11.2903 C.3       1 RES1    0.0000
     22 H10        0.4959    1.3668   11.1198 H         1 RES1    0.0000
     23 H11        0.5255    2.9174   10.8684 H         1 RES1    0.0000
     24 C12        1.0807    2.4226   12.7928 C.3       1 RES1    0.0000
     25 H12        0.1849    2.5123   13.1530 H         1 RES1    0.0000
     26 H13        1.5529    3.2535   12.9564 H         1 RES1    0.0000
     27 C13        1.8057    1.2771   13.5168 C.3       1 RES1    0.0000
     28 C14        3.2044    1.0185   12.8731 C.3       1 RES1    0.0000
     29 C15        4.0479    2.1659   13.4887 C.3       1 RES1    0.0000
     30 H14        3.7266    3.0453   13.2344 H         1 RES1    0.0000
     31 H15        4.9933    2.0837   13.2906 H         1 RES1    0.0000
     32 C16        3.7099    1.8065   14.9625 C.3       1 RES1    0.0000
     33 H16        4.1190    2.3694   15.6535 H         1 RES1    0.0000
     34 C17        2.1905    1.7962   14.9093 C.2       1 RES1    0.0000
     35 O2         1.4467    2.1435   15.7791 O.2       1 RES1    0.0000
     36 C18        0.8942    0.0607   13.6292 C.3       1 RES1    0.0000
     37 H17        1.2683   -0.5629   14.2561 H         1 RES1    0.0000
     38 H18        0.8134   -0.3594   12.7701 H         1 RES1    0.0000
     39 H19        0.0259    0.3380   13.9323 H         1 RES1    0.0000
     40 C19        3.8560   -0.1886   13.5882 C.3       1 RES1    0.0000
     41 H20        3.2593   -0.9532   13.6085 H         1 RES1    0.0000
     42 H21        4.6888   -0.4453   13.1619 H         1 RES1    0.0000
     43 C20        4.0937    0.3594   14.9696 C.2       1 RES1    0.0000
     44 N1         4.5572   -0.1951   16.0223 N.2       1 RES1    0.0000
     45 O3         4.9178   -1.5572   15.6702 O.3       1 RES1    0.0000
     46 C21        5.2305   -2.3283   16.7418 C.2       1 RES1    0.0000
     47 O4         5.0499   -1.9801   17.8637 O.2       1 RES1    0.0000
     48 C22        5.7948   -3.6157   16.2982 C.3       1 RES1    0.0000
     49 H22        6.0605   -4.1301   17.0642 H         1 RES1    0.0000
     50 H23        6.5602   -3.4552   15.7408 H         1 RES1    0.0000
     51 H24        5.1329   -4.1012   15.8014 H         1 RES1    0.0000
     52 C23        3.2351    1.0811    4.2557 C.3       1 RES1    0.0000
     53 H25        4.1282    1.4200    4.3518 H         1 RES1    0.0000
     54 H26        2.9817    1.1035    3.3300 H         1 RES1    0.0000
     55 H27        3.2000    0.1764    4.5751 H         1 RES1    0.0000
@<TRIPOS>BOND
     1    1    2 1
     2    3    1 ar
     3    4    3 1
     4    5    3 ar
     5    6    5 1
     6    7    5 ar
     7    8    7 1
     8    9    7 ar
     9   10    9 1
    10   11   10 1
    11   12   10 1
    12   13   10 1
    13   14   13 1
    14   15   13 1
    15   16   13 1
    16   17   16 1
    17   18   16 1
    18   19   18 1
    19   20    1 ar
    20   21   18 1
    21   22   21 1
    22   23   21 1
    23   24   21 1
    24   25   24 1
    25   26   24 1
    26   27   24 1
    27   28   16 1
    28   29   28 1
    29   30   29 1
    30   31   29 1
    31   32   29 1
    32   33   32 1
    33   34   27 1
    34   35   34 2
    35   36   27 1
    36   37   36 1
    37   38   36 1
    38   39   36 1
    39   40   28 1
    40   41   40 1
    41   42   40 1
    42   43   32 1
    43   44   43 2
    44   45   44 1
    45   46   45 1
    46   47   46 2
    47   48   46 1
    48   49   48 1
    49   50   48 1
    50   51   48 1
    51   52    6 1
    52   53   52 1
    53   54   52 1
    54   55   52 1
    55    9   20 ar
    56   18   20 1
    57   27   28 1
    58   32   34 1
    59   40   43 1
@<TRIPOS>SUBSTRUCTURE
     1 RES1 1

@<TRIPOS>CRYSIN
  10.7800   10.7800   14.7870  90.0000  90.0000 120.0000 144 1

