# MOL2 file generated by ConQuest
# Please check atom types

@<TRIPOS>MOLECULE
POQTAR
    89    92     1
SMALL
NO_CHARGES
****
Generated from CSD

@<TRIPOS>ATOM
      1 C1         2.6564   11.1439   17.6100 C.3       1 RES1    0.0000
      2 H1         2.2336   11.9644   17.3116 H         1 RES1    0.0000
      3 H2         3.0190   10.6974   16.8283 H         1 RES1    0.0000
      4 C2         1.5942   10.2403   18.2473 C.3       1 RES1    0.0000
      5 H3         1.1601   10.7150   18.9741 H         1 RES1    0.0000
      6 H4         0.9191   10.0199   17.5854 H         1 RES1    0.0000
      7 C3         2.2167    8.9627   18.7804 C.3       1 RES1    0.0000
      8 H5         2.5538    8.4271   18.0325 H         1 RES1    0.0000
      9 C4         3.3514    9.2499   19.7488 C.3       1 RES1    0.0000
     10 H6         3.7657    8.4154   20.0162 H         1 RES1    0.0000
     11 H7         2.9964    9.6777   20.5443 H         1 RES1    0.0000
     12 C5         4.3985   10.1547   19.1107 C.3       1 RES1    0.0000
     13 C6         5.5436   10.5028   20.0481 C.2       1 RES1    0.0000
     14 C7         6.6801   11.2576   19.4152 C.3       1 RES1    0.0000
     15 H8         7.1274   10.6892   18.7673 H         1 RES1    0.0000
     16 H9         7.3252   11.5038   20.0972 H         1 RES1    0.0000
     17 C8         6.1613   12.5305   18.7123 C.3       1 RES1    0.0000
     18 H10        5.8967   13.1786   19.3987 H         1 RES1    0.0000
     19 C9         4.9531   12.2504   17.8171 C.3       1 RES1    0.0000
     20 H11        5.2658   11.6550   17.1049 H         1 RES1    0.0000
     21 C10        3.8100   11.4967   18.5577 C.3       1 RES1    0.0000
     22 C11        4.5030   13.5549   17.1322 C.3       1 RES1    0.0000
     23 H12        4.1847   14.1749   17.8062 H         1 RES1    0.0000
     24 H13        3.7657   13.3615   16.5321 H         1 RES1    0.0000
     25 C12        5.6453   14.2159   16.3340 C.3       1 RES1    0.0000
     26 H14        5.8920   13.6381   15.5933 H         1 RES1    0.0000
     27 H15        5.3289   15.0551   15.9621 H         1 RES1    0.0000
     28 C13        6.8807   14.4820   17.1960 C.3       1 RES1    0.0000
     29 C14        7.2677   13.1470   17.8657 C.3       1 RES1    0.0000
     30 H16        7.4382   12.5153   17.1356 H         1 RES1    0.0000
     31 C15        8.6190   13.4330   18.5041 C.3       1 RES1    0.0000
     32 H17        9.1369   12.6184   18.6025 H         1 RES1    0.0000
     33 H18        8.5126   13.8467   19.3764 H         1 RES1    0.0000
     34 C16        9.2914   14.3988   17.5134 C.3       1 RES1    0.0000
     35 H19       10.0485   13.9698   17.0853 H         1 RES1    0.0000
     36 H20        9.6068   15.1911   17.9766 H         1 RES1    0.0000
     37 C17        8.2226   14.7832   16.4575 C.3       1 RES1    0.0000
     38 H21        8.2979   14.1327   15.7274 H         1 RES1    0.0000
     39 C18        6.5879   15.5861   18.2149 C.3       1 RES1    0.0000
     40 H22        6.3496   16.3924   17.7531 H         1 RES1    0.0000
     41 H23        7.3694   15.7419   18.7505 H         1 RES1    0.0000
     42 H24        5.8618   15.3141   18.7813 H         1 RES1    0.0000
     43 C19        3.2713   12.3430   19.7265 C.3       1 RES1    0.0000
     44 H25        3.9898   12.5539   20.3264 H         1 RES1    0.0000
     45 H26        2.5971   11.8460   20.1978 H         1 RES1    0.0000
     46 H27        2.8900   13.1540   19.3848 H         1 RES1    0.0000
     47 C20        8.4806   16.1826   15.8411 C.3       1 RES1    0.0000
     48 H28        8.3648   16.8531   16.5461 H         1 RES1    0.0000
     49 C21        7.4984   16.5014   14.7202 C.3       1 RES1    0.0000
     50 H29        6.6029   16.4827   15.0652 H         1 RES1    0.0000
     51 H30        7.5870   15.8486   14.0231 H         1 RES1    0.0000
     52 H31        7.6877   17.3746   14.3667 H         1 RES1    0.0000
     53 C22        9.9242   16.2600   15.3458 C.3       1 RES1    0.0000
     54 H32       10.0654   15.5380   14.7132 H         1 RES1    0.0000
     55 H33       10.5118   16.1006   16.1018 H         1 RES1    0.0000
     56 C23       10.3507   17.5692   14.6774 C.3       1 RES1    0.0000
     57 H34        9.8808   17.6653   13.8331 H         1 RES1    0.0000
     58 H35       10.0993   18.3146   15.2469 H         1 RES1    0.0000
     59 C24       11.8480   17.6149   14.4251 C.3       1 RES1    0.0000
     60 H36       12.1060   16.8038   13.9588 H         1 RES1    0.0000
     61 H37       12.3037   17.6172   15.2804 H         1 RES1    0.0000
     62 C25       12.3348   18.8080   13.6177 C.3       1 RES1    0.0000
     63 H38       11.7595   18.8936   12.8300 H         1 RES1    0.0000
     64 C26       12.2256   20.1008   14.4184 C.3       1 RES1    0.0000
     65 H39       12.5260   20.8369   13.8806 H         1 RES1    0.0000
     66 H40       12.7708   20.0364   15.2049 H         1 RES1    0.0000
     67 H41       11.3112   20.2426   14.6741 H         1 RES1    0.0000
     68 C27       13.7690   18.6158   13.1335 C.3       1 RES1    0.0000
     69 H42       14.0439   19.3870   12.6317 H         1 RES1    0.0000
     70 H43       13.8160   17.8376   12.5730 H         1 RES1    0.0000
     71 H44       14.3490   18.5021   13.8890 H         1 RES1    0.0000
     72 C28        0.3607    7.4520   18.8595 C.2       1 RES1    0.0000
     73 C29       -0.4529    6.5964   19.7659 C.3       1 RES1    0.0000
     74 H45       -0.1799    6.7440   20.6756 H         1 RES1    0.0000
     75 H46       -0.3211    5.6739   19.5384 H         1 RES1    0.0000
     76 H47       -1.3814    6.8214   19.6698 H         1 RES1    0.0000
     77 C30        5.7432    8.3873   18.1068 C.2       1 RES1    0.0000
     78 C31        6.0718    7.7309   16.8227 C.3       1 RES1    0.0000
     79 H48        5.6387    8.1974   16.1046 H         1 RES1    0.0000
     80 H49        5.7686    6.8202   16.8422 H         1 RES1    0.0000
     81 H50        7.0229    7.7485   16.6886 H         1 RES1    0.0000
     82 N1         5.3524   10.2579   21.2830 N.2       1 RES1    0.0000
     83 N2         6.3797   10.7115   22.1676 N.pl3     1 RES1    0.0000
     84 O1         6.1650   11.7300   22.7962 O.2       1 RES1    0.0000
     85 O2         1.2609    8.1776   19.5457 O.3       1 RES1    0.0000
     86 O3         4.9343    9.4714   17.9294 O.3       1 RES1    0.0000
     87 O4         0.2524    7.4977   17.6626 O.2       1 RES1    0.0000
     88 O5         6.1330    8.0485   19.1900 O.2       1 RES1    0.0000
     89 O6         7.3393    9.9871   22.2880 O.2       1 RES1    0.0000
@<TRIPOS>BOND
     1    1    2 1
     2    3    1 1
     3    4    1 1
     4    5    4 1
     5    6    4 1
     6    7    4 1
     7    8    7 1
     8    9    7 1
     9   10    9 1
    10   11    9 1
    11   12    9 1
    12   13   12 1
    13   14   13 1
    14   15   14 1
    15   16   14 1
    16   17   14 1
    17   18   17 1
    18   19   17 1
    19   20   19 1
    20   21    1 1
    21   22   19 1
    22   23   22 1
    23   24   22 1
    24   25   22 1
    25   26   25 1
    26   27   25 1
    27   28   25 1
    28   29   17 1
    29   30   29 1
    30   31   29 1
    31   32   31 1
    32   33   31 1
    33   34   31 1
    34   35   34 1
    35   36   34 1
    36   37   28 1
    37   38   37 1
    38   39   28 1
    39   40   39 1
    40   41   39 1
    41   42   39 1
    42   43   21 1
    43   44   43 1
    44   45   43 1
    45   46   43 1
    46   47   37 1
    47   48   47 1
    48   49   47 1
    49   50   49 1
    50   51   49 1
    51   52   49 1
    52   53   47 1
    53   54   53 1
    54   55   53 1
    55   56   53 1
    56   57   56 1
    57   58   56 1
    58   59   56 1
    59   60   59 1
    60   61   59 1
    61   62   59 1
    62   63   62 1
    63   64   62 1
    64   65   64 1
    65   66   64 1
    66   67   64 1
    67   68   62 1
    68   69   68 1
    69   70   68 1
    70   71   68 1
    71   72   73 1
    72   73   74 1
    73   75   73 1
    74   76   73 1
    75   77   78 1
    76   78   79 1
    77   80   78 1
    78   81   78 1
    79   82   13 2
    80   83   82 1
    81   84   83 2
    82   85    7 1
    83   86   12 1
    84   87   72 2
    85   88   77 2
    86   89   83 2
    87   12   21 1
    88   19   21 1
    89   28   29 1
    90   34   37 1
    91   72   85 1
    92   77   86 1
@<TRIPOS>SUBSTRUCTURE
     1 RES1 1

@<TRIPOS>CRYSIN
   9.4166   11.7206   27.9400  90.0000  90.0000  90.0000  19 1

