# MOL2 file generated by ConQuest
# Please check atom types

@<TRIPOS>MOLECULE
POQVUO
    20    20     1
SMALL
NO_CHARGES
****
Generated from CSD

@<TRIPOS>ATOM
      1 H1         0.7530    9.8376   -1.0141 H         1 RES1    0.0000
      2 H2         1.2382   11.8838   -1.7069 H         1 RES1    0.0000
      3 H3         2.5820   12.1682    2.1200 H         1 RES1    0.0000
      4 H4         2.2992    9.7466   -1.4194 H         1 RES1    0.0000
      5 H5         2.5456   14.4450    1.9901 H         1 RES1    0.0000
      6 H6         1.1993   14.1619   -1.8576 H         1 RES1    0.0000
      7 H7         1.7054    6.2090    0.2165 H         1 RES1    0.0000
      8 O1         1.9897   10.4342    0.4241 O.3       1 RES1    0.0000
      9 C1         2.3079   12.5530    1.3242 C.ar      1 RES1    0.0000
     10 C2         1.4910   12.3858   -0.9588 C.ar      1 RES1    0.0000
     11 C3         1.9172   11.7788    0.2262 C.ar      1 RES1    0.0000
     12 C4         1.4650   13.7675   -1.0368 C.ar      1 RES1    0.0000
     13 C5         1.7006    8.2099   -0.2567 C.1       1 RES1    0.0000
     14 C6         1.8652   14.5209    0.0595 C.ar      1 RES1    0.0000
     15 O2         2.2755   16.6268    0.9097 O.2       1 RES1    0.0000
     16 O3         1.3794   16.4964   -1.0453 O.2       1 RES1    0.0000
     17 C7         2.2854   13.9288    1.2446 C.ar      1 RES1    0.0000
     18 C8         1.6532    9.5985   -0.6951 C.3       1 RES1    0.0000
     19 N1         1.8424   15.9721   -0.0355 N.pl3     1 RES1    0.0000
     20 C9         1.7189    7.0528    0.0199 C.1       1 RES1    0.0000
@<TRIPOS>BOND
     1    1   18 1
     2    2   10 1
     3    3    9 1
     4    4   18 1
     5    5   17 1
     6    6   12 1
     7    7   20 1
     8    8   11 1
     9    9   11 ar
    10   10   11 ar
    11   12   10 ar
    12   13   18 1
    13   14   12 ar
    14   15   19 2
    15   16   19 2
    16   17    9 ar
    17   18    8 1
    18   19   14 1
    19   20   13 3
    20   14   17 ar
@<TRIPOS>SUBSTRUCTURE
     1 RES1 1

@<TRIPOS>CRYSIN
   7.2557   12.8127    8.9630  90.0000 104.9350  90.0000  14 1

