# MOL2 file generated by ConQuest
# Please check atom types

@<TRIPOS>MOLECULE
POQWEZ
    22    22     1
SMALL
NO_CHARGES
****
Generated from CSD

@<TRIPOS>ATOM
      1 O1         2.4204    0.9847    9.4231 O.3       1 RES1    0.0000
      2 O2         3.6180    2.7150   10.2159 O.2       1 RES1    0.0000
      3 O3         4.0726    6.6267    7.2422 O.2       1 RES1    0.0000
      4 C1         2.0097   -0.9806   10.6457 C.1       1 RES1    0.0000
      5 C2         2.6076    0.3450   10.7125 C.3       1 RES1    0.0000
      6 C3         2.7470    2.8148    7.9880 C.ar      1 RES1    0.0000
      7 N1         3.3759    6.1106    6.3714 N.pl3     1 RES1    0.0000
      8 C4         2.9878    2.1912    9.3218 C.2       1 RES1    0.0000
      9 O4         3.0332    6.6797    5.3386 O.2       1 RES1    0.0000
     10 C5         3.1608    4.1360    7.8066 C.ar      1 RES1    0.0000
     11 C6         2.9470    4.7148    6.5666 C.ar      1 RES1    0.0000
     12 C7         1.9702    2.7163    5.6979 C.ar      1 RES1    0.0000
     13 C8         2.3629    4.0382    5.5006 C.ar      1 RES1    0.0000
     14 C9         1.5189   -2.0747   10.6436 C.1       1 RES1    0.0000
     15 C10        2.1511    2.1061    6.9389 C.ar      1 RES1    0.0000
     16 H1         3.5466    4.6304    8.5011 H         1 RES1    0.0000
     17 H2         2.3659    4.4661    4.5814 H         1 RES1    0.0000
     18 H3         2.1479    0.8290   11.4567 H         1 RES1    0.0000
     19 H4         1.6022    2.2256    4.9518 H         1 RES1    0.0000
     20 H5         1.8121    1.2398    6.9934 H         1 RES1    0.0000
     21 H6         3.6129    0.2763   10.8905 H         1 RES1    0.0000
     22 H7         1.0415   -2.9874   10.5961 H         1 RES1    0.0000
@<TRIPOS>BOND
     1    1    5 1
     2    2    8 2
     3    3    7 2
     4    4    5 1
     5    5   18 1
     6    6    8 1
     7    7    9 2
     8    8    1 1
     9   10    6 ar
    10   11    7 1
    11   12   13 ar
    12   13   11 ar
    13   14    4 3
    14   15    6 ar
    15   16   10 1
    16   17   13 1
    17   19   12 1
    18   20   15 1
    19   21    5 1
    20   22   14 1
    21   10   11 ar
    22   12   15 ar
@<TRIPOS>SUBSTRUCTURE
     1 RES1 1

