# MOL2 file generated by ConQuest
# Please check atom types

@<TRIPOS>MOLECULE
POQWUP
    22    22     1
SMALL
NO_CHARGES
****
Generated from CSD

@<TRIPOS>ATOM
      1 O1         3.6984    5.4226    3.3037 O.2       1 RES1    0.0000
      2 O2         1.1575    7.5297    4.0687 O.2       1 RES1    0.0000
      3 C1         1.3093    6.7171    3.1948 C.2       1 RES1    0.0000
      4 O3         1.7760    6.9919    1.9738 O.3       1 RES1    0.0000
      5 O4         3.7653    3.6262    2.0917 O.2       1 RES1    0.0000
      6 N1         3.1698    4.4380    2.7946 N.pl3     1 RES1    0.0000
      7 C2         2.3238    8.5673    0.3357 C.1       1 RES1    0.0000
      8 C3         2.2360    8.3542    1.7717 C.3       1 RES1    0.0000
      9 C4         0.9064    5.2856    3.3181 C.ar      1 RES1    0.0000
     10 C5         0.0094    2.6487    3.5211 C.ar      1 RES1    0.0000
     11 C6         2.3837    8.7590   -0.8404 C.1       1 RES1    0.0000
     12 C7         1.3247    2.8916    3.1623 C.ar      1 RES1    0.0000
     13 C8         1.7528    4.2067    3.0697 C.ar      1 RES1    0.0000
     14 C9        -0.4124    5.0156    3.6718 C.ar      1 RES1    0.0000
     15 C10       -0.8557    3.7005    3.7718 C.ar      1 RES1    0.0000
     16 H1         1.9640    2.1995    3.0064 H         1 RES1    0.0000
     17 H2        -1.0121    5.7597    3.8542 H         1 RES1    0.0000
     18 H3        -0.2847    1.7428    3.6737 H         1 RES1    0.0000
     19 H4         1.6050    8.9548    2.1979 H         1 RES1    0.0000
     20 H5         3.0917    8.4314    2.2058 H         1 RES1    0.0000
     21 H6        -1.7765    3.5276    3.9798 H         1 RES1    0.0000
     22 H7         2.4957    8.9098   -1.7583 H         1 RES1    0.0000
@<TRIPOS>BOND
     1    1    6 2
     2    2    3 2
     3    3    4 1
     4    4    8 1
     5    5    6 2
     6    6   13 1
     7    7    8 1
     8    8   19 1
     9    9    3 1
    10   10   12 ar
    11   11    7 3
    12   12   13 ar
    13   13    9 ar
    14   14    9 ar
    15   15   10 ar
    16   16   12 1
    17   17   14 1
    18   18   10 1
    19   20    8 1
    20   21   15 1
    21   22   11 1
    22   14   15 ar
@<TRIPOS>SUBSTRUCTURE
     1 RES1 1

@<TRIPOS>CRYSIN
   7.6698   15.5331    7.9534  90.0000  99.2630  90.0000  14 1

