# MOL2 file generated by ConQuest
# Please check atom types

@<TRIPOS>MOLECULE
POQWID
    22    22     1
SMALL
NO_CHARGES
****
Generated from CSD

@<TRIPOS>ATOM
      1 H1         1.6270    1.5160    8.1553 H         1 RES1    0.0000
      2 H2         0.4959    1.5533    9.2874 H         1 RES1    0.0000
      3 H3        -0.6900   -1.5619    6.9703 H         1 RES1    0.0000
      4 H4         0.3298    6.4017    8.6685 H         1 RES1    0.0000
      5 H5        -0.5798    8.1574    7.4534 H         1 RES1    0.0000
      6 H6        -1.9667    5.5550    4.6475 H         1 RES1    0.0000
      7 H7        -1.0551    3.7720    5.8872 H         1 RES1    0.0000
      8 C1         0.6758    1.4791    8.3340 C.3       1 RES1    0.0000
      9 C2         0.1196    0.2537    7.7804 C.1       1 RES1    0.0000
     10 C3        -0.3213   -0.7555    7.3426 C.1       1 RES1    0.0000
     11 C4         0.3325    3.7995    8.1742 C.2       1 RES1    0.0000
     12 C5        -0.2792    4.9067    7.3796 C.ar      1 RES1    0.0000
     13 C6        -0.1325    6.2120    7.8487 C.ar      1 RES1    0.0000
     14 C7        -0.6734    7.2714    7.1418 C.ar      1 RES1    0.0000
     15 C8        -1.3486    6.9926    5.9653 C.ar      1 RES1    0.0000
     16 C9        -1.5073    5.7092    5.4700 C.ar      1 RES1    0.0000
     17 C10       -0.9627    4.6564    6.1897 C.ar      1 RES1    0.0000
     18 N1        -1.9600    8.1046    5.2189 N.pl3     1 RES1    0.0000
     19 O1         0.0405    2.5972    7.6604 O.3       1 RES1    0.0000
     20 O2         1.0173    3.9610    9.1518 O.2       1 RES1    0.0000
     21 O3        -2.6430    7.8368    4.2443 O.2       1 RES1    0.0000
     22 O4        -1.7716    9.2490    5.6206 O.2       1 RES1    0.0000
@<TRIPOS>BOND
     1    1    8 1
     2    2    8 1
     3    3   10 1
     4    4   13 1
     5    5   14 1
     6    6   16 1
     7    7   17 1
     8    8    9 1
     9    9   10 3
    10   11   12 1
    11   12   13 ar
    12   13   14 ar
    13   14   15 ar
    14   15   16 ar
    15   16   17 ar
    16   17   12 ar
    17   18   15 1
    18   19    8 1
    19   20   11 2
    20   21   18 2
    21   22   18 2
    22   11   19 1
@<TRIPOS>SUBSTRUCTURE
     1 RES1 1

@<TRIPOS>CRYSIN
   3.9683   12.4161   18.9360  90.0000  94.8120  90.0000  14 1

