# MOL2 file generated by ConQuest
# Please check atom types

@<TRIPOS>MOLECULE
POSGEK
    35    37     1
SMALL
NO_CHARGES
****
Generated from CSD

@<TRIPOS>ATOM
      1 N1        -0.5655    4.2133    2.2124 N.3       1 RES1    0.0000
      2 O1         0.8040    2.7204    5.9205 O.3       1 RES1    0.0000
      3 O2        -0.2979    4.6214    5.2669 O.3       1 RES1    0.0000
      4 O3         2.5071    0.9988    4.5195 O.3       1 RES1    0.0000
      5 H1         1.9058    0.4704    4.3417 H         1 RES1    0.0000
      6 O4         0.1007    3.0405    1.6486 O.3       1 RES1    0.0000
      7 C1        -0.0170    3.7794    6.4159 C.3       1 RES1    0.0000
      8 C2        -1.3094    3.2660    6.9485 C.3       1 RES1    0.0000
      9 H2        -1.7766    2.7945    6.2546 H         1 RES1    0.0000
     10 H3        -1.8458    4.0028    7.2519 H         1 RES1    0.0000
     11 H4        -1.1395    2.6710    7.6824 H         1 RES1    0.0000
     12 C3         0.7930    4.5441    7.4553 C.3       1 RES1    0.0000
     13 H5         1.6067    4.8609    7.0575 H         1 RES1    0.0000
     14 H6         1.0018    3.9620    8.1892 H         1 RES1    0.0000
     15 H7         0.2803    5.2905    7.7750 H         1 RES1    0.0000
     16 C4         0.8950    2.8364    4.4683 C.3       1 RES1    0.0000
     17 H8         0.1371    2.3854    4.0401 H         1 RES1    0.0000
     18 C5         2.2007    2.2823    3.9506 C.3       1 RES1    0.0000
     19 H9         2.9124    2.9019    4.2127 H         1 RES1    0.0000
     20 C6         2.2165    2.1738    2.3943 C.3       1 RES1    0.0000
     21 H10        3.1430    2.1287    2.1109 H         1 RES1    0.0000
     22 H11        1.8033    1.3296    2.1527 H         1 RES1    0.0000
     23 C7         1.5363    3.2714    1.5797 C.3       1 RES1    0.0000
     24 H12        1.8282    3.2080    0.6467 H         1 RES1    0.0000
     25 C8         1.7426    4.6998    2.0733 C.3       1 RES1    0.0000
     26 H13        1.7808    5.3270    1.3352 H         1 RES1    0.0000
     27 H14        2.5520    4.7782    2.6032 H         1 RES1    0.0000
     28 C9         0.4915    4.9168    2.9282 C.3       1 RES1    0.0000
     29 H15        0.2828    5.8716    2.9865 H         1 RES1    0.0000
     30 C10        0.7633    4.3486    4.3257 C.3       1 RES1    0.0000
     31 H16        1.5855    4.7589    4.6668 H         1 RES1    0.0000
     32 C11       -1.0655    5.0016    1.0696 C.3       1 RES1    0.0000
     33 H17       -1.7596    4.5119    0.6231 H         1 RES1    0.0000
     34 H18       -0.3452    5.1681    0.4560 H         1 RES1    0.0000
     35 H19       -1.4162    5.8372    1.3861 H         1 RES1    0.0000
@<TRIPOS>BOND
     1    1    6 1
     2    2    7 1
     3    3    7 1
     4    4    5 1
     5    6   23 1
     6    7    8 1
     7    8    9 1
     8   10    8 1
     9   11    8 1
    10   12    7 1
    11   13   12 1
    12   14   12 1
    13   15   12 1
    14   16    2 1
    15   17   16 1
    16   18    4 1
    17   19   18 1
    18   20   18 1
    19   21   20 1
    20   22   20 1
    21   23   20 1
    22   24   23 1
    23   25   23 1
    24   26   25 1
    25   27   25 1
    26   28    1 1
    27   29   28 1
    28   30    3 1
    29   31   30 1
    30   32    1 1
    31   33   32 1
    32   34   32 1
    33   35   32 1
    34   16   18 1
    35   16   30 1
    36   25   28 1
    37   28   30 1
@<TRIPOS>SUBSTRUCTURE
     1 RES1 1

@<TRIPOS>CRYSIN
   6.0676   10.7400   18.1660  90.0000  90.0000  90.0000  19 1

