# MOL2 file generated by ConQuest
# Please check atom types

@<TRIPOS>MOLECULE
POTLUF
    25    25     1
SMALL
NO_CHARGES
****
Generated from CSD

@<TRIPOS>ATOM
      1 N1         5.9234    2.1278    0.6594 N.2       1 RES1    0.0000
      2 O1         7.9727   -1.4096    2.0671 O.3       1 RES1    0.0000
      3 C1         7.0393   -1.6309   -1.3003 C.2       1 RES1    0.0000
      4 H1         6.3423   -2.2437   -1.2378 H         1 RES1    0.0000
      5 H2         7.4257   -1.4504   -2.1276 H         1 RES1    0.0000
      6 O2         6.3883   -0.2031    3.1500 O.3       1 RES1    0.0000
      7 C2         7.4749   -1.0267   -0.2319 C.2       1 RES1    0.0000
      8 H3         8.1724   -0.4188   -0.3202 H         1 RES1    0.0000
      9 O3         4.6188    1.7359    0.3639 O.3       1 RES1    0.0000
     10 H4         4.1591    2.4415   -0.0089 H         1 RES1    0.0000
     11 C3         6.9044   -1.2653    1.1306 C.3       1 RES1    0.0000
     12 H5         6.3574   -2.0786    1.1234 H         1 RES1    0.0000
     13 C4         6.1028   -0.1027    1.7541 C.3       1 RES1    0.0000
     14 H6         5.1438   -0.2115    1.5861 H         1 RES1    0.0000
     15 C5         6.5770    1.2412    1.2866 C.2       1 RES1    0.0000
     16 H7         7.4618    1.4505    1.4817 H         1 RES1    0.0000
     17 C6         7.4200   -1.1630    3.3580 C.3       1 RES1    0.0000
     18 C7         6.8218   -2.4144    3.9471 C.3       1 RES1    0.0000
     19 H8         7.5141   -3.0641    4.0900 H         1 RES1    0.0000
     20 H9         6.1666   -2.7718    3.3431 H         1 RES1    0.0000
     21 H10        6.4034   -2.2044    4.7863 H         1 RES1    0.0000
     22 C8         8.4804   -0.5256    4.2283 C.3       1 RES1    0.0000
     23 H11        9.1884   -1.1556    4.3831 H         1 RES1    0.0000
     24 H12        8.0924   -0.2677    5.0689 H         1 RES1    0.0000
     25 H13        8.8333    0.2505    3.7879 H         1 RES1    0.0000
@<TRIPOS>BOND
     1    1    9 1
     2    2   11 1
     3    3    4 1
     4    5    3 1
     5    6   13 1
     6    7    3 2
     7    8    7 1
     8    9   10 1
     9   11    7 1
    10   12   11 1
    11   13   11 1
    12   14   13 1
    13   15    1 2
    14   16   15 1
    15   17    2 1
    16   18   17 1
    17   19   18 1
    18   20   18 1
    19   21   18 1
    20   22   17 1
    21   23   22 1
    22   24   22 1
    23   25   22 1
    24    6   17 1
    25   13   15 1
@<TRIPOS>SUBSTRUCTURE
     1 RES1 1

@<TRIPOS>CRYSIN
   5.2290   12.2810   14.8780  90.0000  90.0000  90.0000  19 1

