# MOL2 file generated by ConQuest
# Please check atom types

@<TRIPOS>MOLECULE
POVHUD
    32    34     1
SMALL
NO_CHARGES
****
Generated from CSD

@<TRIPOS>ATOM
      1 O1        13.6246    4.1713    5.3772 O.3       1 RES1    0.0000
      2 N1        13.7565    0.2972    4.9657 N.pl3     1 RES1    0.0000
      3 N2        14.0563   -1.8708    4.8059 N.2       1 RES1    0.0000
      4 N3        12.8619    3.7216    4.3049 N.2       1 RES1    0.0000
      5 C1        11.8380    1.9028    3.2222 C.ar      1 RES1    0.0000
      6 C2        11.9198    2.4323    1.9620 C.ar      1 RES1    0.0000
      7 C3        11.1332    2.5414   -0.3898 C.ar      1 RES1    0.0000
      8 C4        10.2997    2.0995   -1.3715 C.ar      1 RES1    0.0000
      9 C5         9.3976    1.0641   -1.1133 C.ar      1 RES1    0.0000
     10 C6         9.3211    0.5000    0.1163 C.ar      1 RES1    0.0000
     11 C7        10.0806    0.4263    2.4822 C.ar      1 RES1    0.0000
     12 C8        10.8920    0.8752    3.4766 C.ar      1 RES1    0.0000
     13 C9        11.0813    1.9895    0.9113 C.ar      1 RES1    0.0000
     14 C10       10.1477    0.9540    1.1797 C.ar      1 RES1    0.0000
     15 C11       12.6667    2.4487    4.3215 C.2       1 RES1    0.0000
     16 C12       13.1816    1.5606    5.4194 C.3       1 RES1    0.0000
     17 C13       14.9246    0.1066    4.2933 C.2       1 RES1    0.0000
     18 C14       15.0927   -1.2226    4.2026 C.2       1 RES1    0.0000
     19 C15       13.2831   -0.9176    5.2507 C.2       1 RES1    0.0000
     20 H1        13.7996    5.1817    5.0743 H         1 RES1    0.0000
     21 H2        12.5583    3.1194    1.7894 H         1 RES1    0.0000
     22 H3        11.7720    3.2234   -0.5880 H         1 RES1    0.0000
     23 H4        10.3227    2.5042   -2.2368 H         1 RES1    0.0000
     24 H5         8.8427    0.7452   -1.8150 H         1 RES1    0.0000
     25 H6         8.7021   -0.2080    0.2812 H         1 RES1    0.0000
     26 H7         9.4504   -0.2513    2.6714 H         1 RES1    0.0000
     27 H8        10.8349    0.5026    4.3458 H         1 RES1    0.0000
     28 H9        15.4936    0.7885    3.9495 H         1 RES1    0.0000
     29 H10       15.8294   -1.6550    3.7834 H         1 RES1    0.0000
     30 H11       12.4719   -1.0658    5.7262 H         1 RES1    0.0000
     31 H12       13.7625    2.0103    5.9307 H         1 RES1    0.0000
     32 H13       12.4815    1.3171    6.0841 H         1 RES1    0.0000
@<TRIPOS>BOND
     1    1    4 1
     2    2   16 1
     3    3   18 1
     4    4   15 2
     5    5    6 ar
     6    6   13 ar
     7    7    8 ar
     8    8    9 ar
     9    9   10 ar
    10   10   14 ar
    11   11   12 ar
    12   12    5 ar
    13   13    7 ar
    14   14   11 ar
    15   15    5 1
    16   16   15 1
    17   17    2 1
    18   18   17 2
    19   19    2 1
    20   20    1 1
    21   21    6 1
    22   22    7 1
    23   23    8 1
    24   24    9 1
    25   25   10 1
    26   26   11 1
    27   27   12 1
    28   28   17 1
    29   29   18 1
    30   30   19 1
    31   31   16 1
    32   32   16 1
    33    3   19 2
    34   13   14 ar
@<TRIPOS>SUBSTRUCTURE
     1 RES1 1

@<TRIPOS>CRYSIN
  11.3010    8.6650   13.4220  90.0000 107.7700  90.0000  14 2

