# MOL2 file generated by ConQuest
# Please check atom types

@<TRIPOS>MOLECULE
POVKOA
    29    30     1
SMALL
NO_CHARGES
****
Generated from CSD

@<TRIPOS>ATOM
      1 O1         4.4130   -4.3521    6.5347 O.2       1 RES1    0.0000
      2 O2         3.1890   -3.9345    4.8254 O.2       1 RES1    0.0000
      3 N1         3.5295   -3.7293    5.9772 N.pl3     1 RES1    0.0000
      4 N2        -0.3897    0.8463    6.5987 N.2       1 RES1    0.0000
      5 N3        -3.8875    4.2061    3.8129 N.3       1 RES1    0.0000
      6 C1         0.1996   -0.1582    6.0939 C.2       1 RES1    0.0000
      7 C2         1.2361   -0.9137    6.7896 C.ar      1 RES1    0.0000
      8 C3         1.6794   -0.5962    8.0724 C.ar      1 RES1    0.0000
      9 C4         2.6955   -1.3129    8.6585 C.ar      1 RES1    0.0000
     10 C5         3.2936   -2.3644    8.0045 C.ar      1 RES1    0.0000
     11 C6         2.8592   -2.6543    6.7312 C.ar      1 RES1    0.0000
     12 C7         1.8479   -1.9611    6.1249 C.ar      1 RES1    0.0000
     13 C8        -1.3031    1.6161    5.8438 C.ar      1 RES1    0.0000
     14 C9        -2.0458    2.5737    6.5168 C.ar      1 RES1    0.0000
     15 C10       -2.9004    3.4190    5.8617 C.ar      1 RES1    0.0000
     16 C11       -3.0313    3.3720    4.4740 C.ar      1 RES1    0.0000
     17 C12       -2.2930    2.4052    3.7950 C.ar      1 RES1    0.0000
     18 C13       -1.4441    1.5528    4.4549 C.ar      1 RES1    0.0000
     19 H1         0.0025   -0.4227    5.2113 H         1 RES1    0.0000
     20 H2         1.2882    0.1439    8.5310 H         1 RES1    0.0000
     21 H3         3.0294   -1.0730    9.4661 H         1 RES1    0.0000
     22 H4         3.9637   -2.8657    8.3643 H         1 RES1    0.0000
     23 H5         1.4986   -2.2266    5.2661 H         1 RES1    0.0000
     24 H6        -1.9456    2.6462    7.5269 H         1 RES1    0.0000
     25 H7        -3.3593    4.1061    6.3060 H         1 RES1    0.0000
     26 H8        -2.3180    2.3981    2.8611 H         1 RES1    0.0000
     27 H9        -0.9099    0.8892    3.9510 H         1 RES1    0.0000
     28 H10       -4.2775    4.8625    4.2965 H         1 RES1    0.0000
     29 H11       -3.7538    4.3204    2.9767 H         1 RES1    0.0000
@<TRIPOS>BOND
     1    1    3 2
     2    2    3 2
     3    3   11 1
     4    4    6 2
     5    5   16 1
     6    6    7 1
     7    7    8 ar
     8    8    9 ar
     9    9   10 ar
    10   10   11 ar
    11   11   12 ar
    12   12    7 ar
    13   13    4 1
    14   14   13 ar
    15   15   14 ar
    16   16   15 ar
    17   17   16 ar
    18   18   13 ar
    19   19    6 1
    20   20    8 1
    21   21    9 1
    22   22   10 1
    23   23   12 1
    24   24   14 1
    25   25   15 1
    26   26   17 1
    27   27   18 1
    28   28    5 1
    29   29    5 1
    30   17   18 ar
@<TRIPOS>SUBSTRUCTURE
     1 RES1 1

@<TRIPOS>CRYSIN
   9.6170   10.2090   12.7210  90.0000 110.5500  90.0000 231 1

