# MOL2 file generated by ConQuest
# Please check atom types

@<TRIPOS>MOLECULE
POVKAO
    20    20     1
SMALL
USER_CHARGES
****
Generated from CSD

@<TRIPOS>ATOM
      1 O1        -1.7679    2.2851    0.1997 O.3       1 RES1    0.0000
      2 O2        -1.4320    2.9107    2.3553 O.2       1 RES1   -1.0000
      3 O3         2.3851    1.9209    3.9200 O.3       1 RES1    0.0000
      4 O4         3.2637    0.2559   -1.6128 O.3       1 RES1    0.0000
      5 N1        -0.9073    2.4511    1.3492 N.pl3     1 RES1    1.0000
      6 N2        -1.0127    1.7879   -0.8252 N.2       1 RES1    0.0000
      7 N3         1.2498    1.6710    3.1092 N.2       1 RES1    0.0000
      8 N4         2.5560    2.8441    1.5309 N.3       1 RES1    0.0000
      9 N5         2.3337    0.7314   -0.6540 N.2       1 RES1    0.0000
     10 N6         1.0115    1.1378   -2.5738 N.3       1 RES1    0.0000
     11 C1         0.3109    2.0648    1.0023 C.2       1 RES1    0.0000
     12 C2         0.2156    1.6646   -0.3559 C.2       1 RES1    0.0000
     13 C3         1.4520    2.1730    1.9364 C.2       1 RES1    0.0000
     14 C4         1.2694    1.1574   -1.2576 C.2       1 RES1    0.0000
     15 H1         3.2412    2.7707    2.0197 H         1 RES1    0.0000
     16 H2         1.6978    1.0950   -3.1760 H         1 RES1    0.0000
     17 H3         2.6306    2.8960    0.7208 H         1 RES1    0.0000
     18 H4         0.3071    1.4984   -2.8231 H         1 RES1    0.0000
     19 H5         2.2716    1.4408    4.6251 H         1 RES1    0.0000
     20 H6         3.8028   -0.0576   -1.1563 H         1 RES1    0.0000
@<TRIPOS>BOND
     1    1    5 1
     2    2    5 1
     3    3    7 1
     4    4    9 1
     5    5   11 2
     6    6    1 1
     7    7   13 2
     8    8   13 1
     9    9   14 2
    10   10   14 1
    11   11   12 1
    12   12    6 2
    13   13   11 1
    14   14   12 1
    15   15    8 1
    16   16   10 1
    17   17    8 1
    18   18   10 1
    19   19    3 1
    20   20    4 1
@<TRIPOS>SUBSTRUCTURE
     1 RES1 1

@<TRIPOS>CRYSIN
   6.9708   14.4080    7.8104  90.0000 105.9900  90.0000 231 1

