# MOL2 file generated by ConQuest
# Please check atom types

@<TRIPOS>MOLECULE
POXXUV
    32    33     1
SMALL
NO_CHARGES
****
Generated from CSD

@<TRIPOS>ATOM
      1 O1         6.8377    2.4849    7.6378 O.3       1 RES1    0.0000
      2 C1         5.4266    2.3900    7.6104 C.3       1 RES1    0.0000
      3 N1         5.1519    1.8550    6.2206 N.pl3     1 RES1    0.0000
      4 C2         6.2213    1.9582    5.4768 C.2       1 RES1    0.0000
      5 C3         7.3057    2.5589    6.3107 C.3       1 RES1    0.0000
      6 O2         3.9881    1.4278    5.8722 O.2       1 RES1    0.0000
      7 C4         4.7789    3.7557    7.6652 C.3       1 RES1    0.0000
      8 C5         4.8857    1.4287    8.6321 C.3       1 RES1    0.0000
      9 O3         7.0675    0.0529    2.5642 O.3       1 RES1    0.0000
     10 C6         7.7203    1.2689    2.3411 C.3       1 RES1    0.0000
     11 O4         7.3695    2.1225    3.4372 O.3       1 RES1    0.0000
     12 C7         6.2337    1.5802    4.0518 C.3       1 RES1    0.0000
     13 C8         6.4166    0.1086    3.7660 C.3       1 RES1    0.0000
     14 C9         9.2350    1.1183    2.3606 C.3       1 RES1    0.0000
     15 C10        7.2204    1.8687    1.0609 C.3       1 RES1    0.0000
     16 H1         7.3942    3.3558    6.0993 H         1 RES1    0.0000
     17 H2         7.8238    1.8897    6.0327 H         1 RES1    0.0000
     18 H3         3.8924    3.6169    7.3951 H         1 RES1    0.0000
     19 H4         4.8036    3.7520    8.6987 H         1 RES1    0.0000
     20 H5         5.1226    4.3728    7.0310 H         1 RES1    0.0000
     21 H6         5.7605    0.5477    8.4521 H         1 RES1    0.0000
     22 H7         4.9664    1.4853    9.5795 H         1 RES1    0.0000
     23 H8         3.5865    1.3328    8.6635 H         1 RES1    0.0000
     24 H9         5.6042    2.0905    3.4959 H         1 RES1    0.0000
     25 H10        5.8646   -0.3195    3.7386 H         1 RES1    0.0000
     26 H11        6.9386   -0.3524    4.5607 H         1 RES1    0.0000
     27 H12        9.5812    2.2129    2.2549 H         1 RES1    0.0000
     28 H13        9.3665    0.6682    3.3785 H         1 RES1    0.0000
     29 H14        9.3404    0.4510    1.5894 H         1 RES1    0.0000
     30 H15        7.3422    2.5379    0.8691 H         1 RES1    0.0000
     31 H16        7.3877    1.3876    0.3132 H         1 RES1    0.0000
     32 H17        6.0534    2.0266    1.1353 H         1 RES1    0.0000
@<TRIPOS>BOND
     1    1    2 1
     2    2    3 1
     3    3    4 2
     4    4    5 1
     5    5    1 1
     6    6    3 1
     7    7    2 1
     8    8    2 1
     9    9   10 1
    10   10   11 1
    11   11   12 1
    12   12    4 1
    13   13    9 1
    14   14   10 1
    15   15   10 1
    16   16    5 1
    17   17    5 1
    18   18    7 1
    19   19    7 1
    20   20    7 1
    21   21    8 1
    22   22    8 1
    23   23    8 1
    24   24   12 1
    25   25   13 1
    26   26   13 1
    27   27   14 1
    28   28   14 1
    29   29   14 1
    30   30   15 1
    31   31   15 1
    32   32   15 1
    33   12   13 1
@<TRIPOS>SUBSTRUCTURE
     1 RES1 1

@<TRIPOS>CRYSIN
   6.5090    9.1290   39.1480  90.0000  90.0000  90.0000  20 1

