# MOL2 file generated by ConQuest
# Please check atom types

@<TRIPOS>MOLECULE
POXXEF
    30    32     1
SMALL
NO_CHARGES
****
Generated from CSD

@<TRIPOS>ATOM
      1 C1        10.5944    2.6305    1.3024 C.3       1 RES1    0.0000
      2 O1        10.1072    3.2673    2.4959 O.3       1 RES1    0.0000
      3 N1         9.9672    4.6689    2.2013 N.3       1 RES1    0.0000
      4 C2         9.5113    4.7062    0.8030 C.3       1 RES1    0.0000
      5 C3         7.9759    4.7741    0.6653 C.3       1 RES1    0.0000
      6 O2         7.5461    3.4195    0.6010 O.3       1 RES1    0.0000
      7 C4         8.5030    2.7485   -0.2195 C.3       1 RES1    0.0000
      8 C5         8.3510    1.2599   -0.0254 C.3       1 RES1    0.0000
      9 C6         8.8805    0.7922    1.3238 C.3       1 RES1    0.0000
     10 C7        10.3483    1.1478    1.4390 C.3       1 RES1    0.0000
     11 C8         9.8659    3.3416    0.1715 C.3       1 RES1    0.0000
     12 C9        11.2746    5.3008    2.3763 C.3       1 RES1    0.0000
     13 C10        7.2330    5.4822    1.7499 C.3       1 RES1    0.0000
     14 H1        11.5581    2.7927    1.2195 H         1 RES1    0.0000
     15 H2         9.9395    5.4394    0.3143 H         1 RES1    0.0000
     16 H3         7.7625    5.2049   -0.1879 H         1 RES1    0.0000
     17 H4         8.3221    2.9654   -1.1579 H         1 RES1    0.0000
     18 H5         8.8299    0.7967   -0.7313 H         1 RES1    0.0000
     19 H6         7.4127    1.0239   -0.0982 H         1 RES1    0.0000
     20 H7         8.3812    1.2186    2.0383 H         1 RES1    0.0000
     21 H8         8.7671   -0.1682    1.4062 H         1 RES1    0.0000
     22 H9        10.6812    0.8498    2.2995 H         1 RES1    0.0000
     23 H10       10.8440    0.6801    0.7494 H         1 RES1    0.0000
     24 H11       10.4448    3.4507   -0.6117 H         1 RES1    0.0000
     25 H12       11.1866    6.2523    2.2764 H         1 RES1    0.0000
     26 H13       11.8837    4.9644    1.7149 H         1 RES1    0.0000
     27 H14       11.6123    5.1016    3.2526 H         1 RES1    0.0000
     28 H15        7.5285    6.3940    1.7984 H         1 RES1    0.0000
     29 H16        7.3982    5.0455    2.5890 H         1 RES1    0.0000
     30 H17        6.2922    5.4601    1.5586 H         1 RES1    0.0000
@<TRIPOS>BOND
     1    1    2 1
     2    2    3 1
     3    3    4 1
     4    4    5 1
     5    5    6 1
     6    6    7 1
     7    7    8 1
     8    8    9 1
     9    9   10 1
    10   10    1 1
    11   11    1 1
    12   12    3 1
    13   13    5 1
    14   14    1 1
    15   15    4 1
    16   16    5 1
    17   17    7 1
    18   18    8 1
    19   19    8 1
    20   20    9 1
    21   21    9 1
    22   22   10 1
    23   23   10 1
    24   24   11 1
    25   25   12 1
    26   26   12 1
    27   27   12 1
    28   28   13 1
    29   29   13 1
    30   30   13 1
    31    4   11 1
    32    7   11 1
@<TRIPOS>SUBSTRUCTURE
     1 RES1 1

@<TRIPOS>CRYSIN
  12.0610   14.7530    5.6430  90.0000  90.0000  90.0000  18 1

