# MOL2 file generated by ConQuest
# Please check atom types

@<TRIPOS>MOLECULE
POYWAC
    39    41     1
SMALL
NO_CHARGES
****
Generated from CSD

@<TRIPOS>ATOM
      1 N1         0.5504    2.0064    8.9112 N.am      1 RES1    0.0000
      2 H1         0.0474    1.5193    9.4451 H         1 RES1    0.0000
      3 N2         6.4665    1.8432    7.6840 N.am      1 RES1    0.0000
      4 O1        -0.3684    4.1510    8.6977 O.2       1 RES1    0.0000
      5 O2         6.2358    2.9880    6.9162 O.3       1 RES1    0.0000
      6 H2         6.6701    3.6248    7.3247 H         1 RES1    0.0000
      7 O3         7.6336   -0.0615    7.8971 O.2       1 RES1    0.0000
      8 C1         0.3885    3.2435    8.4037 C.2       1 RES1    0.0000
      9 C2         1.6420    1.6340    8.0002 C.3       1 RES1    0.0000
     10 H3         1.3837    0.9019    7.3707 H         1 RES1    0.0000
     11 C3         1.4939    3.0441    7.3675 C.3       1 RES1    0.0000
     12 H4         2.2799    3.6330    7.4882 H         1 RES1    0.0000
     13 H5         1.1810    3.0421    6.4289 H         1 RES1    0.0000
     14 C4         2.9457    1.3449    8.7269 C.3       1 RES1    0.0000
     15 H6         2.7933    0.5888    9.3629 H         1 RES1    0.0000
     16 C5         3.5216    2.5129    9.4960 C.2       1 RES1    0.0000
     17 H7         2.9982    3.1252    9.9992 H         1 RES1    0.0000
     18 C6         4.8387    2.5838    9.3868 C.2       1 RES1    0.0000
     19 H8         5.3795    3.2577    9.7838 H         1 RES1    0.0000
     20 C7         5.3639    1.4520    8.5481 C.3       1 RES1    0.0000
     21 H9         5.6739    0.7194    9.1544 H         1 RES1    0.0000
     22 C8         4.1113    0.9763    7.7998 C.3       1 RES1    0.0000
     23 H10        4.0269    1.4367    6.9272 H         1 RES1    0.0000
     24 H11        4.1422   -0.0010    7.6448 H         1 RES1    0.0000
     25 C9         7.5183    1.0620    7.3878 C.2       1 RES1    0.0000
     26 C10        8.5518    1.6686    6.4661 C.3       1 RES1    0.0000
     27 H12        8.1112    1.9322    5.6203 H         1 RES1    0.0000
     28 H13        8.9145    2.4889    6.8861 H         1 RES1    0.0000
     29 C11        9.6912    0.7413    6.1514 C.ar      1 RES1    0.0000
     30 C12        9.5519   -0.2401    5.1784 C.ar      1 RES1    0.0000
     31 H14        8.7195   -0.3421    4.7333 H         1 RES1    0.0000
     32 C13       10.6099   -1.0752    4.8456 C.ar      1 RES1    0.0000
     33 H15       10.5016   -1.7431    4.1792 H         1 RES1    0.0000
     34 C14       11.8247   -0.9269    5.4930 C.ar      1 RES1    0.0000
     35 H16       12.5568   -1.4882    5.2649 H         1 RES1    0.0000
     36 C15       11.9726    0.0393    6.4714 C.ar      1 RES1    0.0000
     37 H17       12.8039    0.1346    6.9194 H         1 RES1    0.0000
     38 C16       10.9117    0.8708    6.8029 C.ar      1 RES1    0.0000
     39 H18       11.0215    1.5310    7.4774 H         1 RES1    0.0000
@<TRIPOS>BOND
     1    1    2 1
     2    3    5 1
     3    4    8 2
     4    5    6 1
     5    7   25 2
     6    8    1 1
     7    9    1 1
     8   10    9 1
     9   11    8 1
    10   12   11 1
    11   13   11 1
    12   14    9 1
    13   15   14 1
    14   16   14 1
    15   17   16 1
    16   18   16 2
    17   19   18 1
    18   20    3 1
    19   21   20 1
    20   22   14 1
    21   23   22 1
    22   24   22 1
    23   25    3 1
    24   26   25 1
    25   27   26 1
    26   28   26 1
    27   29   26 1
    28   30   29 ar
    29   31   30 1
    30   32   30 ar
    31   33   32 1
    32   34   32 ar
    33   35   34 1
    34   36   34 ar
    35   37   36 1
    36   38   29 ar
    37   39   38 1
    38    9   11 1
    39   18   20 1
    40   20   22 1
    41   36   38 ar
@<TRIPOS>SUBSTRUCTURE
     1 RES1 1

@<TRIPOS>CRYSIN
  27.4692    5.0982    9.8276  90.0000  95.0320  90.0000  14 1

