# MOL2 file generated by ConQuest
# Please check atom types

@<TRIPOS>MOLECULE
POZGER
    30    32     1
SMALL
NO_CHARGES
****
Generated from CSD

@<TRIPOS>ATOM
      1 O1        -2.0287    2.5775    2.4839 O.2       1 RES1    0.0000
      2 O2        -2.8414    2.2124    4.4332 O.2       1 RES1    0.0000
      3 N1         0.3169    3.7371    9.7040 N.2       1 RES1    0.0000
      4 N2        -0.0450    3.8944    8.4413 N.2       1 RES1    0.0000
      5 N3         0.8767    3.2096    7.6858 N.pl3     1 RES1    0.0000
      6 N4        -1.9275    2.5461    3.6899 N.pl3     1 RES1    0.0000
      7 C1         1.4624    2.9694    9.7465 C.2       1 RES1    0.0000
      8 C2         1.8331    2.6179    8.4867 C.2       1 RES1    0.0000
      9 C3         2.9580    1.7482    8.0192 C.ar      1 RES1    0.0000
     10 C4         2.7643    0.7353    7.0625 C.ar      1 RES1    0.0000
     11 C5         3.8196   -0.1123    6.7196 C.ar      1 RES1    0.0000
     12 C6         5.0700    0.0417    7.3297 C.ar      1 RES1    0.0000
     13 C7         5.2747    1.0396    8.2732 C.ar      1 RES1    0.0000
     14 C8         4.2286    1.8923    8.6198 C.ar      1 RES1    0.0000
     15 C9         0.7294    3.2554    6.2550 C.ar      1 RES1    0.0000
     16 C10       -0.5050    2.9126    5.6798 C.ar      1 RES1    0.0000
     17 C11       -0.6348    2.9700    4.3142 C.ar      1 RES1    0.0000
     18 C12        0.4194    3.3781    3.4831 C.ar      1 RES1    0.0000
     19 C13        1.6267    3.7177    4.0837 C.ar      1 RES1    0.0000
     20 C14        1.8000    3.6585    5.4503 C.ar      1 RES1    0.0000
     21 H1         1.9081    2.7596   10.6343 H         1 RES1    0.0000
     22 H2         1.8363    0.5985    6.6677 H         1 RES1    0.0000
     23 H3         3.7181   -0.7462    6.0633 H         1 RES1    0.0000
     24 H4         5.8329   -0.5568    6.9982 H         1 RES1    0.0000
     25 H5         6.1662    1.1856    8.7266 H         1 RES1    0.0000
     26 H6         4.3823    2.6005    9.3310 H         1 RES1    0.0000
     27 H7        -1.2583    2.6592    6.2994 H         1 RES1    0.0000
     28 H8         0.2322    3.3903    2.5689 H         1 RES1    0.0000
     29 H9         2.3292    4.0172    3.5227 H         1 RES1    0.0000
     30 H10        2.6028    3.8600    5.9121 H         1 RES1    0.0000
@<TRIPOS>BOND
     1    1    6 2
     2    2    6 2
     3    3    4 2
     4    4    5 1
     5    5    8 1
     6    6   17 1
     7    7    3 1
     8    8    7 2
     9    9    8 1
    10   10    9 ar
    11   11   10 ar
    12   12   11 ar
    13   13   12 ar
    14   14    9 ar
    15   15    5 1
    16   16   15 ar
    17   17   16 ar
    18   18   17 ar
    19   19   18 ar
    20   20   15 ar
    21   21    7 1
    22   22   10 1
    23   23   11 1
    24   24   12 1
    25   25   13 1
    26   26   14 1
    27   27   16 1
    28   28   18 1
    29   29   19 1
    30   30   20 1
    31   13   14 ar
    32   19   20 ar
@<TRIPOS>SUBSTRUCTURE
     1 RES1 1

@<TRIPOS>CRYSIN
   7.5330   18.9400    9.5460  90.0000  98.3700  90.0000 231 1

