# MOL2 file generated by ConQuest
# Please check atom types

@<TRIPOS>MOLECULE
POZNUO
    27    28     1
SMALL
NO_CHARGES
****
Generated from CSD

@<TRIPOS>ATOM
      1 O1         3.3597    1.9001    5.5004 O.2       1 RES1    0.0000
      2 O2         2.2482    0.8617    8.6341 O.3       1 RES1    0.0000
      3 N1         2.4761    0.7833    7.2540 N.am      1 RES1    0.0000
      4 N2         4.6617    3.6134    7.4989 N.3       1 RES1    0.0000
      5 N3         5.0492    1.6999    8.5304 N.2       1 RES1    0.0000
      6 C1         3.3386    1.6623    6.6999 C.2       1 RES1    0.0000
      7 C2         4.3177    2.3105    7.6133 C.2       1 RES1    0.0000
      8 C3         5.6610    3.8362    8.4017 C.2       1 RES1    0.0000
      9 C4         5.8993    2.6582    9.0166 C.2       1 RES1    0.0000
     10 C5         4.0934    4.6274    6.6123 C.3       1 RES1    0.0000
     11 C6         1.4827    0.0855    6.5033 C.ar      1 RES1    0.0000
     12 C7         1.8703   -0.6789    5.4182 C.ar      1 RES1    0.0000
     13 C8         0.9140   -1.3664    4.7032 C.ar      1 RES1    0.0000
     14 C9        -0.4159   -1.3091    5.0714 C.ar      1 RES1    0.0000
     15 C10       -0.7861   -0.5666    6.1708 C.ar      1 RES1    0.0000
     16 C11        0.1578    0.1366    6.8912 C.ar      1 RES1    0.0000
     17 H1         2.3144   -0.0157    8.9094 H         1 RES1    0.0000
     18 H2         6.0989    4.6517    8.5643 H         1 RES1    0.0000
     19 H3         6.5496    2.5169    9.6798 H         1 RES1    0.0000
     20 H4         4.6772    4.7529    5.8472 H         1 RES1    0.0000
     21 H5         4.0064    5.4656    7.0932 H         1 RES1    0.0000
     22 H6         3.2189    4.3378    6.3066 H         1 RES1    0.0000
     23 H7         2.7754   -0.7283    5.1697 H         1 RES1    0.0000
     24 H8         1.1692   -1.8797    3.9577 H         1 RES1    0.0000
     25 H9        -1.0644   -1.7737    4.5727 H         1 RES1    0.0000
     26 H10       -1.6883   -0.5392    6.4318 H         1 RES1    0.0000
     27 H11       -0.0982    0.6451    7.6402 H         1 RES1    0.0000
@<TRIPOS>BOND
     1    1    6 2
     2    2    3 1
     3    3    6 1
     4    4    7 1
     5    5    7 2
     6    6    7 1
     7    8    4 1
     8    9    5 1
     9   10    4 1
    10   11    3 1
    11   12   11 ar
    12   13   12 ar
    13   14   13 ar
    14   15   14 ar
    15   16   11 ar
    16   17    2 1
    17   18    8 1
    18   19    9 1
    19   20   10 1
    20   21   10 1
    21   22   10 1
    22   23   12 1
    23   24   13 1
    24   25   14 1
    25   26   15 1
    26   27   16 1
    27    8    9 2
    28   15   16 ar
@<TRIPOS>SUBSTRUCTURE
     1 RES1 1

@<TRIPOS>CRYSIN
   7.6884    7.8483   17.8783  90.0000  90.9380  90.0000  14 1

