# MOL2 file generated by ConQuest
# Please check atom types

@<TRIPOS>MOLECULE
POZQOL
    25    26     1
SMALL
NO_CHARGES
****
Generated from CSD

@<TRIPOS>ATOM
      1 O1         0.2824    0.7785    3.1783 O.2       1 RES1    0.0000
      2 O2         4.0241    1.7961    4.3463 O.2       1 RES1    0.0000
      3 O3         3.2905    0.7826    2.7979 O.2       1 RES1    0.0000
      4 O4         1.8148    7.5341   -2.6359 O.2       1 RES1    0.0000
      5 O5         1.7978    8.8080   -0.9254 O.2       1 RES1    0.0000
      6 N1         3.3054    1.7593    3.4809 N.pl3     1 RES1    0.0000
      7 N2         1.7815    7.7093   -1.4542 N.pl3     1 RES1    0.0000
      8 C1         0.3065    1.7929    3.5314 C.2       1 RES1    0.0000
      9 H1        -0.2788    1.9394    4.2395 H         1 RES1    0.0000
     10 C2         1.0372    2.9766    3.1601 C.3       1 RES1    0.0000
     11 H2         0.6449    3.8199    3.4698 H         1 RES1    0.0000
     12 C3         2.5555    2.9586    3.1022 C.3       1 RES1    0.0000
     13 H3         2.9769    3.7986    3.3775 H         1 RES1    0.0000
     14 C4         1.7680    3.0618    1.8979 C.3       1 RES1    0.0000
     15 H4         1.7424    2.2374    1.3691 H         1 RES1    0.0000
     16 C5         1.7417    4.3135    1.0719 C.ar      1 RES1    0.0000
     17 C6         1.7460    5.5669    1.6023 C.ar      1 RES1    0.0000
     18 H5         1.7474    5.6610    2.5281 H         1 RES1    0.0000
     19 C7         1.7481    6.7286    0.8004 C.ar      1 RES1    0.0000
     20 H6         1.7403    7.5816    1.1699 H         1 RES1    0.0000
     21 C8         1.7616    6.5198   -0.5663 C.ar      1 RES1    0.0000
     22 C9         1.7708    5.2877   -1.0987 C.ar      1 RES1    0.0000
     23 H7         1.8176    5.1878   -2.0229 H         1 RES1    0.0000
     24 C10        1.7126    4.1719   -0.2988 C.ar      1 RES1    0.0000
     25 H8         1.6538    3.3254   -0.6791 H         1 RES1    0.0000
@<TRIPOS>BOND
     1    1    8 2
     2    2    6 2
     3    3    6 2
     4    4    7 2
     5    5    7 2
     6    6   12 1
     7    7   21 1
     8    8    9 1
     9   10    8 1
    10   11   10 1
    11   12   10 1
    12   13   12 1
    13   14   10 1
    14   15   14 1
    15   16   14 1
    16   17   16 ar
    17   18   17 1
    18   19   17 ar
    19   20   19 1
    20   21   19 ar
    21   22   21 ar
    22   23   22 1
    23   24   16 ar
    24   25   24 1
    25   12   14 1
    26   22   24 ar
@<TRIPOS>SUBSTRUCTURE
     1 RES1 1

@<TRIPOS>CRYSIN
   7.0946    8.1866   18.1097  90.0000  90.0000  90.0000  19 1

