# MOL2 file generated by ConQuest
# Please check atom types

@<TRIPOS>MOLECULE
PPRDOX
    21    21     1
SMALL
NO_CHARGES
****
Generated from CSD

@<TRIPOS>ATOM
      1 C1         4.3039    5.1423    0.2856 C.2       1 RES1    0.0000
      2 C2         5.6873    5.3485    0.8312 C.2       1 RES1    0.0000
      3 C3         6.8606    4.7512    0.1189 C.3       1 RES1    0.0000
      4 C4         3.0850    5.3073    1.1234 C.ar      1 RES1    0.0000
      5 C5         3.0521    4.9518    2.4691 C.ar      1 RES1    0.0000
      6 C6         1.8463    4.9887    3.1742 C.ar      1 RES1    0.0000
      7 C7         0.6852    5.4239    2.5533 C.ar      1 RES1    0.0000
      8 C8         0.7182    5.8007    1.2178 C.ar      1 RES1    0.0000
      9 C9         1.9063    5.7325    0.5025 C.ar      1 RES1    0.0000
     10 N1         5.7578    6.1293    1.8393 N.2       1 RES1    0.0000
     11 O1         4.2050    4.8266   -0.8987 O.2       1 RES1    0.0000
     12 O2         7.0779    6.3682    2.2558 O.3       1 RES1    0.0000
     13 H1         6.7928    3.6264    0.2749 H         1 RES1    0.0000
     14 H2         6.6537    4.4654   -0.6454 H         1 RES1    0.0000
     15 H3         7.7663    4.8494    0.7768 H         1 RES1    0.0000
     16 H4         3.8746    4.6929    2.8563 H         1 RES1    0.0000
     17 H5         1.8748    4.7214    4.2546 H         1 RES1    0.0000
     18 H6        -0.2721    5.4040    3.1073 H         1 RES1    0.0000
     19 H7        -0.2210    6.1435    0.7649 H         1 RES1    0.0000
     20 H8         1.9847    5.9444   -0.5677 H         1 RES1    0.0000
     21 H9         6.9894    7.0252    3.0834 H         1 RES1    0.0000
@<TRIPOS>BOND
     1    1    2 1
     2    2    3 1
     3    3   13 1
     4    4    1 1
     5    5    4 ar
     6    6    5 ar
     7    7    6 ar
     8    8    7 ar
     9    9    4 ar
    10   10    2 2
    11   11    1 2
    12   12   10 1
    13   14    3 1
    14   15    3 1
    15   16    5 1
    16   17    6 1
    17   18    7 1
    18   19    8 1
    19   20    9 1
    20   21   12 1
    21    8    9 ar
@<TRIPOS>SUBSTRUCTURE
     1 RES1 1

@<TRIPOS>CRYSIN
   9.7960   14.2210    6.2390  90.0000  73.2900  90.0000  14 1

