# MOL2 file generated by ConQuest
# Please check atom types

@<TRIPOS>MOLECULE
PRFUXC
    25    25     1
SMALL
NO_CHARGES
****
Generated from CSD

@<TRIPOS>ATOM
      1 O1        -1.2255    7.2189    0.4491 O.3       1 RES1    0.0000
      2 O2        -1.9622    9.0371    1.6339 O.2       1 RES1    0.0000
      3 O3        -2.1212    8.1438    4.4163 O.2       1 RES1    0.0000
      4 O4        -0.4206    9.0507    5.6020 O.3       1 RES1    0.0000
      5 N1        -0.2581    6.2353    0.6248 N.2       1 RES1    0.0000
      6 N2        -1.1770    8.0784    1.6064 N.pl3     1 RES1    0.0000
      7 N3         0.0213    8.1618    3.6317 N.am      1 RES1    0.0000
      8 C1         0.2800    6.4383    1.7999 C.2       1 RES1    0.0000
      9 C2        -0.2850    7.5731    2.4096 C.2       1 RES1    0.0000
     10 C3         1.3224    5.5473    2.3324 C.3       1 RES1    0.0000
     11 C4        -0.9564    8.4416    4.5556 C.2       1 RES1    0.0000
     12 C5        -1.3469    9.5515    6.6431 C.3       1 RES1    0.0000
     13 C6        -1.9082   10.8554    6.1896 C.3       1 RES1    0.0000
     14 C7        -0.5267    9.6395    7.8865 C.3       1 RES1    0.0000
     15 H1         0.9434    8.5047    3.8785 H         1 RES1    0.0000
     16 H2        -2.1384    8.7755    6.7540 H         1 RES1    0.0000
     17 H3         1.9353    5.9330    2.8844 H         1 RES1    0.0000
     18 H4         1.0088    4.8953    2.8933 H         1 RES1    0.0000
     19 H5         1.7682    5.0758    1.5887 H         1 RES1    0.0000
     20 H6        -2.4697   10.8734    5.3163 H         1 RES1    0.0000
     21 H7        -2.5324   11.2344    6.8694 H         1 RES1    0.0000
     22 H8        -1.1635   11.5276    6.0884 H         1 RES1    0.0000
     23 H9        -1.0094    9.9260    8.5823 H         1 RES1    0.0000
     24 H10       -0.1115    8.7980    8.1208 H         1 RES1    0.0000
     25 H11        0.1626   10.4448    7.6859 H         1 RES1    0.0000
@<TRIPOS>BOND
     1    1    5 1
     2    2    6 1
     3    3   11 2
     4    4   11 1
     5    5    8 2
     6    6    1 1
     7    7    9 1
     8    8    9 1
     9    9    6 2
    10   10    8 1
    11   11    7 1
    12   12    4 1
    13   13   12 1
    14   14   12 1
    15   15    7 1
    16   16   12 1
    17   17   10 1
    18   18   10 1
    19   19   10 1
    20   20   13 1
    21   21   13 1
    22   22   13 1
    23   23   14 1
    24   24   14 1
    25   25   14 1
@<TRIPOS>SUBSTRUCTURE
     1 RES1 1

@<TRIPOS>CRYSIN
   4.8440   22.5590    8.9620  90.0000  97.9800  90.0000  14 1

