# MOL2 file generated by ConQuest
# Please check atom types

@<TRIPOS>MOLECULE
PTZXDE
    29    32     1
SMALL
NO_CHARGES
****
Generated from CSD

@<TRIPOS>ATOM
      1 C1        -4.4161    3.4017    0.4659 C.3       1 RES1    0.0000
      2 C2        -7.0616    2.3496    1.4730 C.ar      1 RES1    0.0000
      3 C3        -7.4701    1.5725    0.3937 C.ar      1 RES1    0.0000
      4 C4        -8.7763    1.6688   -0.0554 C.ar      1 RES1    0.0000
      5 C5        -9.6825    2.5201    0.5441 C.ar      1 RES1    0.0000
      6 C6        -9.2637    3.2789    1.6036 C.ar      1 RES1    0.0000
      7 C7        -7.9732    3.1955    2.0784 C.ar      1 RES1    0.0000
      8 C8        -3.8353    2.0509    0.7123 C.3       1 RES1    0.0000
      9 C9        -2.8917    2.2543    1.8796 C.3       1 RES1    0.0000
     10 C10       -2.6733    4.4565    2.7204 C.3       1 RES1    0.0000
     11 C11       -3.6526    3.2990    2.7234 C.3       1 RES1    0.0000
     12 C12       -4.9221    3.5162    1.8895 C.3       1 RES1    0.0000
     13 H1        -3.8080    4.0871    0.2671 H         1 RES1    0.0000
     14 H2        -5.1606    3.4548   -0.1484 H         1 RES1    0.0000
     15 H3        -6.7666    0.9347   -0.0297 H         1 RES1    0.0000
     16 H4        -8.9664    1.2188   -0.9398 H         1 RES1    0.0000
     17 H5       -10.5770    2.5934    0.2869 H         1 RES1    0.0000
     18 H6        -9.8128    3.9039    2.0181 H         1 RES1    0.0000
     19 H7        -7.6834    3.7114    2.7501 H         1 RES1    0.0000
     20 H8        -3.4945    1.5212   -0.0692 H         1 RES1    0.0000
     21 H9        -2.6865    1.4296    2.2951 H         1 RES1    0.0000
     22 H10       -3.0212    5.2785    2.1566 H         1 RES1    0.0000
     23 H11       -2.3820    4.8111    3.5910 H         1 RES1    0.0000
     24 H12       -3.8978    3.0058    3.6701 H         1 RES1    0.0000
     25 H13       -5.4688    4.2521    2.1961 H         1 RES1    0.0000
     26 N1        -5.7427    2.2663    2.0299 N.3       1 RES1    0.0000
     27 N2        -1.6256    2.8977    1.4730 N.2       1 RES1    0.0000
     28 N3        -1.5092    4.0523    1.9211 N.2       1 RES1    0.0000
     29 O1        -4.9504    1.2940    1.2465 O.3       1 RES1    0.0000
@<TRIPOS>BOND
     1    1    8 1
     2    2    3 ar
     3    3    4 ar
     4    4    5 ar
     5    5    6 ar
     6    6    7 ar
     7    7    2 ar
     8    8    9 1
     9    9   11 1
    10   10   11 1
    11   11   12 1
    12   12    1 1
    13   13    1 1
    14   14    1 1
    15   15    3 1
    16   16    4 1
    17   17    5 1
    18   18    6 1
    19   19    7 1
    20   20    8 1
    21   21    9 1
    22   22   10 1
    23   23   10 1
    24   24   11 1
    25   25   12 1
    26   26    2 1
    27   27    9 1
    28   28   10 1
    29   29    8 1
    30   12   26 1
    31   26   29 1
    32   27   28 2
@<TRIPOS>SUBSTRUCTURE
     1 RES1 1

@<TRIPOS>CRYSIN
  11.6130    9.1640   11.1400  90.0000 117.3750  90.0000  14 1

