# MOL2 file generated by ConQuest
# Please check atom types

@<TRIPOS>MOLECULE
PUBBEU
    45    48     1
SMALL
NO_CHARGES
****
Generated from CSD

@<TRIPOS>ATOM
      1 O1         8.9671    6.9453    1.4285 O.3       1 RES1    0.0000
      2 O2         8.1716    8.8262    0.4516 O.2       1 RES1    0.0000
      3 O3         5.2484    2.8986   -2.6788 O.2       1 RES1    0.0000
      4 O4         4.7029    4.5880   -3.8781 O.2       1 RES1    0.0000
      5 N1         5.2803    4.0923   -2.9267 N.pl3     1 RES1    0.0000
      6 C1         9.7106    7.6742    2.3975 C.2       1 RES1    0.0000
      7 C2        10.8321    8.5845    2.0248 C.3       1 RES1    0.0000
      8 H1        11.4033    8.3758    1.2570 H         1 RES1    0.0000
      9 C3        10.7404   10.0073    2.5444 C.3       1 RES1    0.0000
     10 H2         9.8570   10.2612    2.8853 H         1 RES1    0.0000
     11 C4        11.5230   11.1439    1.9099 C.3       1 RES1    0.0000
     12 H3        10.9306   11.6481    1.3308 H         1 RES1    0.0000
     13 H4        12.2286   10.7710    1.3576 H         1 RES1    0.0000
     14 C5        12.1501   12.1050    2.9421 C.3       1 RES1    0.0000
     15 H5        12.3193   12.9560    2.5095 H         1 RES1    0.0000
     16 H6        11.5056   12.2601    3.6502 H         1 RES1    0.0000
     17 C6        13.4521   11.6100    3.5681 C.3       1 RES1    0.0000
     18 H7        13.7978   12.3144    4.1378 H         1 RES1    0.0000
     19 H8        14.0955   11.4746    2.8562 H         1 RES1    0.0000
     20 C7        13.3779   10.3190    4.3959 C.3       1 RES1    0.0000
     21 H9        12.7467   10.4494    5.1197 H         1 RES1    0.0000
     22 H10       14.2475   10.1519    4.7909 H         1 RES1    0.0000
     23 C8        12.9541    9.0745    3.5889 C.3       1 RES1    0.0000
     24 H11       13.3952    9.0971    2.7242 H         1 RES1    0.0000
     25 H12       13.2606    8.2806    4.0550 H         1 RES1    0.0000
     26 C9        11.4586    8.9666    3.3706 C.3       1 RES1    0.0000
     27 C10       10.6113    8.2545    4.4509 C.3       1 RES1    0.0000
     28 H13       11.1602    7.6446    4.9676 H         1 RES1    0.0000
     29 H14       10.2136    8.9025    5.0548 H         1 RES1    0.0000
     30 C11        9.5327    7.4944    3.6972 C.2       1 RES1    0.0000
     31 C12        8.4913    6.6560    4.3836 C.3       1 RES1    0.0000
     32 H15        7.9656    6.1963    3.7240 H         1 RES1    0.0000
     33 H16        7.9210    7.2222    4.9094 H         1 RES1    0.0000
     34 H17        8.9213    6.0158    4.9542 H         1 RES1    0.0000
     35 C13        8.2382    7.6199    0.5122 C.2       1 RES1    0.0000
     36 C14        7.5094    6.6680   -0.3934 C.ar      1 RES1    0.0000
     37 C15        7.4858    5.2910   -0.1508 C.ar      1 RES1    0.0000
     38 H18        7.9631    4.9385    0.5659 H         1 RES1    0.0000
     39 C16        6.7489    4.4442   -0.9790 C.ar      1 RES1    0.0000
     40 H19        6.7194    3.5283   -0.8186 H         1 RES1    0.0000
     41 C17        6.0633    5.0005   -2.0434 C.ar      1 RES1    0.0000
     42 C18        6.0788    6.3585   -2.3194 C.ar      1 RES1    0.0000
     43 H20        5.6153    6.7026   -3.0486 H         1 RES1    0.0000
     44 C19        6.8037    7.1933   -1.4795 C.ar      1 RES1    0.0000
     45 H21        6.8204    8.1092   -1.6417 H         1 RES1    0.0000
@<TRIPOS>BOND
     1    1    6 1
     2    2   35 2
     3    3    5 2
     4    4    5 2
     5    5   41 1
     6    6    7 1
     7    7    8 1
     8    9    7 1
     9   10    9 1
    10   11    9 1
    11   12   11 1
    12   13   11 1
    13   14   11 1
    14   15   14 1
    15   16   14 1
    16   17   14 1
    17   18   17 1
    18   19   17 1
    19   20   17 1
    20   21   20 1
    21   22   20 1
    22   23   20 1
    23   24   23 1
    24   25   23 1
    25   26    7 1
    26   27   26 1
    27   28   27 1
    28   29   27 1
    29   30    6 2
    30   31   30 1
    31   32   31 1
    32   33   31 1
    33   34   31 1
    34   35    1 1
    35   36   35 1
    36   37   36 ar
    37   38   37 1
    38   39   37 ar
    39   40   39 1
    40   41   39 ar
    41   42   41 ar
    42   43   42 1
    43   44   36 ar
    44   45   44 1
    45    9   26 1
    46   23   26 1
    47   27   30 1
    48   42   44 ar
@<TRIPOS>SUBSTRUCTURE
     1 RES1 1

@<TRIPOS>CRYSIN
  11.2235    7.0509   22.3700  90.0000  91.0150  90.0000 231 1

