# MOL2 file generated by ConQuest
# Please check atom types

@<TRIPOS>MOLECULE
PUBMUU10
    36    39     1
SMALL
NO_CHARGES
****
Generated from CSD

@<TRIPOS>ATOM
      1 C1        13.0139    4.1818    4.5405 C.3       1 RES1    0.0000
      2 C2        10.7532    4.8532    4.5832 C.3       1 RES1    0.0000
      3 C3        11.6707    6.1298    4.6313 C.3       1 RES1    0.0000
      4 C4        13.2514    4.0805    2.9700 C.3       1 RES1    0.0000
      5 C5        11.1212    4.6947    2.1552 C.3       1 RES1    0.0000
      6 C6        12.0077    5.9909    2.2047 C.3       1 RES1    0.0000
      7 N1        11.6653    3.7399    4.8532 N.3       1 RES1    0.0000
      8 N2        11.4743    2.9738    6.0131 N.pl3     1 RES1    0.0000
      9 N3        13.0179    5.5986    4.8983 N.3       1 RES1    0.0000
     10 N4        13.6034    5.9525    6.1457 N.pl3     1 RES1    0.0000
     11 N5        11.6399    6.7749    3.3524 N.pl3     1 RES1    0.0000
     12 N6        11.6240    8.1635    3.2645 N.pl3     1 RES1    0.0000
     13 N7        10.1878    4.7401    3.2548 N.3       1 RES1    0.0000
     14 N8         9.1006    3.8396    3.1641 N.pl3     1 RES1    0.0000
     15 N9        12.0688    3.5594    2.3070 N.3       1 RES1    0.0000
     16 N10       12.3589    2.9240    1.0440 N.pl3     1 RES1    0.0000
     17 N11       13.3371    5.3861    2.3209 N.3       1 RES1    0.0000
     18 N12       14.4468    6.1739    2.5120 N.pl3     1 RES1    0.0000
     19 O1        12.4418    2.4421    6.4994 O.2       1 RES1    0.0000
     20 O2        10.3227    2.8698    6.4006 O.2       1 RES1    0.0000
     21 O3        13.3621    7.0707    6.5326 O.2       1 RES1    0.0000
     22 O4        14.3378    5.1407    6.6620 O.2       1 RES1    0.0000
     23 O5        11.5124    8.7606    4.3157 O.2       1 RES1    0.0000
     24 O6        11.6604    8.6396    2.1552 O.2       1 RES1    0.0000
     25 O7         8.4835    3.6493    4.1901 O.2       1 RES1    0.0000
     26 O8         8.8520    3.3789    2.0753 O.2       1 RES1    0.0000
     27 O9        11.4254    2.8005    0.2891 O.2       1 RES1    0.0000
     28 O10       13.4877    2.5213    0.8758 O.2       1 RES1    0.0000
     29 O11       15.4468    5.6177    2.9344 O.2       1 RES1    0.0000
     30 O12       14.3419    7.3443    2.2101 O.2       1 RES1    0.0000
     31 H1        13.6970    3.6918    4.9880 H         1 RES1    0.0000
     32 H2        10.0767    4.8712    5.1774 H         1 RES1    0.0000
     33 H3        11.4372    6.7293    5.3178 H         1 RES1    0.0000
     34 H4        14.0269    3.5366    2.7873 H         1 RES1    0.0000
     35 H5        10.6715    4.5910    1.3698 H         1 RES1    0.0000
     36 H6        11.9034    6.5006    1.4287 H         1 RES1    0.0000
@<TRIPOS>BOND
     1    1    4 1
     2    2    3 1
     3    3    9 1
     4    4   15 1
     5    5    6 1
     6    6   11 1
     7    7    1 1
     8    8    7 1
     9    9    1 1
    10   10    9 1
    11   11    3 1
    12   12   11 1
    13   13    2 1
    14   14   13 1
    15   15    5 1
    16   16   15 1
    17   17    4 1
    18   18   17 1
    19   19    8 2
    20   20    8 2
    21   21   10 2
    22   22   10 2
    23   23   12 2
    24   24   12 2
    25   25   14 2
    26   26   14 2
    27   27   16 2
    28   28   16 2
    29   29   18 2
    30   30   18 2
    31   31    1 1
    32   32    2 1
    33   33    3 1
    34   34    4 1
    35   35    5 1
    36   36    6 1
    37    2    7 1
    38    5   13 1
    39    6   17 1
@<TRIPOS>SUBSTRUCTURE
     1 RES1 1

@<TRIPOS>CRYSIN
  13.1670    8.1676   14.8436  90.0000 109.0010  90.0000 231 1

