# MOL2 file generated by ConQuest
# Please check atom types

@<TRIPOS>MOLECULE
PUBMUU07
    36    39     1
SMALL
NO_CHARGES
****
Generated from CSD

@<TRIPOS>ATOM
      1 C1        12.9120    4.1683    4.5266 C.3       1 RES1    0.0000
      2 C2        10.6600    4.8928    4.5821 C.3       1 RES1    0.0000
      3 C3        11.6067    6.1532    4.6233 C.3       1 RES1    0.0000
      4 C4        13.1394    4.0635    2.9556 C.3       1 RES1    0.0000
      5 C5        11.0130    4.7206    2.1507 C.3       1 RES1    0.0000
      6 C6        11.9252    6.0016    2.1900 C.3       1 RES1    0.0000
      7 N1        11.5546    3.7576    4.8457 N.3       1 RES1    0.0000
      8 N2        11.3509    2.9846    5.9979 N.pl3     1 RES1    0.0000
      9 N3        12.9511    5.5895    4.8808 N.3       1 RES1    0.0000
     10 N4        13.5440    5.9343    6.1286 N.pl3     1 RES1    0.0000
     11 N5        11.5844    6.7947    3.3435 N.pl3     1 RES1    0.0000
     12 N6        11.5848    8.1883    3.2507 N.pl3     1 RES1    0.0000
     13 N7        10.0814    4.7922    3.2556 N.3       1 RES1    0.0000
     14 N8         8.9710    3.9092    3.1767 N.pl3     1 RES1    0.0000
     15 N9        11.9395    3.5623    2.2991 N.3       1 RES1    0.0000
     16 N10       12.2103    2.9319    1.0291 N.pl3     1 RES1    0.0000
     17 N11       13.2469    5.3676    2.2997 N.3       1 RES1    0.0000
     18 N12       14.3656    6.1386    2.4989 N.pl3     1 RES1    0.0000
     19 O1        12.3159    2.4300    6.4856 O.2       1 RES1    0.0000
     20 O2        10.1896    2.8955    6.3821 O.2       1 RES1    0.0000
     21 O3        13.3326    7.0711    6.5063 O.2       1 RES1    0.0000
     22 O4        14.2590    5.1031    6.6531 O.2       1 RES1    0.0000
     23 O5        11.4676    8.7952    4.3036 O.2       1 RES1    0.0000
     24 O6        11.6480    8.6576    2.1343 O.2       1 RES1    0.0000
     25 O7         8.3448    3.7571    4.2070 O.2       1 RES1    0.0000
     26 O8         8.7189    3.4308    2.0864 O.2       1 RES1    0.0000
     27 O9        11.2578    2.7943    0.2955 O.2       1 RES1    0.0000
     28 O10       13.3517    2.5435    0.8325 O.2       1 RES1    0.0000
     29 O11       15.3640    5.5694    2.9230 O.2       1 RES1    0.0000
     30 O12       14.2702    7.3234    2.2083 O.2       1 RES1    0.0000
     31 H1        13.5872    3.6871    4.9779 H         1 RES1    0.0000
     32 H2         9.9894    4.9268    5.2156 H         1 RES1    0.0000
     33 H3        11.3951    6.7684    5.3148 H         1 RES1    0.0000
     34 H4        13.8914    3.5146    2.7916 H         1 RES1    0.0000
     35 H5        10.5724    4.6586    1.3532 H         1 RES1    0.0000
     36 H6        11.8128    6.5255    1.4091 H         1 RES1    0.0000
@<TRIPOS>BOND
     1    1    4 1
     2    2    3 1
     3    3    9 1
     4    4   15 1
     5    5    6 1
     6    6   11 1
     7    7    1 1
     8    8    7 1
     9    9    1 1
    10   10    9 1
    11   11    3 1
    12   12   11 1
    13   13    2 1
    14   14   13 1
    15   15    5 1
    16   16   15 1
    17   17    4 1
    18   18   17 1
    19   19    8 2
    20   20    8 2
    21   21   10 2
    22   22   10 2
    23   23   12 2
    24   24   12 2
    25   25   14 2
    26   26   14 2
    27   27   16 2
    28   28   16 2
    29   29   18 2
    30   30   18 2
    31   31    1 1
    32   32    2 1
    33   33    3 1
    34   34    4 1
    35   35    5 1
    36   36    6 1
    37    2    7 1
    38    5   13 1
    39    6   17 1
@<TRIPOS>SUBSTRUCTURE
     1 RES1 1

@<TRIPOS>CRYSIN
  13.0342    8.1773   14.7465  90.0000 108.5660  90.0000 231 1

