# MOL2 file generated by ConQuest
# Please check atom types

@<TRIPOS>MOLECULE
PUBMUU04
    36    39     1
SMALL
NO_CHARGES
****
Generated from CSD

@<TRIPOS>ATOM
      1 O1        -1.7282    2.8624    6.8219 O.2       1 RES1    0.0000
      2 O2        -1.1207    2.4465    4.7972 O.2       1 RES1    0.0000
      3 O3        -0.6550    5.1556    2.9622 O.2       1 RES1    0.0000
      4 O4        -0.8615    7.0753    3.9509 O.2       1 RES1    0.0000
      5 O5         0.6162    8.7413    6.4250 O.2       1 RES1    0.0000
      6 O6         2.7027    8.6182    6.9942 O.2       1 RES1    0.0000
      7 O7         3.2263    5.6302    3.1395 O.2       1 RES1    0.0000
      8 O8         3.5496    7.3395    4.4314 O.2       1 RES1    0.0000
      9 O9        -0.2350    3.6110    9.2898 O.2       1 RES1    0.0000
     10 O10        1.8760    3.3509    9.6393 O.2       1 RES1    0.0000
     11 O11        4.5174    2.5134    5.6336 O.2       1 RES1    0.0000
     12 O12        4.4091    2.7980    7.7806 O.2       1 RES1    0.0000
     13 N1         0.1836    3.7309    6.0730 N.3       1 RES1    0.0000
     14 N2         0.5800    5.5927    4.7947 N.3       1 RES1    0.0000
     15 N3         1.5749    6.7621    6.6135 N.3       1 RES1    0.0000
     16 N4         3.1093    5.3888    5.3415 N.3       1 RES1    0.0000
     17 N5         1.2082    4.7046    7.9941 N.3       1 RES1    0.0000
     18 N6         2.7082    3.5564    6.5223 N.3       1 RES1    0.0000
     19 N7        -0.9734    2.9668    5.8657 N.pl3     1 RES1    0.0000
     20 N8        -0.4115    5.9572    3.8398 N.pl3     1 RES1    0.0000
     21 N9         1.6464    8.1583    6.6597 N.pl3     1 RES1    0.0000
     22 N10        3.2975    6.1766    4.2217 N.pl3     1 RES1    0.0000
     23 N11        0.9228    3.8100    9.0389 N.pl3     1 RES1    0.0000
     24 N12        3.9911    2.9203    6.6497 N.pl3     1 RES1    0.0000
     25 C1         0.1221    4.8400    7.0292 C.3       1 RES1    0.0000
     26 C2         0.3806    6.1179    6.1553 C.3       1 RES1    0.0000
     27 C3         0.9247    4.1925    4.9133 C.3       1 RES1    0.0000
     28 C4         2.4738    4.0873    5.1842 C.3       1 RES1    0.0000
     29 C5         2.5349    4.6924    7.4673 C.3       1 RES1    0.0000
     30 C6         2.7775    5.9703    6.6260 C.3       1 RES1    0.0000
     31 H1        -0.7695    4.8930    7.5772 H         1 RES1    0.0000
     32 H2        -0.3313    6.6789    6.1915 H         1 RES1    0.0000
     33 H3         0.7857    3.6861    4.3066 H         1 RES1    0.0000
     34 H4         2.9753    3.5964    4.4564 H         1 RES1    0.0000
     35 H5         3.0747    4.6647    8.1763 H         1 RES1    0.0000
     36 H6         3.3481    6.5158    6.9655 H         1 RES1    0.0000
@<TRIPOS>BOND
     1    1   19 2
     2    2   19 2
     3    3   20 2
     4    4   20 2
     5    5   21 2
     6    6   21 2
     7    7   22 2
     8    8   22 2
     9    9   23 2
    10   10   23 2
    11   11   24 2
    12   12   24 2
    13   13   19 1
    14   14   20 1
    15   15   21 1
    16   16   22 1
    17   17   23 1
    18   18   24 1
    19   25   13 1
    20   26   14 1
    21   27   13 1
    22   28   16 1
    23   29   17 1
    24   30   15 1
    25   31   25 1
    26   32   26 1
    27   33   27 1
    28   34   28 1
    29   35   29 1
    30   36   30 1
    31   14   27 1
    32   15   26 1
    33   16   30 1
    34   17   25 1
    35   18   28 1
    36   18   29 1
    37   25   26 1
    38   27   28 1
    39   29   30 1
@<TRIPOS>SUBSTRUCTURE
     1 RES1 1

@<TRIPOS>CRYSIN
  14.8460    8.1550   13.2190  90.0000 109.2100  90.0000 231 1

