# MOL2 file generated by ConQuest
# Please check atom types

@<TRIPOS>MOLECULE
PUBMUU15
    36    39     1
SMALL
NO_CHARGES
****
Generated from CSD

@<TRIPOS>ATOM
      1 C1         2.9912   -2.9495    2.7332 C.3       1 RES1    0.0000
      2 H1         2.7055   -3.7071    2.3680 H         1 RES1    0.0000
      3 C2         4.9681   -1.4886    2.8382 C.3       1 RES1    0.0000
      4 H2         5.8496   -1.4635    2.4959 H         1 RES1    0.0000
      5 C3         3.7317   -0.7757    4.7845 C.3       1 RES1    0.0000
      6 H3         3.8443   -0.4271    5.6490 H         1 RES1    0.0000
      7 C4         4.0834   -0.2437    2.4658 C.3       1 RES1    0.0000
      8 H4         4.5267    0.3932    1.9589 H         1 RES1    0.0000
      9 C5         2.0971   -1.7121    2.3424 C.3       1 RES1    0.0000
     10 H5         1.4023   -1.9421    1.7658 H         1 RES1    0.0000
     11 C6         2.4565   -1.7190    4.6833 C.3       1 RES1    0.0000
     12 H6         2.0085   -1.7851    5.4636 H         1 RES1    0.0000
     13 N1         5.1489   -3.7458    1.8774 N.pl3     1 RES1    0.0000
     14 N2         4.3308   -2.6695    2.2910 N.3       1 RES1    0.0000
     15 N3         5.4244   -2.4864    5.0576 N.pl3     1 RES1    0.0000
     16 N4         4.9439   -1.4247    4.3104 N.3       1 RES1    0.0000
     17 N5         2.8151    1.3003    3.8978 N.pl3     1 RES1    0.0000
     18 N6         3.7323    0.2813    3.7912 N.3       1 RES1    0.0000
     19 N7         2.6210   -0.1536    0.4952 N.pl3     1 RES1    0.0000
     20 N8         2.9160   -0.6819    1.7451 N.3       1 RES1    0.0000
     21 N9         0.1704   -1.3281    3.8581 N.pl3     1 RES1    0.0000
     22 N10        1.5798   -1.2164    3.6296 N.3       1 RES1    0.0000
     23 N11        2.2566   -4.1592    4.7625 N.pl3     1 RES1    0.0000
     24 N12        2.9077   -3.0241    4.2026 N.3       1 RES1    0.0000
     25 O1         4.6418   -4.8475    1.8881 O.2       1 RES1    0.0000
     26 O2         6.2684   -3.4554    1.5141 O.2       1 RES1    0.0000
     27 O3         6.1452   -3.2810    4.4894 O.2       1 RES1    0.0000
     28 O4         5.0949   -2.5074    6.2293 O.2       1 RES1    0.0000
     29 O5         2.2352    1.4091    4.9710 O.2       1 RES1    0.0000
     30 O6         2.6948    2.0185    2.9240 O.2       1 RES1    0.0000
     31 O7         1.7235   -0.6922   -0.1156 O.2       1 RES1    0.0000
     32 O8         3.2832    0.7939    0.1239 O.2       1 RES1    0.0000
     33 O9        -0.5294   -1.4543    2.8830 O.2       1 RES1    0.0000
     34 O10       -0.1767   -1.2055    5.0182 O.2       1 RES1    0.0000
     35 O11        1.7786   -4.0101    5.8612 O.2       1 RES1    0.0000
     36 O12        2.3103   -5.1795    4.1082 O.2       1 RES1    0.0000
@<TRIPOS>BOND
     1    1    2 1
     2    3    4 1
     3    5    6 1
     4    7    3 1
     5    8    7 1
     6    9    1 1
     7   10    9 1
     8   11    5 1
     9   12   11 1
    10   13   14 1
    11   14    1 1
    12   15   16 1
    13   16    3 1
    14   17   18 1
    15   18    5 1
    16   19   20 1
    17   20    7 1
    18   21   22 1
    19   22    9 1
    20   23   24 1
    21   24    1 1
    22   25   13 2
    23   26   13 2
    24   27   15 2
    25   28   15 2
    26   29   17 2
    27   30   17 2
    28   31   19 2
    29   32   19 2
    30   33   21 2
    31   34   21 2
    32   35   23 2
    33   36   23 2
    34    3   14 1
    35    5   16 1
    36    7   18 1
    37    9   20 1
    38   11   22 1
    39   11   24 1
@<TRIPOS>SUBSTRUCTURE
     1 RES1 1

@<TRIPOS>CRYSIN
   8.8408   12.5622   13.3577  90.0000 106.8200  90.0000 231 1

