# MOL2 file generated by ConQuest
# Please check atom types

@<TRIPOS>MOLECULE
PUBMUU23
    36    39     1
SMALL
NO_CHARGES
****
Generated from CSD

@<TRIPOS>ATOM
      1 C1         6.1780    0.8571    4.7130 C.3       1 RES1    0.0000
      2 H1         6.8300    0.5992    5.3925 H         1 RES1    0.0000
      3 N1         5.0087    0.0046    4.7117 N.3       1 RES1    0.0000
      4 N2         4.7976   -0.7799    5.8613 N.pl3     1 RES1    0.0000
      5 O1         3.6769   -1.2108    5.9811 O.2       1 RES1    0.0000
      6 O2         5.7357   -0.9189    6.6040 O.2       1 RES1    0.0000
      7 C2         3.8901    0.7876    4.1520 C.3       1 RES1    0.0000
      8 H2         3.0629    0.5938    4.6787 H         1 RES1    0.0000
      9 N3         3.7177    0.4610    2.7719 N.3       1 RES1    0.0000
     10 N4         2.9573   -0.6834    2.5112 N.pl3     1 RES1    0.0000
     11 O3         3.2858   -1.2911    1.5289 O.2       1 RES1    0.0000
     12 O4         2.0750   -0.9343    3.2868 O.2       1 RES1    0.0000
     13 C3         4.8631    0.7413    1.9634 C.3       1 RES1    0.0000
     14 H3         4.6423    0.4981    1.0350 H         1 RES1    0.0000
     15 N5         6.0043   -0.1081    2.4098 N.3       1 RES1    0.0000
     16 N6         6.6904   -0.8726    1.4525 N.pl3     1 RES1    0.0000
     17 O5         6.0735   -1.2108    0.4688 O.2       1 RES1    0.0000
     18 O6         7.8176   -1.1838    1.7567 O.2       1 RES1    0.0000
     19 C4         6.8491    0.7954    3.2276 C.3       1 RES1    0.0000
     20 H4         7.7728    0.4842    3.2816 H         1 RES1    0.0000
     21 N7         6.7129    2.0695    2.5771 N.3       1 RES1    0.0000
     22 N8         7.7391    2.4123    1.6869 N.pl3     1 RES1    0.0000
     23 O7         8.8039    1.8826    1.9055 O.2       1 RES1    0.0000
     24 O8         7.5241    3.3189    0.9284 O.2       1 RES1    0.0000
     25 C5         5.3316    2.1390    2.0753 C.3       1 RES1    0.0000
     26 H5         5.3203    2.5868    1.2036 H         1 RES1    0.0000
     27 N9         4.4612    2.8571    3.0050 N.3       1 RES1    0.0000
     28 N10        4.6913    4.2470    3.0669 N.pl3     1 RES1    0.0000
     29 O9         4.1239    4.8648    3.9321 O.2       1 RES1    0.0000
     30 O10        5.4461    4.6949    2.2307 O.2       1 RES1    0.0000
     31 C6         4.3331    2.2702    4.3232 C.3       1 RES1    0.0000
     32 H6         3.7086    2.8038    4.8723 H         1 RES1    0.0000
     33 N11        5.6715    2.2162    4.9355 N.3       1 RES1    0.0000
     34 N12        5.7665    2.6725    6.2721 N.pl3     1 RES1    0.0000
     35 O11        5.1298    3.6679    6.5026 O.2       1 RES1    0.0000
     36 O12        6.5291    2.0849    6.9872 O.2       1 RES1    0.0000
@<TRIPOS>BOND
     1    1    2 1
     2    3    1 1
     3    4    3 1
     4    5    4 2
     5    6    4 2
     6    7    3 1
     7    8    7 1
     8    9    7 1
     9   10    9 1
    10   11   10 2
    11   12   10 2
    12   13    9 1
    13   14   13 1
    14   15   13 1
    15   16   15 1
    16   17   16 2
    17   18   16 2
    18   19    1 1
    19   20   19 1
    20   21   19 1
    21   22   21 1
    22   23   22 2
    23   24   22 2
    24   25   13 1
    25   26   25 1
    26   27   25 1
    27   28   27 1
    28   29   28 2
    29   30   28 2
    30   31    7 1
    31   32   31 1
    32   33    1 1
    33   34   33 1
    34   35   34 2
    35   36   34 2
    36   15   19 1
    37   21   25 1
    38   27   31 1
    39   31   33 1
@<TRIPOS>SUBSTRUCTURE
     1 RES1 1

@<TRIPOS>CRYSIN
  12.5790    7.7219   14.1260  90.0000 111.2180  90.0000 231 1

