# MOL2 file generated by ConQuest
# Please check atom types

@<TRIPOS>MOLECULE
PUBMUU14
    36    39     1
SMALL
NO_CHARGES
****
Generated from CSD

@<TRIPOS>ATOM
      1 C1         2.9894   -2.9446    2.7249 C.3       1 RES1    0.0000
      2 H1         2.6884   -3.7021    2.3531 H         1 RES1    0.0000
      3 C2         4.9668   -1.4870    2.8287 C.3       1 RES1    0.0000
      4 H2         5.8835   -1.4505    2.4936 H         1 RES1    0.0000
      5 C3         3.7318   -0.7729    4.7819 C.3       1 RES1    0.0000
      6 H3         3.8308   -0.4538    5.6524 H         1 RES1    0.0000
      7 C4         4.0803   -0.2425    2.4591 C.3       1 RES1    0.0000
      8 H4         4.5445    0.3836    1.9305 H         1 RES1    0.0000
      9 C5         2.0925   -1.7101    2.3400 C.3       1 RES1    0.0000
     10 H5         1.4057   -1.9294    1.7198 H         1 RES1    0.0000
     11 C6         2.4552   -1.7190    4.6798 C.3       1 RES1    0.0000
     12 H6         2.0551   -1.7627    5.4558 H         1 RES1    0.0000
     13 N1         5.1450   -3.7435    1.8696 N.pl3     1 RES1    0.0000
     14 N2         4.3287   -2.6663    2.2819 N.3       1 RES1    0.0000
     15 N3         5.4226   -2.4871    5.0525 N.pl3     1 RES1    0.0000
     16 N4         4.9455   -1.4226    4.3065 N.3       1 RES1    0.0000
     17 N5         2.8096    1.3023    3.8918 N.pl3     1 RES1    0.0000
     18 N6         3.7326    0.2843    3.7886 N.3       1 RES1    0.0000
     19 N7         2.6123   -0.1536    0.4917 N.pl3     1 RES1    0.0000
     20 N8         2.9137   -0.6786    1.7405 N.3       1 RES1    0.0000
     21 N9         0.1710   -1.3313    3.8571 N.pl3     1 RES1    0.0000
     22 N10        1.5772   -1.2126    3.6221 N.3       1 RES1    0.0000
     23 N11        2.2587   -4.1585    4.7584 N.pl3     1 RES1    0.0000
     24 N12        2.9095   -3.0202    4.1961 N.3       1 RES1    0.0000
     25 O1         4.6376   -4.8460    1.8759 O.2       1 RES1    0.0000
     26 O2         6.2662   -3.4518    1.5042 O.2       1 RES1    0.0000
     27 O3         6.1379   -3.2846    4.4735 O.2       1 RES1    0.0000
     28 O4         5.0949   -2.5109    6.2258 O.2       1 RES1    0.0000
     29 O5         2.2290    1.4101    4.9653 O.2       1 RES1    0.0000
     30 O6         2.6877    2.0187    2.9152 O.2       1 RES1    0.0000
     31 O7         1.7210   -0.6904   -0.1259 O.2       1 RES1    0.0000
     32 O8         3.2819    0.8005    0.1193 O.2       1 RES1    0.0000
     33 O9        -0.5322   -1.4567    2.8785 O.2       1 RES1    0.0000
     34 O10       -0.1737   -1.2096    5.0177 O.2       1 RES1    0.0000
     35 O11        1.7801   -4.0118    5.8600 O.2       1 RES1    0.0000
     36 O12        2.3121   -5.1787    4.1023 O.2       1 RES1    0.0000
@<TRIPOS>BOND
     1    1    2 1
     2    3    4 1
     3    5    6 1
     4    7    3 1
     5    8    7 1
     6    9    1 1
     7   10    9 1
     8   11    5 1
     9   12   11 1
    10   13   14 1
    11   14    1 1
    12   15   16 1
    13   16    3 1
    14   17   18 1
    15   18    5 1
    16   19   20 1
    17   20    7 1
    18   21   22 1
    19   22    9 1
    20   23   24 1
    21   24    1 1
    22   25   13 2
    23   26   13 2
    24   27   15 2
    25   28   15 2
    26   29   17 2
    27   30   17 2
    28   31   19 2
    29   32   19 2
    30   33   21 2
    31   34   21 2
    32   35   23 2
    33   36   23 2
    34    3   14 1
    35    5   16 1
    36    7   18 1
    37    9   20 1
    38   11   22 1
    39   11   24 1
@<TRIPOS>SUBSTRUCTURE
     1 RES1 1

@<TRIPOS>CRYSIN
   8.8212   12.5368   13.3330  90.0000 106.7400  90.0000 231 1

