# MOL2 file generated by ConQuest
# Please check atom types

@<TRIPOS>MOLECULE
PUBMUU16
    36    39     1
SMALL
NO_CHARGES
****
Generated from CSD

@<TRIPOS>ATOM
      1 C1         2.9878   -2.9500    2.7383 C.3       1 RES1    0.0000
      2 H1         2.7327   -3.7401    2.3502 H         1 RES1    0.0000
      3 C2         4.9650   -1.4930    2.8434 C.3       1 RES1    0.0000
      4 H2         5.8464   -1.4154    2.5156 H         1 RES1    0.0000
      5 C3         3.7295   -0.7792    4.7894 C.3       1 RES1    0.0000
      6 H3         3.8436   -0.4332    5.6616 H         1 RES1    0.0000
      7 C4         4.0835   -0.2451    2.4721 C.3       1 RES1    0.0000
      8 H4         4.5582    0.3803    1.9722 H         1 RES1    0.0000
      9 C5         2.0979   -1.7146    2.3538 C.3       1 RES1    0.0000
     10 H5         1.4347   -1.9544    1.7223 H         1 RES1    0.0000
     11 C6         2.4527   -1.7228    4.6923 C.3       1 RES1    0.0000
     12 H6         2.0461   -1.7416    5.5104 H         1 RES1    0.0000
     13 N1         5.1528   -3.7501    1.8880 N.pl3     1 RES1    0.0000
     14 N2         4.3329   -2.6723    2.2992 N.3       1 RES1    0.0000
     15 N3         5.4266   -2.4861    5.0755 N.pl3     1 RES1    0.0000
     16 N4         4.9479   -1.4261    4.3212 N.3       1 RES1    0.0000
     17 N5         2.8207    1.3003    3.9051 N.pl3     1 RES1    0.0000
     18 N6         3.7345    0.2789    3.8001 N.3       1 RES1    0.0000
     19 N7         2.6205   -0.1601    0.4990 N.pl3     1 RES1    0.0000
     20 N8         2.9180   -0.6859    1.7528 N.3       1 RES1    0.0000
     21 N9         0.1729   -1.3251    3.8630 N.pl3     1 RES1    0.0000
     22 N10        1.5779   -1.2191    3.6351 N.3       1 RES1    0.0000
     23 N11        2.2546   -4.1594    4.7726 N.pl3     1 RES1    0.0000
     24 N12        2.9079   -3.0250    4.2070 N.3       1 RES1    0.0000
     25 O1         4.6417   -4.8506    1.9017 O.2       1 RES1    0.0000
     26 O2         6.2697   -3.4608    1.5263 O.2       1 RES1    0.0000
     27 O3         6.1533   -3.2768    4.5017 O.2       1 RES1    0.0000
     28 O4         5.0931   -2.5043    6.2417 O.2       1 RES1    0.0000
     29 O5         2.2416    1.4104    4.9784 O.2       1 RES1    0.0000
     30 O6         2.7039    2.0216    2.9342 O.2       1 RES1    0.0000
     31 O7         1.7274   -0.6968   -0.1050 O.2       1 RES1    0.0000
     32 O8         3.2878    0.7858    0.1262 O.2       1 RES1    0.0000
     33 O9        -0.5295   -1.4519    2.8915 O.2       1 RES1    0.0000
     34 O10       -0.1762   -1.2071    5.0221 O.2       1 RES1    0.0000
     35 O11        1.7757   -4.0123    5.8719 O.2       1 RES1    0.0000
     36 O12        2.3105   -5.1806    4.1169 O.2       1 RES1    0.0000
@<TRIPOS>BOND
     1    1    2 1
     2    3    4 1
     3    5    6 1
     4    7    3 1
     5    8    7 1
     6    9    1 1
     7   10    9 1
     8   11    5 1
     9   12   11 1
    10   13   14 1
    11   14    1 1
    12   15   16 1
    13   16    3 1
    14   17   18 1
    15   18    5 1
    16   19   20 1
    17   20    7 1
    18   21   22 1
    19   22    9 1
    20   23   24 1
    21   24    1 1
    22   25   13 2
    23   26   13 2
    24   27   15 2
    25   28   15 2
    26   29   17 2
    27   30   17 2
    28   31   19 2
    29   32   19 2
    30   33   21 2
    31   34   21 2
    32   35   23 2
    33   36   23 2
    34    3   14 1
    35    5   16 1
    36    7   18 1
    37    9   20 1
    38   11   22 1
    39   11   24 1
@<TRIPOS>SUBSTRUCTURE
     1 RES1 1

@<TRIPOS>CRYSIN
   8.8628   12.5928   13.3947  90.0000 106.9200  90.0000 231 1

