# MOL2 file generated by ConQuest
# Please check atom types

@<TRIPOS>MOLECULE
PUBMUU13
    36    39     1
SMALL
NO_CHARGES
****
Generated from CSD

@<TRIPOS>ATOM
      1 C1         2.9881   -2.9449    2.7168 C.3       1 RES1    0.0000
      2 H1         2.7192   -3.7260    2.3587 H         1 RES1    0.0000
      3 C2         4.9642   -1.4844    2.8187 C.3       1 RES1    0.0000
      4 H2         5.8596   -1.4487    2.4810 H         1 RES1    0.0000
      5 C3         3.7341   -0.7717    4.7754 C.3       1 RES1    0.0000
      6 H3         3.8430   -0.4337    5.6693 H         1 RES1    0.0000
      7 C4         4.0789   -0.2374    2.4530 C.3       1 RES1    0.0000
      8 H4         4.5207    0.4262    1.9547 H         1 RES1    0.0000
      9 C5         2.0922   -1.7098    2.3307 C.3       1 RES1    0.0000
     10 H5         1.4061   -1.9211    1.7165 H         1 RES1    0.0000
     11 C6         2.4588   -1.7125    4.6756 C.3       1 RES1    0.0000
     12 H6         2.0018   -1.7736    5.4692 H         1 RES1    0.0000
     13 N1         5.1446   -3.7348    1.8575 N.pl3     1 RES1    0.0000
     14 N2         4.3270   -2.6627    2.2743 N.3       1 RES1    0.0000
     15 N3         5.4216   -2.4888    5.0367 N.pl3     1 RES1    0.0000
     16 N4         4.9482   -1.4220    4.2975 N.3       1 RES1    0.0000
     17 N5         2.8080    1.2954    3.8802 N.pl3     1 RES1    0.0000
     18 N6         3.7362    0.2867    3.7776 N.3       1 RES1    0.0000
     19 N7         2.6107   -0.1461    0.4877 N.pl3     1 RES1    0.0000
     20 N8         2.9097   -0.6758    1.7340 N.3       1 RES1    0.0000
     21 N9         0.1740   -1.3307    3.8537 N.pl3     1 RES1    0.0000
     22 N10        1.5810   -1.2112    3.6184 N.3       1 RES1    0.0000
     23 N11        2.2619   -4.1535    4.7514 N.pl3     1 RES1    0.0000
     24 N12        2.9126   -3.0169    4.1901 N.3       1 RES1    0.0000
     25 O1         4.6350   -4.8409    1.8626 O.2       1 RES1    0.0000
     26 O2         6.2664   -3.4457    1.4949 O.2       1 RES1    0.0000
     27 O3         6.1355   -3.2862    4.4607 O.2       1 RES1    0.0000
     28 O4         5.0964   -2.5115    6.2172 O.2       1 RES1    0.0000
     29 O5         2.2281    1.4075    4.9569 O.2       1 RES1    0.0000
     30 O6         2.6794    2.0149    2.9062 O.2       1 RES1    0.0000
     31 O7         1.7182   -0.6853   -0.1362 O.2       1 RES1    0.0000
     32 O8         3.2783    0.8062    0.1138 O.2       1 RES1    0.0000
     33 O9        -0.5285   -1.4582    2.8743 O.2       1 RES1    0.0000
     34 O10       -0.1740   -1.2127    5.0137 O.2       1 RES1    0.0000
     35 O11        1.7866   -4.0081    5.8554 O.2       1 RES1    0.0000
     36 O12        2.3170   -5.1752    4.0937 O.2       1 RES1    0.0000
@<TRIPOS>BOND
     1    1    2 1
     2    3    4 1
     3    5    6 1
     4    7    3 1
     5    8    7 1
     6    9    1 1
     7   10    9 1
     8   11    5 1
     9   12   11 1
    10   13   14 1
    11   14    1 1
    12   15   16 1
    13   16    3 1
    14   17   18 1
    15   18    5 1
    16   19   20 1
    17   20    7 1
    18   21   22 1
    19   22    9 1
    20   23   24 1
    21   24    1 1
    22   25   13 2
    23   26   13 2
    24   27   15 2
    25   28   15 2
    26   29   17 2
    27   30   17 2
    28   31   19 2
    29   32   19 2
    30   33   21 2
    31   34   21 2
    32   35   23 2
    33   36   23 2
    34    3   14 1
    35    5   16 1
    36    7   18 1
    37    9   20 1
    38   11   22 1
    39   11   24 1
@<TRIPOS>SUBSTRUCTURE
     1 RES1 1

@<TRIPOS>CRYSIN
   8.8004   12.4992   13.2985  90.0000 106.6220  90.0000 231 1

