# MOL2 file generated by ConQuest
# Please check atom types

@<TRIPOS>MOLECULE
PUBMUU08
    36    39     1
SMALL
NO_CHARGES
****
Generated from CSD

@<TRIPOS>ATOM
      1 C1        12.9386    4.1710    4.5304 C.3       1 RES1    0.0000
      2 C2        10.6848    4.8817    4.5819 C.3       1 RES1    0.0000
      3 C3        11.6245    6.1452    4.6242 C.3       1 RES1    0.0000
      4 C4        13.1698    4.0672    2.9602 C.3       1 RES1    0.0000
      5 C5        11.0408    4.7139    2.1494 C.3       1 RES1    0.0000
      6 C6        11.9466    5.9967    2.1930 C.3       1 RES1    0.0000
      7 N1        11.5820    3.7507    4.8465 N.3       1 RES1    0.0000
      8 N2        11.3849    2.9817    6.0022 N.pl3     1 RES1    0.0000
      9 N3        12.9685    5.5916    4.8849 N.3       1 RES1    0.0000
     10 N4        13.5581    5.9379    6.1319 N.pl3     1 RES1    0.0000
     11 N5        11.5978    6.7876    3.3444 N.pl3     1 RES1    0.0000
     12 N6        11.5946    8.1805    3.2546 N.pl3     1 RES1    0.0000
     13 N7        10.1085    4.7772    3.2548 N.3       1 RES1    0.0000
     14 N8         9.0058    3.8890    3.1711 N.pl3     1 RES1    0.0000
     15 N9        11.9725    3.5601    2.2999 N.3       1 RES1    0.0000
     16 N10       12.2504    2.9288    1.0346 N.pl3     1 RES1    0.0000
     17 N11       13.2713    5.3710    2.3055 N.3       1 RES1    0.0000
     18 N12       14.3856    6.1476    2.5043 N.pl3     1 RES1    0.0000
     19 O1        12.3500    2.4339    6.4878 O.2       1 RES1    0.0000
     20 O2        10.2249    2.8888    6.3867 O.2       1 RES1    0.0000
     21 O3        13.3398    7.0689    6.5132 O.2       1 RES1    0.0000
     22 O4        14.2793    5.1118    6.6538 O.2       1 RES1    0.0000
     23 O5        11.4829    8.7824    4.3071 O.2       1 RES1    0.0000
     24 O6        11.6505    8.6512    2.1405 O.2       1 RES1    0.0000
     25 O7         8.3815    3.7272    4.1998 O.2       1 RES1    0.0000
     26 O8         8.7554    3.4171    2.0822 O.2       1 RES1    0.0000
     27 O9        11.3022    2.7951    0.2940 O.2       1 RES1    0.0000
     28 O10       13.3870    2.5373    0.8446 O.2       1 RES1    0.0000
     29 O11       15.3845    5.5803    2.9258 O.2       1 RES1    0.0000
     30 O12       14.2888    7.3276    2.2088 O.2       1 RES1    0.0000
     31 H1        13.6219    3.6675    4.9883 H         1 RES1    0.0000
     32 H2         9.9780    4.9312    5.2009 H         1 RES1    0.0000
     33 H3        11.4096    6.7449    5.2961 H         1 RES1    0.0000
     34 H4        13.9313    3.5049    2.7957 H         1 RES1    0.0000
     35 H5        10.5785    4.6271    1.3447 H         1 RES1    0.0000
     36 H6        11.8736    6.4989    1.4300 H         1 RES1    0.0000
@<TRIPOS>BOND
     1    1    4 1
     2    2    3 1
     3    3    9 1
     4    4   15 1
     5    5    6 1
     6    6   11 1
     7    7    1 1
     8    8    7 1
     9    9    1 1
    10   10    9 1
    11   11    3 1
    12   12   11 1
    13   13    2 1
    14   14   13 1
    15   15    5 1
    16   16   15 1
    17   17    4 1
    18   18   17 1
    19   19    8 2
    20   20    8 2
    21   21   10 2
    22   22   10 2
    23   23   12 2
    24   24   12 2
    25   25   14 2
    26   26   14 2
    27   27   16 2
    28   28   16 2
    29   29   18 2
    30   30   18 2
    31   31    1 1
    32   32    2 1
    33   33    3 1
    34   34    4 1
    35   35    5 1
    36   36    6 1
    37    2    7 1
    38    5   13 1
    39    6   17 1
@<TRIPOS>SUBSTRUCTURE
     1 RES1 1

@<TRIPOS>CRYSIN
  13.0698    8.1737   14.7718  90.0000 108.6960  90.0000 231 1

