# MOL2 file generated by ConQuest
# Please check atom types

@<TRIPOS>MOLECULE
PUBMUU11
    36    39     1
SMALL
NO_CHARGES
****
Generated from CSD

@<TRIPOS>ATOM
      1 N1        11.7162    3.7366    4.8612 N.3       1 RES1    0.0000
      2 C1        13.0624    4.1941    4.5493 C.3       1 RES1    0.0000
      3 H1        13.7338    3.7170    5.0049 H         1 RES1    0.0000
      4 O1        12.5002    2.4442    6.5085 O.2       1 RES1    0.0000
      5 O2        10.3851    2.8625    6.4147 O.2       1 RES1    0.0000
      6 C2        10.7980    4.8411    4.5879 C.3       1 RES1    0.0000
      7 H2        10.1095    4.8435    5.1878 H         1 RES1    0.0000
      8 N2        11.5332    2.9711    6.0258 N.pl3     1 RES1    0.0000
      9 N3        13.0556    5.6049    4.9080 N.3       1 RES1    0.0000
     10 C3        11.7037    6.1269    4.6368 C.3       1 RES1    0.0000
     11 H3        11.4653    6.7396    5.3172 H         1 RES1    0.0000
     12 O3        13.3827    7.0786    6.5472 O.2       1 RES1    0.0000
     13 C4        13.3043    4.0944    2.9791 C.3       1 RES1    0.0000
     14 H4        14.0642    3.5699    2.8133 H         1 RES1    0.0000
     15 O4        14.3812    5.1605    6.6689 O.2       1 RES1    0.0000
     16 N4        13.6391    5.9651    6.1556 N.pl3     1 RES1    0.0000
     17 N5        11.6698    6.7728    3.3593 N.pl3     1 RES1    0.0000
     18 C5        11.1724    4.6899    2.1611 C.3       1 RES1    0.0000
     19 H5        10.7257    4.5813    1.3785 H         1 RES1    0.0000
     20 O5        11.5293    8.7541    4.3261 O.2       1 RES1    0.0000
     21 C6        12.0480    5.9913    2.2110 C.3       1 RES1    0.0000
     22 H6        11.9432    6.5027    1.4376 H         1 RES1    0.0000
     23 O6        11.6714    8.6381    2.1606 O.2       1 RES1    0.0000
     24 N6        11.6446    8.1594    3.2723 N.pl3     1 RES1    0.0000
     25 N7        10.2353    4.7251    3.2562 N.3       1 RES1    0.0000
     26 O7         8.5466    3.6108    4.1857 O.2       1 RES1    0.0000
     27 O8         8.9138    3.3559    2.0736 O.2       1 RES1    0.0000
     28 N8         9.1536    3.8142    3.1645 N.pl3     1 RES1    0.0000
     29 O9        11.4967    2.8037    0.2884 O.2       1 RES1    0.0000
     30 N9        12.1290    3.5613    2.3120 N.3       1 RES1    0.0000
     31 N10       12.4240    2.9246    1.0513 N.pl3     1 RES1    0.0000
     32 O10       13.5545    2.5169    0.8953 O.2       1 RES1    0.0000
     33 N11       13.3806    5.3965    2.3314 N.3       1 RES1    0.0000
     34 O11       15.4896    5.6441    2.9409 O.2       1 RES1    0.0000
     35 N12       14.4893    6.1947    2.5181 N.pl3     1 RES1    0.0000
     36 O12       14.3765    7.3580    2.2141 O.2       1 RES1    0.0000
@<TRIPOS>BOND
     1    1    2 1
     2    2    3 1
     3    4    8 2
     4    5    8 2
     5    6    1 1
     6    7    6 1
     7    8    1 1
     8    9    2 1
     9   10    6 1
    10   11   10 1
    11   12   16 2
    12   13    2 1
    13   14   13 1
    14   15   16 2
    15   16    9 1
    16   17   10 1
    17   18   19 1
    18   20   24 2
    19   21   17 1
    20   22   21 1
    21   23   24 2
    22   24   17 1
    23   25    6 1
    24   26   28 2
    25   27   28 2
    26   28   25 1
    27   29   31 2
    28   30   13 1
    29   31   30 1
    30   32   31 2
    31   33   13 1
    32   34   35 2
    33   35   33 1
    34   36   35 2
    35    9   10 1
    36   18   21 1
    37   18   25 1
    38   18   30 1
    39   21   33 1
@<TRIPOS>SUBSTRUCTURE
     1 RES1 1

@<TRIPOS>CRYSIN
  13.2272    8.1692   14.8920  90.0000 109.1640  90.0000 231 1

