# MOL2 file generated by ConQuest
# Please check atom types

@<TRIPOS>MOLECULE
PUBMUU25
    36    39     1
SMALL
NO_CHARGES
****
Generated from CSD

@<TRIPOS>ATOM
      1 O1        -2.1359    7.6350    4.5182 O.2       1 RES1    0.0000
      2 O2        -3.7661    9.0294    4.8775 O.2       1 RES1    0.0000
      3 O3        -3.6320    9.1847    1.9173 O.2       1 RES1    0.0000
      4 O4        -2.5953    9.9564    0.1592 O.2       1 RES1    0.0000
      5 O5         0.2793   13.8792    1.4147 O.2       1 RES1    0.0000
      6 O6        -0.1707   14.4786    3.4630 O.2       1 RES1    0.0000
      7 O7         0.7754   11.7942    6.5047 O.2       1 RES1    0.0000
      8 O8        -0.7758   13.2847    6.2473 O.2       1 RES1    0.0000
      9 O9         3.0324   11.0083    3.4875 O.2       1 RES1    0.0000
     10 O10        2.6786   11.2539    1.3548 O.2       1 RES1    0.0000
     11 O11        0.7064    8.4620    0.5102 O.2       1 RES1    0.0000
     12 O12        0.1785    7.3007    2.2699 O.2       1 RES1    0.0000
     13 N1        -2.6470    8.7383    4.5147 N.pl3     1 RES1    0.0000
     14 N2        -1.8305    9.8106    4.0957 N.3       1 RES1    0.0000
     15 N3        -2.9201    9.9824    1.3362 N.pl3     1 RES1    0.0000
     16 N4        -2.4470   11.0473    2.0726 N.3       1 RES1    0.0000
     17 N5        -0.3068   13.7671    2.4857 N.pl3     1 RES1    0.0000
     18 N6        -1.2309   12.7621    2.5877 N.3       1 RES1    0.0000
     19 N7        -0.1085   12.3323    5.8809 N.pl3     1 RES1    0.0000
     20 N8        -0.4102   11.7979    4.6354 N.3       1 RES1    0.0000
     21 N9         2.3292   11.1380    2.5126 N.pl3     1 RES1    0.0000
     22 N10        0.9237   11.2592    2.7487 N.3       1 RES1    0.0000
     23 N11        0.2314    8.3197    1.6147 N.pl3     1 RES1    0.0000
     24 N12       -0.4091    9.4569    2.1804 N.3       1 RES1    0.0000
     25 C1        -0.4895    9.5271    3.6525 C.3       1 RES1    0.0000
     26 C2        -2.4676   10.9871    3.5501 C.3       1 RES1    0.0000
     27 C3        -1.2366   11.7044    1.5929 C.3       1 RES1    0.0000
     28 C4        -1.5779   12.2409    3.9183 C.3       1 RES1    0.0000
     29 C5         0.4096   10.7702    4.0383 C.3       1 RES1    0.0000
     30 C6         0.0433   10.7580    1.6919 C.3       1 RES1    0.0000
     31 H1        -1.3716   12.0923    0.5893 H         1 RES1    0.0000
     32 H2         0.5586   10.6902    0.7394 H         1 RES1    0.0000
     33 H3        -3.4649   11.0644    3.9365 H         1 RES1    0.0000
     34 H4        -2.0986   12.9717    4.4926 H         1 RES1    0.0000
     35 H5         1.2227   10.5044    4.7115 H         1 RES1    0.0000
     36 H6        -0.1328    8.6071    4.0981 H         1 RES1    0.0000
@<TRIPOS>BOND
     1    1   13 2
     2    2   13 2
     3    3   15 2
     4    4   15 2
     5    5   17 2
     6    6   17 2
     7    7   19 2
     8    8   19 2
     9    9   21 2
    10   10   21 2
    11   11   23 2
    12   12   23 2
    13   13   14 1
    14   14   25 1
    15   15   16 1
    16   16   26 1
    17   17   18 1
    18   18   27 1
    19   19   20 1
    20   20   28 1
    21   21   22 1
    22   22   29 1
    23   23   24 1
    24   24   25 1
    25   25   29 1
    26   26   14 1
    27   27   16 1
    28   28   18 1
    29   29   20 1
    30   30   22 1
    31   31   27 1
    32   32   30 1
    33   33   26 1
    34   34   28 1
    35   35   29 1
    36   36   25 1
    37   24   30 1
    38   26   28 1
    39   27   30 1
@<TRIPOS>SUBSTRUCTURE
     1 RES1 1

@<TRIPOS>CRYSIN
   8.7890   12.4740   13.2790  90.0000 106.5780  90.0000 231 1

