# MOL2 file generated by ConQuest
# Please check atom types

@<TRIPOS>MOLECULE
PUBMUU17
    36    39     1
SMALL
NO_CHARGES
****
Generated from CSD

@<TRIPOS>ATOM
      1 O1        -3.6674    3.0152    1.9114 O.2       1 RES1    0.0000
      2 O2        -2.6123    3.7825    0.1665 O.2       1 RES1    0.0000
      3 O3        -0.2076    8.3009    3.4730 O.2       1 RES1    0.0000
      4 O4         0.2439    7.6971    1.4297 O.2       1 RES1    0.0000
      5 O5         0.1612    1.1132    2.2803 O.2       1 RES1    0.0000
      6 O6         0.6982    2.2781    0.5329 O.2       1 RES1    0.0000
      7 O7         3.0198    4.8366    3.5179 O.2       1 RES1    0.0000
      8 O8         2.6594    5.0769    1.3861 O.2       1 RES1    0.0000
      9 O9        -3.7794    2.8278    4.8797 O.2       1 RES1    0.0000
     10 O10       -2.1538    1.4416    4.5094 O.2       1 RES1    0.0000
     11 O11       -0.7930    7.0694    6.2825 O.2       1 RES1    0.0000
     12 O12        0.7545    5.5977    6.5143 O.2       1 RES1    0.0000
     13 N1        -2.4600    4.8630    2.0882 N.3       1 RES1    0.0000
     14 N2        -2.9464    3.8051    1.3413 N.pl3     1 RES1    0.0000
     15 N3        -1.2461    6.5662    2.6083 N.3       1 RES1    0.0000
     16 N4        -0.3355    7.5826    2.5020 N.pl3     1 RES1    0.0000
     17 N5        -0.4193    3.2705    2.1945 N.3       1 RES1    0.0000
     18 N6         0.2209    2.1334    1.6308 N.pl3     1 RES1    0.0000
     19 N7         0.9087    5.0719    2.7736 N.3       1 RES1    0.0000
     20 N8         2.3106    4.9574    2.5366 N.pl3     1 RES1    0.0000
     21 N9        -1.8441    3.6152    4.1072 N.3       1 RES1    0.0000
     22 N10       -2.6604    2.5397    4.5184 N.pl3     1 RES1    0.0000
     23 N11       -0.4263    5.5964    4.6529 N.3       1 RES1    0.0000
     24 N12       -0.1215    6.1335    5.9020 N.pl3     1 RES1    0.0000
     25 C1        -1.2463    5.5121    1.6103 C.3       1 RES1    0.0000
     26 C2        -2.4797    4.7901    3.5576 C.3       1 RES1    0.0000
     27 C3        -1.5922    6.0430    3.9394 C.3       1 RES1    0.0000
     28 C4         0.0302    4.5649    1.7167 C.3       1 RES1    0.0000
     29 C5        -0.5027    3.3372    3.6639 C.3       1 RES1    0.0000
     30 C6         0.3928    4.5725    4.0572 C.3       1 RES1    0.0000
     31 H1        -1.4152    5.8367    0.6662 H         1 RES1    0.0000
     32 H2        -3.3455    4.8303    3.9073 H         1 RES1    0.0000
     33 H3        -2.0919    6.7172    4.4454 H         1 RES1    0.0000
     34 H4         0.4602    4.5410    0.9352 H         1 RES1    0.0000
     35 H5        -0.1817    2.5787    4.0739 H         1 RES1    0.0000
     36 H6         1.1223    4.3523    4.6504 H         1 RES1    0.0000
@<TRIPOS>BOND
     1    1   14 2
     2    2   14 2
     3    3   16 2
     4    4   16 2
     5    5   18 2
     6    6   18 2
     7    7   20 2
     8    8   20 2
     9    9   22 2
    10   10   22 2
    11   11   24 2
    12   12   24 2
    13   13   14 1
    14   15   16 1
    15   17   18 1
    16   19   20 1
    17   21   22 1
    18   23   24 1
    19   25   13 1
    20   26   13 1
    21   27   15 1
    22   28   17 1
    23   29   17 1
    24   30   19 1
    25   31   25 1
    26   32   26 1
    27   33   27 1
    28   34   28 1
    29   35   29 1
    30   36   30 1
    31   15   25 1
    32   19   28 1
    33   21   26 1
    34   21   29 1
    35   23   27 1
    36   23   30 1
    37   25   28 1
    38   26   27 1
    39   29   30 1
@<TRIPOS>SUBSTRUCTURE
     1 RES1 1

@<TRIPOS>CRYSIN
   8.8550   12.5790   13.3870  90.0000 106.8700  90.0000 231 1

