# MOL2 file generated by ConQuest
# Please check atom types

@<TRIPOS>MOLECULE
PUCRIP
    45    48     1
SMALL
NO_CHARGES
****
Generated from CSD

@<TRIPOS>ATOM
      1 O1         1.9170    2.0457    0.8846 O.3       1 RES1    0.0000
      2 O2         4.1226    8.5633   -0.7113 O.2       1 RES1    0.0000
      3 O3         5.4257    4.2421   -0.4095 O.2       1 RES1    0.0000
      4 O4         8.1567    3.1261   -5.4393 O.2       1 RES1    0.0000
      5 O5         8.6200    1.1068   -4.8107 O.2       1 RES1    0.0000
      6 O6         1.1646    5.4330   -2.0865 O.2       1 RES1    0.0000
      7 N1         3.3262    2.0721   -1.5532 N.3       1 RES1    0.0000
      8 N2         7.8974    2.1097   -4.7834 N.pl3     1 RES1    0.0000
      9 N3         2.6598    6.9756   -1.4080 N.am      1 RES1    0.0000
     10 H1         2.0894    7.5937   -1.5848 H         1 RES1    0.0000
     11 N4         4.7310    6.3874   -0.5330 N.am      1 RES1    0.0000
     12 H2         5.4477    6.6291   -0.1246 H         1 RES1    0.0000
     13 C1         4.7933    3.2011   -3.0845 C.ar      1 RES1    0.0000
     14 C2         3.8680    7.3770   -0.8802 C.2       1 RES1    0.0000
     15 C3         6.3475    0.9147   -3.3125 C.ar      1 RES1    0.0000
     16 H3         6.8639    0.1477   -3.4108 H         1 RES1    0.0000
     17 C4         2.7118    3.3042   -1.0259 C.3       1 RES1    0.0000
     18 H4         1.7805    3.3061   -1.3340 H         1 RES1    0.0000
     19 C5         4.4326    2.0337   -2.3585 C.ar      1 RES1    0.0000
     20 C6         2.6406    0.8733   -1.0742 C.3       1 RES1    0.0000
     21 H5         3.1117    0.0871   -1.3908 H         1 RES1    0.0000
     22 H6         1.7426    0.8510   -1.4397 H         1 RES1    0.0000
     23 C7         6.7178    2.0865   -3.9594 C.ar      1 RES1    0.0000
     24 C8         3.3547    4.6101   -1.5551 C.3       1 RES1    0.0000
     25 C9         2.6660    3.2215    0.5100 C.3       1 RES1    0.0000
     26 H7         3.5796    3.1478    0.8578 H         1 RES1    0.0000
     27 C10        1.7678   -0.3357    0.9565 C.3       1 RES1    0.0000
     28 H8         1.7621   -0.3176    1.9159 H         1 RES1    0.0000
     29 H9         2.1675   -1.1548    0.6544 H         1 RES1    0.0000
     30 H10        0.8671   -0.2805    0.6307 H         1 RES1    0.0000
     31 C11        2.5640    0.8329    0.4363 C.3       1 RES1    0.0000
     32 H11        3.4709    0.7957    0.8042 H         1 RES1    0.0000
     33 C12        5.2246    0.8849   -2.5307 C.ar      1 RES1    0.0000
     34 H12        4.9810    0.0935   -2.1067 H         1 RES1    0.0000
     35 C13        1.9808    4.3960    1.1584 C.3       1 RES1    0.0000
     36 H13        1.9922    4.2866    2.1114 H         1 RES1    0.0000
     37 H14        1.0735    4.4460    0.8515 H         1 RES1    0.0000
     38 H15        2.4422    5.2045    0.9240 H         1 RES1    0.0000
     39 C14        5.9211    3.2253   -3.8534 C.ar      1 RES1    0.0000
     40 H16        6.1572    4.0019   -4.3064 H         1 RES1    0.0000
     41 C15        2.2806    5.6826   -1.6786 C.2       1 RES1    0.0000
     42 C16        4.5802    5.0345   -0.7659 C.2       1 RES1    0.0000
     43 C17        3.8502    4.3631   -3.0147 C.3       1 RES1    0.0000
     44 H17        3.0870    4.1921   -3.5874 H         1 RES1    0.0000
     45 H18        4.2977    5.1599   -3.3414 H         1 RES1    0.0000
@<TRIPOS>BOND
     1    1   25 1
     2    2   14 2
     3    3   42 2
     4    4    8 2
     5    5    8 2
     6    6   41 2
     7    7   17 1
     8    8   23 1
     9    9   10 1
    10   11   12 1
    11   13   19 ar
    12   14    9 1
    13   15   16 1
    14   17   18 1
    15   19    7 1
    16   20    7 1
    17   21   20 1
    18   22   20 1
    19   23   15 ar
    20   24   17 1
    21   25   17 1
    22   26   25 1
    23   27   28 1
    24   29   27 1
    25   30   27 1
    26   31    1 1
    27   32   31 1
    28   33   15 ar
    29   34   33 1
    30   35   25 1
    31   36   35 1
    32   37   35 1
    33   38   35 1
    34   39   13 ar
    35   40   39 1
    36   41    9 1
    37   42   11 1
    38   43   13 1
    39   44   43 1
    40   45   43 1
    41   11   14 1
    42   19   33 ar
    43   20   31 1
    44   23   39 ar
    45   24   41 1
    46   24   42 1
    47   24   43 1
    48   27   31 1
@<TRIPOS>SUBSTRUCTURE
     1 RES1 1

@<TRIPOS>CRYSIN
  22.5453   10.6236   17.5931  90.0000 116.3240  90.0000  15 1

