# MOL2 file generated by ConQuest
# Please check atom types

@<TRIPOS>MOLECULE
PUDGEA
    16    16     1
SMALL
NO_CHARGES
****
Generated from CSD

@<TRIPOS>ATOM
      1 O1        -4.7923   -0.7724   -7.2440 O.2       1 RES1    0.0000
      2 O2        -3.7441   -1.1552   -5.3568 O.2       1 RES1    0.0000
      3 N1        -4.8267   -0.9395   -6.0009 N.pl3     1 RES1    0.0000
      4 C1        -5.9764   -0.9395   -5.3002 C.2       1 RES1    0.0000
      5 C2        -7.2627   -0.8212   -5.8992 C.2       1 RES1    0.0000
      6 N2        -7.4005   -0.7168   -7.1875 N.3       1 RES1    0.0000
      7 C3        -8.6777   -0.6194   -7.9447 C.3       1 RES1    0.0000
      8 C4        -9.2169   -2.0112   -8.2159 C.3       1 RES1    0.0000
      9 C5        -8.4442    0.1809   -9.1878 C.ar      1 RES1    0.0000
     10 C6        -9.1678    1.2944   -9.4591 C.ar      1 RES1    0.0000
     11 C7        -8.9697    2.0181  -10.6457 C.ar      1 RES1    0.0000
     12 C8        -8.0334    1.6075  -11.5611 C.ar      1 RES1    0.0000
     13 C9        -7.2964    0.4802  -11.2786 C.ar      1 RES1    0.0000
     14 C10       -7.4896   -0.2088  -10.1371 C.ar      1 RES1    0.0000
     15 N3        -8.3420   -0.8351   -5.0968 N.3       1 RES1    0.0000
     16 C11       -8.2859   -0.8420   -3.6616 C.3       1 RES1    0.0000
@<TRIPOS>BOND
     1    1    3 2
     2    2    3 2
     3    3    4 1
     4    4    5 2
     5    5    6 1
     6    6    7 1
     7    7    8 1
     8    9    7 1
     9   10    9 ar
    10   11   10 ar
    11   12   11 ar
    12   13   12 ar
    13   14    9 ar
    14   15    5 1
    15   16   15 1
    16   13   14 ar
@<TRIPOS>SUBSTRUCTURE
     1 RES1 1

@<TRIPOS>CRYSIN
   7.3720    6.9590   11.3630  90.0000  95.9800  90.0000   4 1

