# MOL2 file generated by ConQuest
# Please check atom types

@<TRIPOS>MOLECULE
PUDQOU
    27    28     1
SMALL
NO_CHARGES
****
Generated from CSD

@<TRIPOS>ATOM
      1 C1        -1.5346    0.8679    6.7762 C.3       1 RES1    0.0000
      2 C2        -1.3958    1.2950    5.3120 C.3       1 RES1    0.0000
      3 C3        -0.5919    0.2772    4.5134 C.3       1 RES1    0.0000
      4 C4         0.6508   -0.1311    5.2904 C.3       1 RES1    0.0000
      5 C5         0.3139   -0.4256    6.7529 C.3       1 RES1    0.0000
      6 C6        -2.5181    1.7264    7.5372 C.3       1 RES1    0.0000
      7 C7         1.4684   -1.0649    7.4907 C.3       1 RES1    0.0000
      8 C8         0.3394    1.5703    9.4913 C.3       1 RES1    0.0000
      9 N1        -0.1929    0.8082    7.3627 N.3       1 RES1    0.0000
     10 O1        -2.0220   -0.5076    6.8470 O.3       1 RES1    0.0000
     11 O2        -0.8066   -1.3556    6.8272 O.3       1 RES1    0.0000
     12 O3        -0.3492    0.5463    8.7812 O.3       1 RES1    0.0000
     13 H1        -0.9741    2.1817    5.3121 H         1 RES1    0.0000
     14 H2        -2.2914    1.3811    4.9540 H         1 RES1    0.0000
     15 H3        -0.3527    0.6505    3.6409 H         1 RES1    0.0000
     16 H4        -1.1418   -0.5504    4.3452 H         1 RES1    0.0000
     17 H5         1.3387    0.5805    5.2763 H         1 RES1    0.0000
     18 H6         1.0760   -0.9408    4.9301 H         1 RES1    0.0000
     19 H7        -2.2185    2.6421    7.5324 H         1 RES1    0.0000
     20 H8        -2.5909    1.4612    8.4755 H         1 RES1    0.0000
     21 H9        -3.3716    1.6713    7.1027 H         1 RES1    0.0000
     22 H10        2.2516   -0.4604    7.4369 H         1 RES1    0.0000
     23 H11        1.2518   -1.2410    8.4277 H         1 RES1    0.0000
     24 H12        1.6949   -1.9115    7.0669 H         1 RES1    0.0000
     25 H13       -0.0778    2.4520    9.3230 H         1 RES1    0.0000
     26 H14        1.2864    1.5913    9.2514 H         1 RES1    0.0000
     27 H15        0.2384    1.3110   10.4332 H         1 RES1    0.0000
@<TRIPOS>BOND
     1    1    2 1
     2    2    3 1
     3    3    4 1
     4    4    5 1
     5    5    7 1
     6    6    1 1
     7    7   22 1
     8    8   12 1
     9    9    1 1
    10   10    1 1
    11   11    5 1
    12   12    9 1
    13   13    2 1
    14   14    2 1
    15   15    3 1
    16   16    3 1
    17   17    4 1
    18   18    4 1
    19   19    6 1
    20   20    6 1
    21   21    6 1
    22   23    7 1
    23   24    7 1
    24   25    8 1
    25   26    8 1
    26   27    8 1
    27    5    9 1
    28   10   11 1
@<TRIPOS>SUBSTRUCTURE
     1 RES1 1

@<TRIPOS>CRYSIN
  15.3840   10.0080   13.7660  90.0000 119.8700  90.0000  15 1

