# MOL2 file generated by ConQuest
# Please check atom types

@<TRIPOS>MOLECULE
PUFMEJ
    26    27     1
SMALL
NO_CHARGES
****
Generated from CSD

@<TRIPOS>ATOM
      1 C1         8.5916   -0.5951    2.2889 C.2       1 RES1    0.0000
      2 H1         8.4675   -0.9386    1.4341 H         1 RES1    0.0000
      3 C2         9.7560   -0.2170    2.7629 C.2       1 RES1    0.0000
      4 H2        10.5800   -0.2531    2.3311 H         1 RES1    0.0000
      5 C3         9.4882    0.2614    4.0776 C.2       1 RES1    0.0000
      6 H3        10.1024    0.6357    4.6674 H         1 RES1    0.0000
      7 C4         8.1876    0.0688    4.3005 C.2       1 RES1    0.0000
      8 C5         7.4383    0.3884    5.4520 C.2       1 RES1    0.0000
      9 H4         7.8667    0.8314    6.1471 H         1 RES1    0.0000
     10 C6         4.2901    0.1478    7.0195 C.ar      1 RES1    0.0000
     11 C7         3.5381   -0.4735    5.9944 C.ar      1 RES1    0.0000
     12 H5         3.9392   -0.6863    5.1817 H         1 RES1    0.0000
     13 C8         2.2101   -0.7608    6.2086 C.ar      1 RES1    0.0000
     14 H6         1.7279   -1.1841    5.5363 H         1 RES1    0.0000
     15 C9         1.5661   -0.4419    7.3899 C.ar      1 RES1    0.0000
     16 H7         0.6593   -0.6217    7.4935 H         1 RES1    0.0000
     17 C10        2.2722    0.1387    8.4027 C.ar      1 RES1    0.0000
     18 H8         1.8600    0.3272    9.2155 H         1 RES1    0.0000
     19 C11        3.6334    0.4499    8.2009 C.ar      1 RES1    0.0000
     20 N1         6.1881    0.0965    5.5854 N.2       1 RES1    0.0000
     21 N2         5.6042    0.4419    6.7791 N.pl3     1 RES1    0.0000
     22 H9         6.0677    0.8463    7.3811 H         1 RES1    0.0000
     23 N3         4.2877    1.1031    9.3015 N.pl3     1 RES1    0.0000
     24 O1         5.4792    1.4033    9.1911 O.2       1 RES1    0.0000
     25 O2         3.6521    1.3524   10.3250 O.2       1 RES1    0.0000
     26 O3         7.5891   -0.4294    3.1859 O.3       1 RES1    0.0000
@<TRIPOS>BOND
     1    1    2 1
     2    3    1 2
     3    4    3 1
     4    5    3 1
     5    6    5 1
     6    7    5 2
     7    8    7 1
     8    9    8 1
     9   10   11 ar
    10   11   12 1
    11   13   11 ar
    12   14   13 1
    13   15   13 ar
    14   16   15 1
    15   17   15 ar
    16   18   17 1
    17   19   10 ar
    18   20    8 2
    19   21   10 1
    20   22   21 1
    21   23   19 1
    22   24   23 2
    23   25   23 2
    24   26    1 1
    25    7   26 1
    26   17   19 ar
    27   20   21 1
@<TRIPOS>SUBSTRUCTURE
     1 RES1 1

@<TRIPOS>CRYSIN
  15.8520    3.8000   17.7210  90.0000  97.8900  90.0000 231 1

