# MOL2 file generated by ConQuest
# Please check atom types

@<TRIPOS>MOLECULE
PUFMOT
    37    38     1
SMALL
NO_CHARGES
****
Generated from CSD

@<TRIPOS>ATOM
      1 O1         0.3577    6.7930    3.5873 O.3       1 RES1    0.0000
      2 O2         0.4553    6.0735    6.1444 O.3       1 RES1    0.0000
      3 N1         5.2817    8.4614    2.6344 N.2       1 RES1    0.0000
      4 C1         3.9268    7.4294    4.3374 C.ar      1 RES1    0.0000
      5 C2         6.8495    9.3554    1.0473 C.ar      1 RES1    0.0000
      6 C3         5.9063    9.4974    0.0432 C.ar      1 RES1    0.0000
      7 H1         5.0228    9.2427    0.1778 H         1 RES1    0.0000
      8 N2         5.3073   10.1614   -2.2155 N.pl3     1 RES1    0.0000
      9 C4         1.5793    6.9013    4.1876 C.ar      1 RES1    0.0000
     10 C5         2.7263    6.6758    6.2795 C.ar      1 RES1    0.0000
     11 H2         2.7186    6.4676    7.1855 H         1 RES1    0.0000
     12 C6         3.8957    7.1124    5.6803 C.ar      1 RES1    0.0000
     13 H3         4.6706    7.1932    6.1885 H         1 RES1    0.0000
     14 N3         6.5535    8.8361    2.2839 N.3       1 RES1    0.0000
     15 H4         7.1867    8.7425    2.8587 H         1 RES1    0.0000
     16 C7         5.1789    7.9035    3.7771 C.2       1 RES1    0.0000
     17 H5         5.9522    7.7940    4.2812 H         1 RES1    0.0000
     18 C8         2.7512    7.3101    3.5886 C.ar      1 RES1    0.0000
     19 H6         2.7604    7.5083    2.6794 H         1 RES1    0.0000
     20 C9         6.3133   10.0252   -1.1578 C.ar      1 RES1    0.0000
     21 C10        1.5822    6.5503    5.5409 C.ar      1 RES1    0.0000
     22 C11        8.1657    9.7336    0.7941 C.ar      1 RES1    0.0000
     23 H7         8.8094    9.6329    1.4575 H         1 RES1    0.0000
     24 O3         4.1836    9.7824   -2.0125 O.2       1 RES1    0.0000
     25 C12        7.5967   10.4157   -1.4289 C.ar      1 RES1    0.0000
     26 H8         7.8327   10.7742   -2.2538 H         1 RES1    0.0000
     27 O4         5.6258   10.6434   -3.2792 O.2       1 RES1    0.0000
     28 C13        0.2485    7.0391    2.1895 C.3       1 RES1    0.0000
     29 H9         0.6421    6.3066    1.6900 H         1 RES1    0.0000
     30 H10        0.7172    7.8559    1.9575 H         1 RES1    0.0000
     31 C14        8.5209   10.2531   -0.4222 C.ar      1 RES1    0.0000
     32 H11        9.4052   10.5009   -0.5714 H         1 RES1    0.0000
     33 C15       -1.2055    7.1668    1.8584 C.3       1 RES1    0.0000
     34 H12       -1.3066    7.3318    0.9179 H         1 RES1    0.0000
     35 H13       -1.5840    7.8978    2.3541 H         1 RES1    0.0000
     36 H14       -1.6596    6.3538    2.0912 H         1 RES1    0.0000
     37 H15       -0.1642    6.0162    5.5077 H         1 RES1    0.0000
@<TRIPOS>BOND
     1    1    9 1
     2    2   21 1
     3    3   14 1
     4    4   12 ar
     5    5    6 ar
     6    6    7 1
     7    8   20 1
     8    9   18 ar
     9   10   11 1
    10   12   10 ar
    11   13   12 1
    12   14    5 1
    13   15   14 1
    14   16    3 2
    15   17   16 1
    16   18    4 ar
    17   19   18 1
    18   20    6 ar
    19   21    9 ar
    20   22    5 ar
    21   23   22 1
    22   24    8 2
    23   25   20 ar
    24   26   25 1
    25   27    8 2
    26   28    1 1
    27   29   28 1
    28   30   28 1
    29   31   22 ar
    30   32   31 1
    31   33   28 1
    32   34   33 1
    33   35   33 1
    34   36   33 1
    35   37    2 1
    36    4   16 1
    37   10   21 ar
    38   25   31 ar
@<TRIPOS>SUBSTRUCTURE
     1 RES1 1

@<TRIPOS>CRYSIN
  12.4160    7.7429   16.2249  90.0000 110.4970  90.0000 231 1

