# MOL2 file generated by ConQuest
# Please check atom types

@<TRIPOS>MOLECULE
PUGLAF
    39    42     1
SMALL
NO_CHARGES
****
Generated from CSD

@<TRIPOS>ATOM
      1 O1         3.7996   -0.3177    0.3813 O.3       1 RES1    0.0000
      2 N1         2.9202    0.6603    0.8892 N.2       1 RES1    0.0000
      3 N2         0.5125    0.0601    4.5791 N.2       1 RES1    0.0000
      4 N3        -0.3716    0.6173    2.5995 N.3       1 RES1    0.0000
      5 N4        -0.9649    3.3443    2.3038 N.ar      1 RES1    0.0000
      6 C1         4.2306   -1.0846    1.4088 C.2       1 RES1    0.0000
      7 C2         3.6662   -0.6560    2.5434 C.2       1 RES1    0.0000
      8 H1         3.7818   -1.0064    3.3964 H         1 RES1    0.0000
      9 C3         2.8613    0.4365    2.1729 C.2       1 RES1    0.0000
     10 C4         2.0037    1.3101    3.0475 C.3       1 RES1    0.0000
     11 H2         2.4981    1.5351    3.8520 H         1 RES1    0.0000
     12 H3         1.8109    2.1365    2.5772 H         1 RES1    0.0000
     13 C5         0.7165    0.6584    3.4342 C.2       1 RES1    0.0000
     14 C6        -0.7907   -0.4116    4.5042 C.ar      1 RES1    0.0000
     15 C7        -1.5260   -1.1366    5.4342 C.ar      1 RES1    0.0000
     16 H4        -1.1532   -1.3915    6.2466 H         1 RES1    0.0000
     17 C8        -2.8221   -1.4650    5.1144 C.ar      1 RES1    0.0000
     18 H5        -3.3330   -1.9462    5.7247 H         1 RES1    0.0000
     19 C9        -3.3843   -1.0947    3.9005 C.ar      1 RES1    0.0000
     20 H6        -4.2651   -1.3309    3.7195 H         1 RES1    0.0000
     21 C10       -2.6770   -0.3881    2.9575 C.ar      1 RES1    0.0000
     22 H7        -3.0556   -0.1428    2.1441 H         1 RES1    0.0000
     23 C11       -1.3662   -0.0591    3.2838 C.ar      1 RES1    0.0000
     24 C12       -0.4974    1.1895    1.2677 C.3       1 RES1    0.0000
     25 H8        -1.0721    0.6127    0.7400 H         1 RES1    0.0000
     26 H9         0.3787    1.1899    0.8499 H         1 RES1    0.0000
     27 C13       -1.0513    2.5922    1.2139 C.ar      1 RES1    0.0000
     28 C14       -1.4197    4.6025    2.2070 C.ar      1 RES1    0.0000
     29 H10       -1.3775    5.1402    2.9650 H         1 RES1    0.0000
     30 C15       -1.9409    5.1436    1.0659 C.ar      1 RES1    0.0000
     31 H11       -2.2399    6.0237    1.0503 H         1 RES1    0.0000
     32 C16       -2.0116    4.3588   -0.0519 C.ar      1 RES1    0.0000
     33 H12       -2.3555    4.6971   -0.8467 H         1 RES1    0.0000
     34 C17       -1.5669    3.0620    0.0194 C.ar      1 RES1    0.0000
     35 H13       -1.6117    2.5069   -0.7255 H         1 RES1    0.0000
     36 C18        5.1747   -2.1660    1.0558 C.3       1 RES1    0.0000
     37 H14        4.7446   -2.7847    0.4621 H         1 RES1    0.0000
     38 H15        5.4478   -2.6246    1.8533 H         1 RES1    0.0000
     39 H16        5.9452   -1.7895    0.6237 H         1 RES1    0.0000
@<TRIPOS>BOND
     1    1    2 1
     2    2    9 2
     3    3   13 2
     4    4   13 1
     5    5   27 ar
     6    6    1 1
     7    7    6 2
     8    8    7 1
     9    9    7 1
    10   10    9 1
    11   11   10 1
    12   12   10 1
    13   13   10 1
    14   14    3 1
    15   15   14 ar
    16   16   15 1
    17   17   15 ar
    18   18   17 1
    19   19   17 ar
    20   20   19 1
    21   21   19 ar
    22   22   21 1
    23   23    4 1
    24   24    4 1
    25   25   24 1
    26   26   24 1
    27   27   24 1
    28   28    5 ar
    29   29   28 1
    30   30   28 ar
    31   31   30 1
    32   32   30 ar
    33   33   32 1
    34   34   27 ar
    35   35   34 1
    36   36    6 1
    37   37   36 1
    38   38   36 1
    39   39   36 1
    40   14   23 ar
    41   21   23 ar
    42   32   34 ar
@<TRIPOS>SUBSTRUCTURE
     1 RES1 1

@<TRIPOS>CRYSIN
  11.0761    8.6535   16.5920  90.0000 103.1360  90.0000 231 1

