# MOL2 file generated by ConQuest
# Please check atom types

@<TRIPOS>MOLECULE
PUGMEK
    40    41     1
SMALL
NO_CHARGES
****
Generated from CSD

@<TRIPOS>ATOM
      1 O1         9.4964    4.4482    3.4081 O.2       1 RES1    0.0000
      2 O2         9.7700    4.8947    5.5021 O.2       1 RES1    0.0000
      3 O3         6.5902    1.0666    1.8835 O.2       1 RES1    0.0000
      4 O4         5.6710   -0.2883    3.2967 O.2       1 RES1    0.0000
      5 N1         8.5605    3.5057    7.3321 N.pl3     1 RES1    0.0000
      6 H1         9.1602    4.0847    7.1668 H         1 RES1    0.0000
      7 N2         8.2145    3.1215    8.6141 N.2       1 RES1    0.0000
      8 N3         9.2598    4.2296    4.5928 N.pl3     1 RES1    0.0000
      9 N4         6.3562    0.6962    3.0284 N.pl3     1 RES1    0.0000
     10 C1         8.7913    3.7564    9.5703 C.2       1 RES1    0.0000
     11 C2         8.4360    3.2896   10.9559 C.3       1 RES1    0.0000
     12 H2         9.2610    2.9994   11.4204 H         1 RES1    0.0000
     13 H3         7.8345    2.5059   10.8882 H         1 RES1    0.0000
     14 C3         8.0379    2.8461    6.2802 C.ar      1 RES1    0.0000
     15 C4         8.3475    3.1626    4.9357 C.ar      1 RES1    0.0000
     16 C5         7.7905    2.4644    3.8777 C.ar      1 RES1    0.0000
     17 H4         8.0169    2.6879    2.9832 H         1 RES1    0.0000
     18 C6         6.9122    1.4507    4.1350 C.ar      1 RES1    0.0000
     19 C7         6.5676    1.1031    5.4433 C.ar      1 RES1    0.0000
     20 H5         5.9554    0.3946    5.6042 H         1 RES1    0.0000
     21 C8         7.1155    1.7870    6.4863 C.ar      1 RES1    0.0000
     22 H6         6.8738    1.5491    7.3749 H         1 RES1    0.0000
     23 C9         9.8172    4.8437    9.4345 C.3       1 RES1    0.0000
     24 H7         9.7714    5.4376   10.2260 H         1 RES1    0.0000
     25 H8         9.6133    5.3876    8.6334 H         1 RES1    0.0000
     26 C10       11.2273    4.2711    9.3120 C.3       1 RES1    0.0000
     27 H9        11.8710    5.0039    9.2176 H         1 RES1    0.0000
     28 H10       11.2765    3.6892    8.5253 H         1 RES1    0.0000
     29 H11       11.4399    3.7515   10.1159 H         1 RES1    0.0000
     30 C11        7.7594    4.3611   11.7766 C.ar      1 RES1    0.0000
     31 C12        8.4017    4.9599   12.8468 C.ar      1 RES1    0.0000
     32 H12        9.2851    4.6944   13.0731 H         1 RES1    0.0000
     33 C13        7.7682    5.9439   13.5917 C.ar      1 RES1    0.0000
     34 H13        8.2201    6.3444   14.3256 H         1 RES1    0.0000
     35 C14        6.4887    6.3439   13.2734 C.ar      1 RES1    0.0000
     36 H14        6.0569    7.0189   13.7854 H         1 RES1    0.0000
     37 C15        5.8377    5.7580   12.2077 C.ar      1 RES1    0.0000
     38 H15        4.9566    6.0314   11.9827 H         1 RES1    0.0000
     39 C16        6.4670    4.7701   11.4637 C.ar      1 RES1    0.0000
     40 H16        6.0109    4.3690   10.7342 H         1 RES1    0.0000
@<TRIPOS>BOND
     1    1    8 2
     2    2    8 2
     3    3    9 2
     4    4    9 2
     5    5    6 1
     6    7    5 1
     7    8   15 1
     8    9   18 1
     9   10    7 2
    10   11   10 1
    11   12   11 1
    12   13   11 1
    13   14    5 1
    14   15   14 ar
    15   16   15 ar
    16   17   16 1
    17   18   16 ar
    18   19   18 ar
    19   20   19 1
    20   21   14 ar
    21   22   21 1
    22   23   10 1
    23   24   23 1
    24   25   23 1
    25   26   23 1
    26   27   26 1
    27   28   26 1
    28   29   26 1
    29   30   11 1
    30   31   30 ar
    31   32   31 1
    32   33   31 ar
    33   34   33 1
    34   35   33 ar
    35   36   35 1
    36   37   35 ar
    37   38   37 1
    38   39   30 ar
    39   40   39 1
    40   19   21 ar
    41   37   39 ar
@<TRIPOS>SUBSTRUCTURE
     1 RES1 1

@<TRIPOS>CRYSIN
  15.8919    4.9446   20.7397  90.0000 105.2670  90.0000 231 1

