# MOL2 file generated by ConQuest
# Please check atom types

@<TRIPOS>MOLECULE
PUGSUG
    52    54     1
SMALL
NO_CHARGES
****
Generated from CSD

@<TRIPOS>ATOM
      1 N1        -2.9614    3.6136    6.8274 N.pl3     1 RES1    0.0000
      2 O1        -1.6216    2.4332    4.3755 O.3       1 RES1    0.0000
      3 O2        -0.8142    5.1368    3.2733 O.3       1 RES1    0.0000
      4 O3         4.0444   -0.9100    4.9665 O.3       1 RES1    0.0000
      5 O4         2.1027   -1.1144    6.0613 O.2       1 RES1    0.0000
      6 O5         4.6741   -2.8948    3.1184 O.3       1 RES1    0.0000
      7 O6         3.5244   -3.8312    4.8000 O.2       1 RES1    0.0000
      8 O7         3.1619   -3.2113    0.9006 O.3       1 RES1    0.0000
      9 O8         4.1518   -2.0969   -0.7420 O.2       1 RES1    0.0000
     10 O9         0.6919    1.9321    2.7035 O.3       1 RES1    0.0000
     11 O10        0.2292    0.9957    0.7273 O.2       1 RES1    0.0000
     12 O11       -2.6865    4.4246    5.7410 O.3       1 RES1    0.0000
     13 O12       -2.0418    3.1652    7.4335 O.2       1 RES1    0.0000
     14 O13       -4.1361    3.4355    6.9755 O.2       1 RES1    0.0000
     15 C1        -0.6614    3.3828    4.8061 C.3       1 RES1    0.0000
     16 H1         0.0180    2.9647    5.3740 H         1 RES1    0.0000
     17 C2        -1.6670    2.4200    2.9496 C.3       1 RES1    0.0000
     18 H2        -2.3810    2.9891    2.6244 H         1 RES1    0.0000
     19 H3        -1.8096    1.5186    2.6183 H         1 RES1    0.0000
     20 C3        -0.3260    2.9410    2.5068 C.3       1 RES1    0.0000
     21 H4        -0.3373    3.3023    1.5969 H         1 RES1    0.0000
     22 C4        -0.0261    3.9894    3.5572 C.3       1 RES1    0.0000
     23 H5         0.9288    4.1859    3.6565 H         1 RES1    0.0000
     24 C5        -1.1550    5.7237    4.5038 C.3       1 RES1    0.0000
     25 H6        -1.9948    6.2011    4.4259 H         1 RES1    0.0000
     26 H7        -0.4675    6.3501    4.7786 H         1 RES1    0.0000
     27 C6        -1.2771    4.6159    5.5038 C.3       1 RES1    0.0000
     28 H8        -0.8020    4.8282    6.3343 H         1 RES1    0.0000
     29 C7         3.2831   -0.9957    6.0992 C.2       1 RES1    0.0000
     30 C8         4.1366   -0.9364    7.3160 C.3       1 RES1    0.0000
     31 H9         4.2017   -0.0290    7.6198 H         1 RES1    0.0000
     32 H10        5.0137   -1.2667    7.1068 H         1 RES1    0.0000
     33 H11        3.7470   -1.4791    8.0060 H         1 RES1    0.0000
     34 C9         4.5017   -3.7850    4.1267 C.2       1 RES1    0.0000
     35 C10        5.6922   -4.6884    4.1832 C.3       1 RES1    0.0000
     36 H12        5.5982   -5.2970    4.9206 H         1 RES1    0.0000
     37 H13        6.4865   -4.1629    4.3007 H         1 RES1    0.0000
     38 H14        5.7555   -5.1863    3.3649 H         1 RES1    0.0000
     39 C11        3.7292   -3.1190   -0.3221 C.2       1 RES1    0.0000
     40 C12        3.6925   -4.4378   -1.0107 C.3       1 RES1    0.0000
     41 H15        4.1262   -4.3653   -1.8641 H         1 RES1    0.0000
     42 H16        2.7791   -4.7062   -1.1374 H         1 RES1    0.0000
     43 H17        4.1469   -5.0913   -0.4748 H         1 RES1    0.0000
     44 C13        0.8498    0.9957    1.7588 C.2       1 RES1    0.0000
     45 C14        1.8513   -0.0132    2.1527 C.ar      1 RES1    0.0000
     46 C15        2.4874    0.0330    3.3862 C.ar      1 RES1    0.0000
     47 H18        2.3067    0.7273    3.9771 H         1 RES1    0.0000
     48 C16        3.3812   -0.9496    3.7297 C.ar      1 RES1    0.0000
     49 C17        3.6606   -1.9782    2.8626 C.ar      1 RES1    0.0000
     50 C18        2.9986   -2.0442    1.6549 C.ar      1 RES1    0.0000
     51 C19        2.0980   -1.0880    1.2962 C.ar      1 RES1    0.0000
     52 H19        1.6509   -1.1507    0.4824 H         1 RES1    0.0000
@<TRIPOS>BOND
     1    1   12 1
     2    2   15 1
     3    3   22 1
     4    4   29 1
     5    5   29 2
     6    6   34 1
     7    7   34 2
     8    8   39 1
     9    9   39 2
    10   10   20 1
    11   11   44 2
    12   12   27 1
    13   13    1 2
    14   14    1 2
    15   15   16 1
    16   17    2 1
    17   18   17 1
    18   19   17 1
    19   20   17 1
    20   21   20 1
    21   22   15 1
    22   23   22 1
    23   24    3 1
    24   25   24 1
    25   26   24 1
    26   27   15 1
    27   28   27 1
    28   29   30 1
    29   30   31 1
    30   32   30 1
    31   33   30 1
    32   34   35 1
    33   35   36 1
    34   37   35 1
    35   38   35 1
    36   39   40 1
    37   40   41 1
    38   42   40 1
    39   43   40 1
    40   44   10 1
    41   45   44 1
    42   46   45 ar
    43   47   46 1
    44   48    4 1
    45   49    6 1
    46   50    8 1
    47   51   45 ar
    48   52   51 1
    49   20   22 1
    50   24   27 1
    51   46   48 ar
    52   48   49 ar
    53   49   50 ar
    54   50   51 ar
@<TRIPOS>SUBSTRUCTURE
     1 RES1 1

@<TRIPOS>CRYSIN
  10.8053    6.5941   16.0750  90.0000 108.2430  90.0000   4 1

