# MOL2 file generated by ConQuest
# Please check atom types

@<TRIPOS>MOLECULE
PUGYIA
    31    32     1
SMALL
NO_CHARGES
****
Generated from CSD

@<TRIPOS>ATOM
      1 N1        -0.5019   -0.9436    6.5252 N.pl3     1 RES1    0.0000
      2 N2         2.3011    3.8336    7.5458 N.3       1 RES1    0.0000
      3 C1         0.2267    0.2895    6.7830 C.ar      1 RES1    0.0000
      4 C2         1.3268    0.2645    7.6074 C.ar      1 RES1    0.0000
      5 C3         2.0276    1.4343    7.8642 C.ar      1 RES1    0.0000
      6 C4         1.6127    2.6585    7.2828 C.ar      1 RES1    0.0000
      7 C5         0.5051    2.6263    6.4142 C.ar      1 RES1    0.0000
      8 C6        -0.1855    1.4612    6.1726 C.ar      1 RES1    0.0000
      9 C7         3.2818    1.3025    8.6335 C.2       1 RES1    0.0000
     10 C8         2.4241    4.2630    8.9483 C.3       1 RES1    0.0000
     11 C9         3.5858    5.2084    9.1207 C.3       1 RES1    0.0000
     12 C10        3.4464    6.4022    8.2016 C.3       1 RES1    0.0000
     13 C11        3.2651    5.9426    6.7738 C.3       1 RES1    0.0000
     14 C12        2.1058    4.9750    6.6413 C.3       1 RES1    0.0000
     15 O1        -0.0531   -1.9909    6.9638 O.2       1 RES1    0.0000
     16 O2        -1.5332   -0.8956    5.8754 O.2       1 RES1    0.0000
     17 O3         3.5757    0.3161    9.2599 O.2       1 RES1    0.0000
     18 H1         1.6342   -0.5595    7.9797 H         1 RES1    0.0000
     19 H2         0.2016    3.4212    5.9955 H         1 RES1    0.0000
     20 H3        -0.9487    1.4666    5.5917 H         1 RES1    0.0000
     21 H4         3.8926    2.0302    8.5949 H         1 RES1    0.0000
     22 H5         2.5200    3.4683    9.5212 H         1 RES1    0.0000
     23 H6         1.6031    4.7329    9.2052 H         1 RES1    0.0000
     24 H7         3.6498    5.4747   10.0597 H         1 RES1    0.0000
     25 H8         4.3815    4.7274    8.9001 H         1 RES1    0.0000
     26 H9         4.1989    6.9583    8.2739 H         1 RES1    0.0000
     27 H10        2.6477    6.9180    8.4902 H         1 RES1    0.0000
     28 H11        3.0991    6.7058    6.1880 H         1 RES1    0.0000
     29 H12        4.0832    5.4946    6.4841 H         1 RES1    0.0000
     30 H13        1.2551    5.4142    6.8600 H         1 RES1    0.0000
     31 H14        2.0366    4.6408    5.7213 H         1 RES1    0.0000
@<TRIPOS>BOND
     1    1    3 1
     2    2    6 1
     3    3    4 ar
     4    4    5 ar
     5    5    6 ar
     6    6    7 ar
     7    7    8 ar
     8    8    3 ar
     9    9    5 1
    10   10    2 1
    11   11   10 1
    12   12   11 1
    13   13   12 1
    14   14    2 1
    15   15    1 2
    16   16    1 2
    17   17    9 2
    18   18    4 1
    19   19    7 1
    20   20    8 1
    21   21    9 1
    22   22   10 1
    23   23   10 1
    24   24   11 1
    25   25   11 1
    26   26   12 1
    27   27   12 1
    28   28   13 1
    29   29   13 1
    30   30   14 1
    31   31   14 1
    32   13   14 1
@<TRIPOS>SUBSTRUCTURE
     1 RES1 1

@<TRIPOS>CRYSIN
   5.6860   10.1020   10.2210  80.7670  80.7330  86.0340   2 1

