# MOL2 file generated by ConQuest
# Please check atom types

@<TRIPOS>MOLECULE
PUJFUW
    23    23     2
SMALL
NO_CHARGES
****
Generated from CSD

@<TRIPOS>ATOM
      1 C1         6.2407    5.2015    2.0646 C.ar      1 RES1    0.0000
      2 H1         5.6327    5.8608    1.8146 H         1 RES1    0.0000
      3 C2         7.5789    5.3956    1.8575 C.ar      1 RES1    0.0000
      4 H2         7.8768    6.1808    1.4600 H         1 RES1    0.0000
      5 C3         8.4818    4.4328    2.2368 C.ar      1 RES1    0.0000
      6 H3         9.3936    4.5677    2.0995 H         1 RES1    0.0000
      7 C4         8.0383    3.2706    2.8182 C.ar      1 RES1    0.0000
      8 H4         8.6520    2.6215    3.0791 H         1 RES1    0.0000
      9 C5         6.6964    3.0600    3.0173 C.ar      1 RES1    0.0000
     10 H5         6.4044    2.2662    3.4025 H         1 RES1    0.0000
     11 C6         5.7810    4.0279    2.6445 C.ar      1 RES1    0.0000
     12 C7         4.3518    3.8412    2.9112 C.2       1 RES1    0.0000
     13 C8         3.3735    4.8274    3.1285 C.2       1 RES1    0.0000
     14 H6         3.4824    5.7498    3.0783 H         1 RES1    0.0000
     15 C9         2.2657    4.1669    3.4192 C.2       1 RES1    0.0000
     16 C10        0.9257    4.5899    3.8712 C.3       1 RES1    0.0000
     17 H7         0.8275    4.3536    4.8072 H         1 RES1    0.0000
     18 H8         0.8666    5.5556    3.8058 H         1 RES1    0.0000
     19 N1         3.8476    2.6426    3.0398 N.2       1 RES1    0.0000
     20 O1         2.4957    2.8368    3.3741 O.3       1 RES1    0.0000
     21 O2        -0.1463    4.0251    3.1496 O.3       1 RES1    0.0000
     22 H9        -0.2893    3.1824    3.1946 H         1 RES1    0.0000
     23 H10        0.3209    3.8138    2.4345 Du        2 SUP2    0.0000
@<TRIPOS>BOND
     1    1    2 1
     2    3    1 ar
     3    4    3 1
     4    5    3 ar
     5    6    5 1
     6    7    5 ar
     7    8    7 1
     8    9    7 ar
     9   10    9 1
    10   11    1 ar
    11   12   11 1
    12   13   12 1
    13   14   13 1
    14   15   13 2
    15   16   15 1
    16   17   16 1
    17   18   16 1
    18   19   12 2
    19   20   15 1
    20   21   16 1
    21   22   21 1
    22    9   11 ar
    23   19   20 1
@<TRIPOS>SUBSTRUCTURE
     1 RES1 1
     2 SUP2 23

@<TRIPOS>CRYSIN
  41.0300    5.6940    7.3480  90.0000  98.5100  90.0000  15 1

