# MOL2 file generated by ConQuest
# Please check atom types

@<TRIPOS>MOLECULE
PUJJEK
    35    36     1
SMALL
NO_CHARGES
****
Generated from CSD

@<TRIPOS>ATOM
      1 O1         1.9350    6.0701    5.7009 O.3       1 RES1    0.0000
      2 O2        -0.1624    5.4048    5.2771 O.2       1 RES1    0.0000
      3 O3         0.4235    7.2936    7.7055 O.2       1 RES1    0.0000
      4 O4         0.3561    9.3949    8.1091 O.2       1 RES1    0.0000
      5 O5         3.5689    2.0205    5.3676 O.2       1 RES1    0.0000
      6 O6         4.3802    1.5110    3.4270 O.2       1 RES1    0.0000
      7 N1         4.4275    4.6785    5.0143 N.pl3     1 RES1    0.0000
      8 N2         5.5094    5.4599    3.2304 N.2       1 RES1    0.0000
      9 N3         0.3649    8.4492    7.3333 N.pl3     1 RES1    0.0000
     10 N4         4.1528    2.3156    4.3289 N.pl3     1 RES1    0.0000
     11 C1         0.6707    6.2696    5.3560 C.2       1 RES1    0.0000
     12 C2         0.4188    7.6929    4.9901 C.ar      1 RES1    0.0000
     13 C3         0.2897    8.7358    5.9005 C.ar      1 RES1    0.0000
     14 C4         0.0369   10.0291    5.5284 C.ar      1 RES1    0.0000
     15 H1        -0.0396   10.7124    6.1833 H         1 RES1    0.0000
     16 C5        -0.1027   10.3251    4.1975 C.ar      1 RES1    0.0000
     17 H2        -0.2812   11.2166    3.9232 H         1 RES1    0.0000
     18 C6         0.0169    9.3278    3.2630 C.ar      1 RES1    0.0000
     19 H3        -0.0889    9.5309    2.3411 H         1 RES1    0.0000
     20 C7         0.2878    8.0293    3.6551 C.ar      1 RES1    0.0000
     21 H4         0.3864    7.3538    2.9939 H         1 RES1    0.0000
     22 C8         2.2621    4.7448    6.1833 C.3       1 RES1    0.0000
     23 H5         1.9506    4.0590    5.5420 H         1 RES1    0.0000
     24 H6         1.8275    4.5804    7.0568 H         1 RES1    0.0000
     25 C9         3.7467    4.6863    6.3241 C.3       1 RES1    0.0000
     26 H7         4.0554    5.4676    6.8476 H         1 RES1    0.0000
     27 H8         3.9946    3.8679    6.8245 H         1 RES1    0.0000
     28 C10        4.9878    5.7645    4.4162 C.2       1 RES1    0.0000
     29 C11        5.2643    4.1416    3.0433 C.2       1 RES1    0.0000
     30 H9         5.5092    3.6408    2.2738 H         1 RES1    0.0000
     31 C12        4.6089    3.6434    4.1344 C.2       1 RES1    0.0000
     32 C13        4.9937    7.1267    4.9933 C.3       1 RES1    0.0000
     33 H10        5.6076    7.6946    4.4824 H         1 RES1    0.0000
     34 H11        5.2885    7.0836    5.9268 H         1 RES1    0.0000
     35 H12        4.0898    7.5018    4.9533 H         1 RES1    0.0000
@<TRIPOS>BOND
     1    1   11 1
     2    2   11 2
     3    3    9 2
     4    4    9 2
     5    5   10 2
     6    6   10 2
     7    7   25 1
     8    8   28 2
     9    9   13 1
    10   10   31 1
    11   11   12 1
    12   12   13 ar
    13   13   14 ar
    14   14   15 1
    15   16   14 ar
    16   17   16 1
    17   18   16 ar
    18   19   18 1
    19   20   12 ar
    20   21   20 1
    21   22    1 1
    22   23   22 1
    23   24   22 1
    24   25   22 1
    25   26   25 1
    26   27   25 1
    27   28    7 1
    28   29    8 1
    29   30   29 1
    30   31    7 1
    31   32   28 1
    32   33   32 1
    33   34   32 1
    34   35   32 1
    35   18   20 ar
    36   29   31 2
@<TRIPOS>SUBSTRUCTURE
     1 RES1 1

@<TRIPOS>CRYSIN
  15.3920    8.6050   10.9680  90.0000 106.5760  90.0000  14 1

