# MOL2 file generated by ConQuest
# Please check atom types

@<TRIPOS>MOLECULE
PUJLIR
    32    33     1
SMALL
NO_CHARGES
****
Generated from CSD

@<TRIPOS>ATOM
      1 C1         5.0642    2.8750   12.4579 C.ar      1 RES1    0.0000
      2 C2         6.0364    3.8323   12.3114 C.ar      1 RES1    0.0000
      3 H1         6.4670    4.1900   13.0524 H         1 RES1    0.0000
      4 C3         6.3603    4.2522   11.0349 C.ar      1 RES1    0.0000
      5 H2         7.0228    4.8943   10.9147 H         1 RES1    0.0000
      6 C4         5.7021    3.7215    9.9257 C.ar      1 RES1    0.0000
      7 C5         4.7212    2.7518   10.1125 C.ar      1 RES1    0.0000
      8 H3         4.2792    2.3941    9.3764 H         1 RES1    0.0000
      9 C6         4.4023    2.3201   11.3811 C.ar      1 RES1    0.0000
     10 H4         3.7533    1.6668   11.5111 H         1 RES1    0.0000
     11 C7         6.1354    4.1599    8.5706 C.2       1 RES1    0.0000
     12 C8         5.1690    4.2359    7.4626 C.2       1 RES1    0.0000
     13 C9         5.4709    4.3505    6.1032 C.2       1 RES1    0.0000
     14 H5         6.3121    4.3715    5.7066 H         1 RES1    0.0000
     15 C10        4.2538    4.4246    5.4830 C.2       1 RES1    0.0000
     16 C11        3.8473    4.5510    4.0778 C.2       1 RES1    0.0000
     17 C12        4.6485    4.6801    1.8524 C.3       1 RES1    0.0000
     18 H6         4.8064    5.5934    1.5658 H         1 RES1    0.0000
     19 H7         3.7261    4.4540    1.6575 H         1 RES1    0.0000
     20 C13        5.5455    3.7713    1.1380 C.3       1 RES1    0.0000
     21 H8         6.4561    3.9784    1.3609 H         1 RES1    0.0000
     22 H9         5.4179    3.8735    0.1927 H         1 RES1    0.0000
     23 H10        5.3513    2.8658    1.3915 H         1 RES1    0.0000
     24 N1         4.7099    2.4203   13.8169 N.pl3     1 RES1    0.0000
     25 N2         3.8411    4.2437    7.6776 N.2       1 RES1    0.0000
     26 N3         3.3150    4.3633    6.4617 N.pl3     1 RES1    0.0000
     27 H11        2.4691    4.3984    6.3121 H         1 RES1    0.0000
     28 O1         5.3274    2.8678   14.7540 O.2       1 RES1    0.0000
     29 O2         3.8116    1.6157   13.9399 O.2       1 RES1    0.0000
     30 O3         7.3034    4.4606    8.3556 O.2       1 RES1    0.0000
     31 O4         2.7026    4.6388    3.7319 O.2       1 RES1    0.0000
     32 O5         4.8987    4.5595    3.2787 O.3       1 RES1    0.0000
@<TRIPOS>BOND
     1    1    2 ar
     2    2    3 1
     3    4    2 ar
     4    5    4 1
     5    6    4 ar
     6    7    6 ar
     7    8    7 1
     8    9    1 ar
     9   10    9 1
    10   11    6 1
    11   12   11 1
    12   13   12 1
    13   14   13 1
    14   15   13 2
    15   16   15 1
    16   17   18 1
    17   19   17 1
    18   20   17 1
    19   21   20 1
    20   22   20 1
    21   23   20 1
    22   24    1 1
    23   25   12 2
    24   26   15 1
    25   27   26 1
    26   28   24 2
    27   29   24 2
    28   30   11 2
    29   31   16 2
    30   32   16 1
    31    7    9 ar
    32   17   32 1
    33   25   26 1
@<TRIPOS>SUBSTRUCTURE
     1 RES1 1

@<TRIPOS>CRYSIN
  13.5890    6.5520   30.5820  90.0000  90.0000  90.0000  61 1

