# MOL2 file generated by ConQuest
# Please check atom types

@<TRIPOS>MOLECULE
PUJVUM
    49    50     1
SMALL
NO_CHARGES
****
Generated from CSD

@<TRIPOS>ATOM
      1 C1         6.5858    3.6343    5.2345 C.ar      1 RES1    0.0000
      2 C2         7.6512    4.3791    5.7670 C.ar      1 RES1    0.0000
      3 H1         7.4955    5.1573    6.2520 H         1 RES1    0.0000
      4 C3         8.9247    3.9265    5.5504 C.ar      1 RES1    0.0000
      5 H2         9.6466    4.4128    5.8782 H         1 RES1    0.0000
      6 C4         9.1514    2.7680    4.8592 C.ar      1 RES1    0.0000
      7 H3        10.0236    2.4711    4.7316 H         1 RES1    0.0000
      8 C5         8.0939    2.0315    4.3475 C.ar      1 RES1    0.0000
      9 H4         8.2609    1.2451    3.8788 H         1 RES1    0.0000
     10 C6         6.7912    2.4607    4.5301 C.ar      1 RES1    0.0000
     11 C7         5.6548    1.6813    3.9476 C.ar      1 RES1    0.0000
     12 C8         5.2358    0.4887    4.5305 C.ar      1 RES1    0.0000
     13 C9         4.1883   -0.2187    3.9455 C.ar      1 RES1    0.0000
     14 C10        3.9774    1.3393    2.2531 C.ar      1 RES1    0.0000
     15 C11        4.9960    2.1271    2.8138 C.ar      1 RES1    0.0000
     16 C12        5.8491    0.0501    5.8115 C.2       1 RES1    0.0000
     17 C13        6.9015   -1.7326    6.9595 C.3       1 RES1    0.0000
     18 H5         7.3133   -1.0390    7.4801 H         1 RES1    0.0000
     19 H6         7.5535   -2.4051    6.7489 H         1 RES1    0.0000
     20 H7         6.1847   -2.1270    7.4609 H         1 RES1    0.0000
     21 C14        3.5874   -1.4766    4.5655 C.3       1 RES1    0.0000
     22 H8         2.6917   -1.5967    4.2407 H         1 RES1    0.0000
     23 H9         3.5713   -1.3857    5.5207 H         1 RES1    0.0000
     24 H10        4.1198   -2.2372    4.3237 H         1 RES1    0.0000
     25 C15        3.2501    1.7480    1.0220 C.3       1 RES1    0.0000
     26 H11        2.7650    0.9960    0.6719 H         1 RES1    0.0000
     27 H12        3.8792    2.0562    0.3649 H         1 RES1    0.0000
     28 H13        2.6353    2.4547    1.2326 H         1 RES1    0.0000
     29 C16        5.3526    3.4765    2.2116 C.2       1 RES1    0.0000
     30 C17        4.5396    5.6759    1.8348 C.3       1 RES1    0.0000
     31 H14        4.6360    5.6037    0.8736 H         1 RES1    0.0000
     32 H15        5.3359    6.0971    2.1938 H         1 RES1    0.0000
     33 C18        3.3343    6.4866    2.1715 C.3       1 RES1    0.0000
     34 H16        3.3123    6.5952    3.1445 H         1 RES1    0.0000
     35 C19        2.0575    5.8572    1.7621 C.3       1 RES1    0.0000
     36 H17        2.0822    5.6650    0.8217 H         1 RES1    0.0000
     37 H18        1.3311    6.4570    1.9475 H         1 RES1    0.0000
     38 H19        1.9321    5.0416    2.2531 H         1 RES1    0.0000
     39 C20        3.4908    7.8857    1.5530 C.3       1 RES1    0.0000
     40 H20        3.5746    7.8067    0.5992 H         1 RES1    0.0000
     41 H21        4.2755    8.3080    1.9090 H         1 RES1    0.0000
     42 H22        2.7185    8.4170    1.7621 H         1 RES1    0.0000
     43 N1         5.2107    3.9991    5.4328 N.2       1 RES1    0.0000
     44 N2         3.5848    0.2008    2.8246 N.ar      1 RES1    0.0000
     45 O1         5.0440    5.0856    5.9375 O.2       1 RES1    0.0000
     46 O2         4.3665    4.3511    2.4220 O.3       1 RES1    0.0000
     47 O3         6.3420    3.7149    1.6716 O.2       1 RES1    0.0000
     48 O4         5.8978    0.7173    6.7968 O.2       1 RES1    0.0000
     49 O5         6.3784   -1.1682    5.7327 O.3       1 RES1    0.0000
@<TRIPOS>BOND
     1    1    2 ar
     2    2    3 1
     3    4    2 ar
     4    5    4 1
     5    6    4 ar
     6    7    6 1
     7    8    6 ar
     8    9    8 1
     9   10    1 ar
    10   11   10 1
    11   12   11 ar
    12   13   12 ar
    13   14   15 ar
    14   15   11 ar
    15   16   12 1
    16   17   18 1
    17   19   17 1
    18   20   17 1
    19   21   13 1
    20   22   21 1
    21   23   21 1
    22   24   21 1
    23   25   14 1
    24   26   25 1
    25   27   25 1
    26   28   25 1
    27   29   15 1
    28   30   31 1
    29   32   30 1
    30   33   30 1
    31   34   33 1
    32   35   33 1
    33   36   35 1
    34   37   35 1
    35   38   35 1
    36   39   33 1
    37   40   39 1
    38   41   39 1
    39   42   39 1
    40   43    1 1
    41   44   13 ar
    42   45   43 2
    43   46   29 1
    44   47   29 2
    45   48   16 2
    46   49   16 1
    47    8   10 ar
    48   14   44 ar
    49   17   49 1
    50   30   46 1
@<TRIPOS>SUBSTRUCTURE
     1 RES1 1

@<TRIPOS>CRYSIN
   7.1831    9.7819   15.0245  89.4880  81.2010  70.6250   2 1

