# MOL2 file generated by ConQuest
# Please check atom types

@<TRIPOS>MOLECULE
PUJVAS
    40    42     1
SMALL
NO_CHARGES
****
Generated from CSD

@<TRIPOS>ATOM
      1 O1         4.0154    3.7384    2.6613 O.2       1 RES1    0.0000
      2 O2         6.3226   -0.4928   -2.6827 O.2       1 RES1    0.0000
      3 O3         7.5460   -0.8753   -0.9714 O.2       1 RES1    0.0000
      4 O4         4.6090    5.3834   -0.5318 O.3       1 RES1    0.0000
      5 O5        -0.8166    3.4370    3.8360 O.3       1 RES1    0.0000
      6 N1         6.6480   -0.2821   -1.5297 N.pl3     1 RES1    0.0000
      7 C1         2.8553    4.6016    0.7803 C.ar      1 RES1    0.0000
      8 C2         3.2685    5.3906   -0.2785 C.ar      1 RES1    0.0000
      9 C3         2.3497    6.1767   -0.9959 C.ar      1 RES1    0.0000
     10 H1         2.6323    6.6892   -1.7185 H         1 RES1    0.0000
     11 C4         1.0395    6.1785   -0.6211 C.ar      1 RES1    0.0000
     12 H2         0.4307    6.6776   -1.1155 H         1 RES1    0.0000
     13 C5         0.5798    5.4547    0.4834 C.ar      1 RES1    0.0000
     14 C6        -0.7744    5.4942    0.9067 C.ar      1 RES1    0.0000
     15 H3        -1.3883    5.9934    0.4188 H         1 RES1    0.0000
     16 C7        -1.1907    4.8265    1.9989 C.ar      1 RES1    0.0000
     17 H4        -2.0808    4.8761    2.2626 H         1 RES1    0.0000
     18 C8        -0.2797    4.0522    2.7415 C.ar      1 RES1    0.0000
     19 C9         1.0313    3.9540    2.3628 C.ar      1 RES1    0.0000
     20 H5         1.6167    3.4211    2.8520 H         1 RES1    0.0000
     21 C10        1.4998    4.6593    1.2288 C.ar      1 RES1    0.0000
     22 C11        3.8355    3.6977    1.4584 C.2       1 RES1    0.0000
     23 C12        4.5624    2.6664    0.6420 C.ar      1 RES1    0.0000
     24 C13        4.1906    2.3578   -0.6637 C.ar      1 RES1    0.0000
     25 H6         3.4819    2.8119   -1.0612 H         1 RES1    0.0000
     26 C14        4.8661    1.3820   -1.3753 C.ar      1 RES1    0.0000
     27 H7         4.6209    1.1692   -2.2471 H         1 RES1    0.0000
     28 C15        5.9086    0.7350   -0.7594 C.ar      1 RES1    0.0000
     29 C16        6.3064    1.0102    0.5332 C.ar      1 RES1    0.0000
     30 H8         7.0175    0.5543    0.9216 H         1 RES1    0.0000
     31 C17        5.6194    1.9825    1.2350 C.ar      1 RES1    0.0000
     32 H9         5.8655    2.1797    2.1095 H         1 RES1    0.0000
     33 C18        5.0906    6.0523   -1.6926 C.3       1 RES1    0.0000
     34 H10        6.0144    5.8289   -1.8303 H         1 RES1    0.0000
     35 H11        5.0046    7.0010   -1.5743 H         1 RES1    0.0000
     36 H12        4.5779    5.7769   -2.4565 H         1 RES1    0.0000
     37 C19        0.0558    2.6918    4.6707 C.3       1 RES1    0.0000
     38 H13       -0.4136    2.4193    5.4624 H         1 RES1    0.0000
     39 H14        0.8072    3.2363    4.9163 H         1 RES1    0.0000
     40 H15        0.3642    1.9141    4.1989 H         1 RES1    0.0000
@<TRIPOS>BOND
     1    1   22 2
     2    2    6 2
     3    3    6 2
     4    4    8 1
     5    5   18 1
     6    6   28 1
     7    7    8 ar
     8    8    9 ar
     9    9   10 1
    10   11    9 ar
    11   12   11 1
    12   13   11 ar
    13   14   13 ar
    14   15   14 1
    15   16   14 ar
    16   17   16 1
    17   18   16 ar
    18   19   18 ar
    19   20   19 1
    20   21    7 ar
    21   22    7 1
    22   23   22 1
    23   24   23 ar
    24   25   24 1
    25   26   24 ar
    26   27   26 1
    27   28   26 ar
    28   29   28 ar
    29   30   29 1
    30   31   23 ar
    31   32   31 1
    32   33    4 1
    33   34   33 1
    34   35   33 1
    35   36   33 1
    36   37    5 1
    37   38   37 1
    38   39   37 1
    39   40   37 1
    40   13   21 ar
    41   19   21 ar
    42   29   31 ar
@<TRIPOS>SUBSTRUCTURE
     1 RES1 1

@<TRIPOS>CRYSIN
   8.6877   28.8700    6.4635  90.0000  90.8390  90.0000  14 1

