# MOL2 file generated by ConQuest
# Please check atom types

@<TRIPOS>MOLECULE
PUKBAZ
    40    42     1
SMALL
NO_CHARGES
****
Generated from CSD

@<TRIPOS>ATOM
      1 O1         2.6749   11.4576   -0.1021 O.2       1 RES1    0.0000
      2 O2         1.1840    9.9957   -0.6323 O.2       1 RES1    0.0000
      3 N1         2.1552   10.3528    0.0188 N.pl3     1 RES1    0.0000
      4 C1         2.7212    9.4171    0.9938 C.ar      1 RES1    0.0000
      5 C2         3.7445    9.8518    1.7990 C.ar      1 RES1    0.0000
      6 H1         4.0751   10.7166    1.7157 H         1 RES1    0.0000
      7 C3         4.2770    8.9864    2.7324 C.ar      1 RES1    0.0000
      8 H2         4.9645    9.2646    3.2939 H         1 RES1    0.0000
      9 C4         3.7711    7.6944    2.8241 C.ar      1 RES1    0.0000
     10 C5         2.7554    7.2748    1.9792 C.ar      1 RES1    0.0000
     11 C6         2.2070    8.1425    1.0532 C.ar      1 RES1    0.0000
     12 H3         1.5161    7.8742    0.4917 H         1 RES1    0.0000
     13 C7         4.2081    6.5917    3.7616 C.3       1 RES1    0.0000
     14 C8         3.6078    5.3546    3.0449 C.3       1 RES1    0.0000
     15 H4         4.2712    4.9544    2.4616 H         1 RES1    0.0000
     16 H5         3.3335    4.6922    3.6981 H         1 RES1    0.0000
     17 C9         2.3959    5.8157    2.2230 C.3       1 RES1    0.0000
     18 C10        5.7431    6.5113    3.8418 C.3       1 RES1    0.0000
     19 H6         6.1081    6.4786    2.9543 H         1 RES1    0.0000
     20 H7         5.9977    5.7200    4.3221 H         1 RES1    0.0000
     21 H8         6.0807    7.2846    4.2981 H         1 RES1    0.0000
     22 C11        1.0826    5.7195    3.0199 C.3       1 RES1    0.0000
     23 H9         0.3691    6.1090    2.5095 H         1 RES1    0.0000
     24 H10        1.1766    6.1917    3.8502 H         1 RES1    0.0000
     25 H11        0.8821    4.7978    3.1980 H         1 RES1    0.0000
     26 C12        2.2584    5.0276    0.9250 C.3       1 RES1    0.0000
     27 H12        3.0523    5.1392    0.3979 H         1 RES1    0.0000
     28 H13        1.4998    5.3504    0.4334 H         1 RES1    0.0000
     29 H14        2.1352    4.0973    1.1271 H         1 RES1    0.0000
     30 C13        3.6391    6.7626    5.1731 C.ar      1 RES1    0.0000
     31 C14        2.8592    7.8466    5.5481 C.ar      1 RES1    0.0000
     32 H15        2.6512    8.5043    4.9242 H         1 RES1    0.0000
     33 C15        2.3887    7.9561    6.8461 C.ar      1 RES1    0.0000
     34 H16        1.8669    8.6874    7.0847 H         1 RES1    0.0000
     35 C16        2.6799    7.0052    7.7774 C.ar      1 RES1    0.0000
     36 H17        2.3735    7.0928    8.6514 H         1 RES1    0.0000
     37 C17        3.4293    5.9187    7.4118 C.ar      1 RES1    0.0000
     38 H18        3.6158    5.2554    8.0357 H         1 RES1    0.0000
     39 C18        3.9052    5.8027    6.1357 C.ar      1 RES1    0.0000
     40 H19        4.4202    5.0618    5.9086 H         1 RES1    0.0000
@<TRIPOS>BOND
     1    1    3 2
     2    2    3 2
     3    3    4 1
     4    4    5 ar
     5    5    6 1
     6    7    5 ar
     7    8    7 1
     8    9    7 ar
     9   10    9 ar
    10   11    4 ar
    11   12   11 1
    12   13    9 1
    13   14   13 1
    14   15   14 1
    15   16   14 1
    16   17   10 1
    17   18   13 1
    18   19   18 1
    19   20   18 1
    20   21   18 1
    21   22   17 1
    22   23   22 1
    23   24   22 1
    24   25   22 1
    25   26   17 1
    26   27   26 1
    27   28   26 1
    28   29   26 1
    29   30   13 1
    30   31   30 ar
    31   32   31 1
    32   33   31 ar
    33   34   33 1
    34   35   33 ar
    35   36   35 1
    36   37   35 ar
    37   38   37 1
    38   39   30 ar
    39   40   39 1
    40   10   11 ar
    41   14   17 1
    42   37   39 ar
@<TRIPOS>SUBSTRUCTURE
     1 RES1 1

@<TRIPOS>CRYSIN
   8.3060   17.6000   12.0900  90.0000 120.5000  90.0000  14 1

