# MOL2 file generated by ConQuest
# Please check atom types

@<TRIPOS>MOLECULE
PUKBED
    99    87     2
SMALL
NO_CHARGES
****
Generated from CSD

@<TRIPOS>ATOM
      1 O1         3.6243    7.3574    5.6385 O.2       1 RES1    0.0000
      2 O2         4.7838    6.0879    4.2053 O.3       1 RES1    0.0000
      3 O3         4.1507   10.8410    2.2133 O.2       1 RES1    0.0000
      4 O4         3.7937    8.8793    2.9388 O.2       1 RES1    0.0000
      5 O5         9.1611    8.8647   -0.5588 O.2       1 RES1    0.0000
      6 O6         8.4409    2.4735    1.3971 O.3       1 RES1    0.0000
      7 N1         6.7538    7.8679    3.9653 N.3       1 RES1    0.0000
      8 N2         4.4425    9.8896    2.8885 N.pl3     1 RES1    0.0000
      9 N3         7.7914    7.9646    1.1002 N.am      1 RES1    0.0000
     10 C1         8.0792    7.3149    4.2826 C.3       1 RES1    0.0000
     11 H1         8.6669    7.4437    3.5220 H         1 RES1    0.0000
     12 H2         7.9962    6.3612    4.4362 H         1 RES1    0.0000
     13 C2         8.6919    7.9527    5.4859 C.ar      1 RES1    0.0000
     14 C3         9.9687    8.4459    5.5386 C.ar      1 RES1    0.0000
     15 H3        10.5098    8.4223    4.7832 H         1 RES1    0.0000
     16 C4        10.4455    8.9758    6.7157 C.ar      1 RES1    0.0000
     17 H4        11.3125    9.3116    6.7557 H         1 RES1    0.0000
     18 C5         9.6513    9.0109    7.8261 C.ar      1 RES1    0.0000
     19 H5         9.9880    9.3572    8.6201 H         1 RES1    0.0000
     20 C6         8.3695    8.5428    7.7840 C.ar      1 RES1    0.0000
     21 H6         7.8334    8.5768    8.5441 H         1 RES1    0.0000
     22 C7         7.8727    8.0186    6.6069 C.ar      1 RES1    0.0000
     23 C8         6.4889    7.5212    6.4243 C.3       1 RES1    0.0000
     24 H7         5.9460    7.8097    7.1748 H         1 RES1    0.0000
     25 H8         6.4970    6.5510    6.4167 H         1 RES1    0.0000
     26 C9         5.8546    8.0343    5.1096 C.3       1 RES1    0.0000
     27 C10        5.4508    9.5443    5.1270 C.3       1 RES1    0.0000
     28 H9         4.4854    9.5925    5.2890 H         1 RES1    0.0000
     29 C11        5.7038    9.9979    3.6939 C.3       1 RES1    0.0000
     30 H10        6.0149   10.9275    3.6942 H         1 RES1    0.0000
     31 C12        6.8165    9.0841    3.1689 C.3       1 RES1    0.0000
     32 H11        7.6731    9.5199    3.3592 H         1 RES1    0.0000
     33 C13        4.5964    7.1712    4.9716 C.2       1 RES1    0.0000
     34 C14        3.7141    5.1239    4.1906 C.3       1 RES1    0.0000
     35 H12        3.3827    5.0074    5.0955 H         1 RES1    0.0000
     36 H13        4.0636    4.2694    3.8917 H         1 RES1    0.0000
     37 C15        2.6019    5.5133    3.3218 C.3       1 RES1    0.0000
     38 H14        1.9171    4.8420    3.3578 H         1 RES1    0.0000
     39 H15        2.9173    5.6020    2.4196 H         1 RES1    0.0000
     40 H16        2.2433    6.3527    3.6194 H         1 RES1    0.0000
     41 C16        6.1323   10.4362    6.1377 C.ar      1 RES1    0.0000
     42 C17        5.5463   10.5835    7.3827 C.ar      1 RES1    0.0000
     43 H17        4.7576   10.1305    7.5752 H         1 RES1    0.0000
     44 C18        6.1155   11.3915    8.3397 C.ar      1 RES1    0.0000
     45 H18        5.7125   11.4727    9.1740 H         1 RES1    0.0000
     46 C19        7.2567   12.0708    8.0756 C.ar      1 RES1    0.0000
     47 H19        7.6405   12.6106    8.7282 H         1 RES1    0.0000
     48 C20        7.8466   11.9624    6.8398 C.ar      1 RES1    0.0000
     49 H20        8.6210   12.4402    6.6490 H         1 RES1    0.0000
     50 C21        7.2869   11.1421    5.8790 C.ar      1 RES1    0.0000
     51 H21        7.6956   11.0652    5.0474 H         1 RES1    0.0000
     52 C22        6.7467    8.8368    1.6680 C.3       1 RES1    0.0000
     53 H22        5.8496    8.5624    1.3853 H         1 RES1    0.0000
     54 C23        7.3223    9.9779    0.7591 C.3       1 RES1    0.0000
     55 H23        6.6826   10.2276    0.0601 H         1 RES1    0.0000
     56 C24        8.2839    8.9117    0.2634 C.2       1 RES1    0.0000
     57 C25        7.9207   11.1841    1.3918 C.ar      1 RES1    0.0000
     58 C26        9.1402   11.2569    1.9952 C.ar      1 RES1    0.0000
     59 H24        9.7168   10.5278    2.0232 H         1 RES1    0.0000
     60 C27        9.4769   12.4682    2.5651 C.ar      1 RES1    0.0000
     61 H25       10.3206   12.5542    2.9401 H         1 RES1    0.0000
     62 C28        8.6517   13.5334    2.6118 C.ar      1 RES1    0.0000
     63 H26        8.9413   14.3177    3.0229 H         1 RES1    0.0000
     64 C29        7.4008   13.4729    2.0553 C.ar      1 RES1    0.0000
     65 H27        6.8176   14.1964    2.0926 H         1 RES1    0.0000
     66 C30        7.0375   12.2759    1.4320 C.ar      1 RES1    0.0000
     67 H28        6.1982   12.2006    1.0370 H         1 RES1    0.0000
     68 C31        7.9561    6.5633    1.1239 C.ar      1 RES1    0.0000
     69 C32        9.1155    5.9991    0.6513 C.ar      1 RES1    0.0000
     70 H29        9.7760    6.5414    0.2856 H         1 RES1    0.0000
     71 C33        9.3082    4.6337    0.7131 C.ar      1 RES1    0.0000
     72 H30       10.0935    4.2601    0.3830 H         1 RES1    0.0000
     73 C34        8.3474    3.8322    1.2580 C.ar      1 RES1    0.0000
     74 C35        7.1784    4.3979    1.7184 C.ar      1 RES1    0.0000
     75 H31        6.5185    3.8537    2.0820 H         1 RES1    0.0000
     76 C36        6.9746    5.7523    1.6481 C.ar      1 RES1    0.0000
     77 H32        6.1780    6.1207    1.9538 H         1 RES1    0.0000
     78 C37        9.6622    1.8583    1.0530 C.3       1 RES1    0.0000
     79 H33        9.6100    0.9175    1.2385 H         1 RES1    0.0000
     80 H34       10.3725    2.2469    1.5681 H         1 RES1    0.0000
     81 H35        9.8345    1.9909    0.1174 H         1 RES1    0.0000
     82 C38        3.2611    5.7877    3.5607 Du        2 SUP2    0.0000
     83 C39        3.4447    4.3743    3.7596 Du        2 SUP2    0.0000
     84 C40        9.2686   11.0929    1.7390 Du        2 SUP2    0.0000
     85 C41       10.0206   12.0821    2.3876 Du        2 SUP2    0.0000
     86 C42        9.3655   13.2533    2.6065 Du        2 SUP2    0.0000
     87 C43        8.0814   13.4218    2.2061 Du        2 SUP2    0.0000
     88 C44        7.3770   12.4068    1.6135 Du        2 SUP2    0.0000
     89 H36        2.5689    6.1198    4.1519 Du        2 SUP2    0.0000
     90 H37        2.9942    5.9638    2.6452 Du        2 SUP2    0.0000
     91 H38        2.6293    3.9136    3.5460 Du        2 SUP2    0.0000
     92 H39        3.6765    4.2057    4.6751 Du        2 SUP2    0.0000
     93 H40        4.1485    4.0581    3.1870 Du        2 SUP2    0.0000
     94 H41        9.7091   10.3029    1.5201 Du        2 SUP2    0.0000
     95 H42       10.9037   11.9469    2.6492 Du        2 SUP2    0.0000
     96 H43        9.8052   13.9499    3.0389 Du        2 SUP2    0.0000
     97 H44        7.6696   14.2460    2.3355 Du        2 SUP2    0.0000
     98 H45        6.4956   12.5609    1.3559 Du        2 SUP2    0.0000
     99 O7         4.5457    6.4745    3.8530 Du        2 SUP2    0.0000
@<TRIPOS>BOND
     1    1   33 2
     2    2   33 1
     3    3    8 2
     4    4    8 2
     5    5   56 2
     6    6   73 1
     7    7   10 1
     8    8   29 1
     9    9   52 1
    10   10   11 1
    11   12   10 1
    12   13   10 1
    13   14   13 ar
    14   15   14 1
    15   16   14 ar
    16   17   16 1
    17   18   16 ar
    18   19   18 1
    19   20   18 ar
    20   21   20 1
    21   22   13 ar
    22   23   22 1
    23   24   23 1
    24   25   23 1
    25   26    7 1
    26   27   26 1
    27   28   27 1
    28   29   27 1
    29   30   29 1
    30   31    7 1
    31   32   31 1
    32   33   26 1
    33   34    2 1
    34   35   34 1
    35   36   34 1
    36   37   34 1
    37   38   37 1
    38   39   37 1
    39   40   37 1
    40   41   27 1
    41   42   41 ar
    42   43   42 1
    43   44   42 ar
    44   45   44 1
    45   46   44 ar
    46   47   46 1
    47   48   46 ar
    48   49   48 1
    49   50   41 ar
    50   51   50 1
    51   52   31 1
    52   53   52 1
    53   54   52 1
    54   55   54 1
    55   56    9 1
    56   57   54 1
    57   58   57 ar
    58   59   58 1
    59   60   58 ar
    60   61   60 1
    61   62   60 ar
    62   63   62 1
    63   64   62 ar
    64   65   64 1
    65   66   57 ar
    66   67   66 1
    67   68    9 1
    68   69   68 ar
    69   70   69 1
    70   71   69 ar
    71   72   71 1
    72   73   71 ar
    73   74   73 ar
    74   75   74 1
    75   76   68 ar
    76   77   76 1
    77   78    6 1
    78   79   78 1
    79   80   78 1
    80   81   78 1
    81   20   22 ar
    82   23   26 1
    83   29   31 1
    84   48   50 ar
    85   54   56 1
    86   64   66 ar
    87   74   76 ar
@<TRIPOS>SUBSTRUCTURE
     1 RES1 1
     2 SUP2 82

@<TRIPOS>CRYSIN
   9.3039   13.0725   13.8814  87.5040  74.1230  74.9260   2 1

