# MOL2 file generated by ConQuest
# Please check atom types

@<TRIPOS>MOLECULE
PUKGIN
    20    20     1
SMALL
NO_CHARGES
****
Generated from CSD

@<TRIPOS>ATOM
      1 O1         0.9248    5.9544    7.3590 O.3       1 RES1    0.0000
      2 O2        -0.0441    0.0594    5.4972 O.2       1 RES1    0.0000
      3 O3        -0.9338    0.0210    7.4692 O.2       1 RES1    0.0000
      4 N1        -0.3430    0.5996    6.5631 N.pl3     1 RES1    0.0000
      5 C1         1.2800    9.3240    6.4295 C.2       1 RES1    0.0000
      6 H1         0.6665    9.7674    5.8904 H         1 RES1    0.0000
      7 H2         1.8570    9.8392    6.9445 H         1 RES1    0.0000
      8 C2         1.3852    8.0323    6.4156 C.2       1 RES1    0.0000
      9 C3         1.5564    6.7418    6.4023 C.2       1 RES1    0.0000
     10 H3         2.0981    6.3490    5.7568 H         1 RES1    0.0000
     11 C4         0.6495    4.6447    7.0780 C.ar      1 RES1    0.0000
     12 C5         0.8058    4.0567    5.8264 C.ar      1 RES1    0.0000
     13 H4         1.1158    4.5559    5.1051 H         1 RES1    0.0000
     14 C6         0.4942    2.7194    5.6703 C.ar      1 RES1    0.0000
     15 H5         0.6066    2.3053    4.8451 H         1 RES1    0.0000
     16 C7         0.0124    2.0019    6.7520 C.ar      1 RES1    0.0000
     17 C8        -0.1672    2.5816    7.9997 C.ar      1 RES1    0.0000
     18 H6        -0.5001    2.0839    8.7109 H         1 RES1    0.0000
     19 C9         0.1588    3.9111    8.1596 C.ar      1 RES1    0.0000
     20 H7         0.0518    4.3199    8.9887 H         1 RES1    0.0000
@<TRIPOS>BOND
     1    1    9 1
     2    2    4 2
     3    3    4 2
     4    4   16 1
     5    5    6 1
     6    7    5 1
     7    8    5 2
     8    9    8 2
     9   10    9 1
    10   11    1 1
    11   12   11 ar
    12   13   12 1
    13   14   12 ar
    14   15   14 1
    15   16   14 ar
    16   17   16 ar
    17   18   17 1
    18   19   11 ar
    19   20   19 1
    20   17   19 ar
@<TRIPOS>SUBSTRUCTURE
     1 RES1 1

@<TRIPOS>CRYSIN
   3.7165   12.1652   17.8110  90.0000  91.3040  90.0000  14 1

