# MOL2 file generated by ConQuest
# Please check atom types

@<TRIPOS>MOLECULE
PUKPIV
    55    56     1
SMALL
NO_CHARGES
****
Generated from CSD

@<TRIPOS>ATOM
      1 N1         5.8571    5.8824    2.8839 N.2       1 RES1    0.0000
      2 O1         5.5362    6.9440    2.0239 O.3       1 RES1    0.0000
      3 O2         7.2902    3.9863    4.0255 O.3       1 RES1    0.0000
      4 H1         7.1475    4.5906    3.4906 H         1 RES1    0.0000
      5 O3         7.4257    2.0348    5.7309 O.3       1 RES1    0.0000
      6 C1         6.7191    7.4000    1.3591 C.3       1 RES1    0.0000
      7 H2         7.0716    6.7035    0.7831 H         1 RES1    0.0000
      8 H3         7.4004    7.6395    2.0073 H         1 RES1    0.0000
      9 C2         6.3230    8.6030    0.5449 C.3       1 RES1    0.0000
     10 H4         7.0666    8.8473   -0.0278 H         1 RES1    0.0000
     11 C3         4.8267    5.4405    3.4967 C.2       1 RES1    0.0000
     12 H5         3.9961    5.8225    3.3259 H         1 RES1    0.0000
     13 C4         4.9292    4.3490    4.4586 C.ar      1 RES1    0.0000
     14 C5         6.1386    3.6831    4.6836 C.ar      1 RES1    0.0000
     15 C6         6.1965    2.6360    5.6182 C.ar      1 RES1    0.0000
     16 C7         5.0670    2.3039    6.3320 C.ar      1 RES1    0.0000
     17 H6         5.1115    1.6311    6.9736 H         1 RES1    0.0000
     18 C8         3.8649    2.9577    6.1079 C.ar      1 RES1    0.0000
     19 H7         3.1059    2.7117    6.5858 H         1 RES1    0.0000
     20 C9         3.7953    3.9650    5.1837 C.ar      1 RES1    0.0000
     21 H8         2.9870    4.3979    5.0356 H         1 RES1    0.0000
     22 C10        7.5717    0.9979    6.7009 C.3       1 RES1    0.0000
     23 H9         6.9275    0.2925    6.5419 H         1 RES1    0.0000
     24 H10        7.4333    1.3490    7.5953 H         1 RES1    0.0000
     25 C11        8.9693    0.4759    6.5509 C.3       1 RES1    0.0000
     26 H11        9.1279    0.2478    5.6319 H         1 RES1    0.0000
     27 H12        9.0798   -0.3028    7.0990 H         1 RES1    0.0000
     28 H13        9.5933    1.1528    6.8250 H         1 RES1    0.0000
     29 N1M        6.7889   11.3236    2.8839 N.2       1 RES1    0.0000
     30 O1M        7.1098   10.2620    2.0239 O.3       1 RES1    0.0000
     31 O2M        5.3558   13.2197    4.0255 O.3       1 RES1    0.0000
     32 H1M        5.4985   12.6154    3.4906 H         1 RES1    0.0000
     33 O3M        5.2203   15.1712    5.7309 O.3       1 RES1    0.0000
     34 C1M        5.9269    9.8060    1.3591 C.3       1 RES1    0.0000
     35 H2M        5.5744   10.5025    0.7831 H         1 RES1    0.0000
     36 H3M        5.2456    9.5665    2.0073 H         1 RES1    0.0000
     37 H4M        5.5794    8.3587   -0.0278 H         1 RES1    0.0000
     38 C3M        7.8193   11.7655    3.4967 C.2       1 RES1    0.0000
     39 H5M        8.6499   11.3835    3.3259 H         1 RES1    0.0000
     40 C4M        7.7168   12.8570    4.4586 C.ar      1 RES1    0.0000
     41 C5M        6.5074   13.5229    4.6836 C.ar      1 RES1    0.0000
     42 C6M        6.4495   14.5700    5.6182 C.ar      1 RES1    0.0000
     43 C7M        7.5790   14.9021    6.3320 C.ar      1 RES1    0.0000
     44 H6M        7.5345   15.5749    6.9736 H         1 RES1    0.0000
     45 C8M        8.7811   14.2483    6.1079 C.ar      1 RES1    0.0000
     46 H7M        9.5401   14.4943    6.5858 H         1 RES1    0.0000
     47 C9M        8.8507   13.2410    5.1837 C.ar      1 RES1    0.0000
     48 H8M        9.6590   12.8081    5.0356 H         1 RES1    0.0000
     49 C10M       5.0743   16.2081    6.7009 C.3       1 RES1    0.0000
     50 H9M        5.7185   16.9135    6.5419 H         1 RES1    0.0000
     51 H10M       5.2127   15.8570    7.5953 H         1 RES1    0.0000
     52 C11M       3.6767   16.7301    6.5509 C.3       1 RES1    0.0000
     53 H11M       3.5181   16.9582    5.6319 H         1 RES1    0.0000
     54 H12M       3.5662   17.5088    7.0990 H         1 RES1    0.0000
     55 H13M       3.0527   16.0532    6.8250 H         1 RES1    0.0000
@<TRIPOS>BOND
     1    1    2 1
     2    2    6 1
     3    3    4 1
     4    5   15 1
     5    6    7 1
     6    8    6 1
     7    9    6 1
     8   10    9 1
     9   11    1 2
    10   12   11 1
    11   13   11 1
    12   14    3 1
    13   15   14 ar
    14   16   15 ar
    15   17   16 1
    16   18   16 ar
    17   19   18 1
    18   20   13 ar
    19   21   20 1
    20   22    5 1
    21   23   22 1
    22   24   22 1
    23   25   22 1
    24   26   25 1
    25   27   25 1
    26   28   25 1
    27   29   30 1
    28   30   34 1
    29   31   32 1
    30   33   42 1
    31   34    9 1
    32   35   34 1
    33   36   34 1
    34   37    9 1
    35   38   29 2
    36   39   38 1
    37   40   38 1
    38   41   31 1
    39   42   41 ar
    40   43   42 ar
    41   44   43 1
    42   45   43 ar
    43   46   45 1
    44   47   40 ar
    45   48   47 1
    46   49   33 1
    47   50   49 1
    48   51   49 1
    49   52   49 1
    50   53   52 1
    51   54   52 1
    52   55   52 1
    53   13   14 ar
    54   18   20 ar
    55   40   41 ar
    56   45   47 ar
@<TRIPOS>SUBSTRUCTURE
     1 RES1 1

@<TRIPOS>CRYSIN
  25.2920   34.4120    4.7176  90.0000  90.0000  90.0000  43 1

