# MOL2 file generated by ConQuest
# Please check atom types

@<TRIPOS>MOLECULE
PUKZIF
    33    34     1
SMALL
NO_CHARGES
****
Generated from CSD

@<TRIPOS>ATOM
      1 C1         7.3786   -1.1179    1.5665 C.ar      1 RES1    0.0000
      2 C2         7.9132   -0.7046    2.7657 C.ar      1 RES1    0.0000
      3 C3         7.0770   -0.0683    3.6686 C.ar      1 RES1    0.0000
      4 C4         5.7414    0.1764    3.3499 C.ar      1 RES1    0.0000
      5 C5         5.2289   -0.2785    2.1407 C.ar      1 RES1    0.0000
      6 C6         6.0386   -0.9449    1.2415 C.ar      1 RES1    0.0000
      7 C7         4.8668    0.9819    4.2935 C.3       1 RES1    0.0000
      8 C8         4.5082    2.3191    3.6687 C.2       1 RES1    0.0000
      9 C9         5.6129    3.2592    3.4038 C.2       1 RES1    0.0000
     10 C10        5.2884    4.5529    2.7988 C.2       1 RES1    0.0000
     11 C11        4.0353    4.8840    2.5031 C.2       1 RES1    0.0000
     12 C12        2.8801    3.9515    2.6761 C.3       1 RES1    0.0000
     13 C13        3.2560    2.6804    3.3805 C.2       1 RES1    0.0000
     14 C14        2.3147    3.5726    1.3046 C.3       1 RES1    0.0000
     15 N1         8.2633   -1.7505    0.5828 N.pl3     1 RES1    0.0000
     16 O1         9.4753   -1.5928    0.7119 O.2       1 RES1    0.0000
     17 O2         7.7620   -2.3929   -0.3281 O.2       1 RES1    0.0000
     18 O3         3.7082    0.2129    4.5904 O.3       1 RES1    0.0000
     19 O4         1.8920    4.6826    3.4188 O.3       1 RES1    0.0000
     20 O5         6.7693    2.9770    3.7309 O.2       1 RES1    0.0000
     21 H1         8.8103   -0.8561    2.9960 H         1 RES1    0.0000
     22 H2         7.4219    0.2198    4.5310 H         1 RES1    0.0000
     23 H3         3.3356    0.6410    5.2707 H         1 RES1    0.0000
     24 H4         1.2103    4.1498    3.4830 H         1 RES1    0.0000
     25 H5         4.3226   -0.1068    1.9038 H         1 RES1    0.0000
     26 H6         5.7251   -1.2464    0.4212 H         1 RES1    0.0000
     27 H7         5.3694    1.1192    5.1238 H         1 RES1    0.0000
     28 H8         6.0195    5.1678    2.6518 H         1 RES1    0.0000
     29 H9         3.8164    5.7074    2.1340 H         1 RES1    0.0000
     30 H10        2.5338    2.1017    3.5940 H         1 RES1    0.0000
     31 H11        2.9866    3.0486    0.7891 H         1 RES1    0.0000
     32 H12        1.5085    3.0100    1.4240 H         1 RES1    0.0000
     33 H13        2.0395    4.3895    0.7891 H         1 RES1    0.0000
@<TRIPOS>BOND
     1    1    2 ar
     2    2    3 ar
     3    3    4 ar
     4    4    5 ar
     5    5    6 ar
     6    6    1 ar
     7    7    4 1
     8    8    7 1
     9    9    8 1
    10   10    9 1
    11   11   10 2
    12   12   11 1
    13   13    8 2
    14   14   12 1
    15   15    1 1
    16   16   15 2
    17   17   15 2
    18   18    7 1
    19   19   12 1
    20   20    9 2
    21   21    2 1
    22   22    3 1
    23   23   18 1
    24   24   19 1
    25   25    5 1
    26   26    6 1
    27   27    7 1
    28   28   10 1
    29   29   11 1
    30   30   13 1
    31   31   14 1
    32   32   14 1
    33   33   14 1
    34   12   13 1
@<TRIPOS>SUBSTRUCTURE
     1 RES1 1

@<TRIPOS>CRYSIN
   6.9945    8.7663   10.6230 101.6620  98.5860  91.3190   2 1

