# MOL2 file generated by ConQuest
# Please check atom types

@<TRIPOS>MOLECULE
PUKZEB
    33    35     1
SMALL
NO_CHARGES
****
Generated from CSD

@<TRIPOS>ATOM
      1 C1         3.7856    4.8442    7.2754 C.2       1 RES1    0.0000
      2 C2         2.4851    4.1428    7.5672 C.3       1 RES1    0.0000
      3 C3         1.3398    5.0979    7.8136 C.3       1 RES1    0.0000
      4 C4         1.2007    6.2159    6.7889 C.3       1 RES1    0.0000
      5 C5         2.5387    6.7382    6.3264 C.2       1 RES1    0.0000
      6 C6         3.6987    6.1313    6.5509 C.2       1 RES1    0.0000
      7 C7         0.2941    5.8714    5.6286 C.3       1 RES1    0.0000
      8 C8         0.9754    7.1036    8.9242 C.3       1 RES1    0.0000
      9 C9        -0.2126    7.2574    9.8504 C.ar      1 RES1    0.0000
     10 C10       -0.0872    7.9624   11.0386 C.ar      1 RES1    0.0000
     11 C11       -1.1656    8.0818   11.9053 C.ar      1 RES1    0.0000
     12 C12       -2.3639    7.5051   11.5330 C.ar      1 RES1    0.0000
     13 C13       -2.5262    6.8014   10.3486 C.ar      1 RES1    0.0000
     14 C14       -1.4332    6.6718    9.5122 C.ar      1 RES1    0.0000
     15 N1        -3.5294    7.6836   12.4069 N.pl3     1 RES1    0.0000
     16 O1         4.8622    4.3550    7.5789 O.2       1 RES1    0.0000
     17 O2         1.5755    5.8063    9.0448 O.3       1 RES1    0.0000
     18 O3         0.5483    7.2392    7.5799 O.3       1 RES1    0.0000
     19 O4        -3.3403    7.9905   13.5818 O.2       1 RES1    0.0000
     20 O5        -4.6445    7.5350   11.9168 O.2       1 RES1    0.0000
     21 H1         0.4667    4.6311    7.8573 H         1 RES1    0.0000
     22 H2         2.2699    3.5841    6.7870 H         1 RES1    0.0000
     23 H3         2.5958    3.5506    8.3343 H         1 RES1    0.0000
     24 H4         2.5023    7.5779    5.8263 H         1 RES1    0.0000
     25 H5         4.5401    6.4973    6.2538 H         1 RES1    0.0000
     26 H6        -0.5958    5.6092    5.9558 H         1 RES1    0.0000
     27 H7         0.2242    6.6562    5.0217 H         1 RES1    0.0000
     28 H8         0.6845    5.1061    5.1407 H         1 RES1    0.0000
     29 H9         1.6793    7.7686    9.1513 H         1 RES1    0.0000
     30 H10        0.7689    8.3706   11.2670 H         1 RES1    0.0000
     31 H11       -1.1024    8.5489   12.6971 H         1 RES1    0.0000
     32 H12       -3.3693    6.4214   10.1158 H         1 RES1    0.0000
     33 H13       -1.5049    6.1689    8.6809 H         1 RES1    0.0000
@<TRIPOS>BOND
     1    1    2 1
     2    2    3 1
     3    3    4 1
     4    4    5 1
     5    5    6 2
     6    6    1 1
     7    7    4 1
     8    8    9 1
     9    9   10 ar
    10   10   11 ar
    11   11   12 ar
    12   12   13 ar
    13   13   14 ar
    14   14    9 ar
    15   15   12 1
    16   16    1 2
    17   17    3 1
    18   18    4 1
    19   19   15 2
    20   20   15 2
    21   21    3 1
    22   22    2 1
    23   23    2 1
    24   24    5 1
    25   25    6 1
    26   26    7 1
    27   27    7 1
    28   28    7 1
    29   29    8 1
    30   30   10 1
    31   31   11 1
    32   32   13 1
    33   33   14 1
    34    8   17 1
    35    8   18 1
@<TRIPOS>SUBSTRUCTURE
     1 RES1 1

@<TRIPOS>CRYSIN
   7.5838   17.6558    9.6242  90.0000  98.3710  90.0000  14 1

