# MOL2 file generated by ConQuest
# Please check atom types

@<TRIPOS>MOLECULE
PUMSUM
    40    42     1
SMALL
NO_CHARGES
****
Generated from CSD

@<TRIPOS>ATOM
      1 O1         2.2843    1.4416    8.2811 O.2       1 RES1    0.0000
      2 O2        -0.4136    4.9617    7.0542 O.2       1 RES1    0.0000
      3 N1         1.4591    2.2706    5.0990 N.2       1 RES1    0.0000
      4 N2        -0.6869    2.0104    5.7446 N.pl3     1 RES1    0.0000
      5 N3         1.7100    2.5740    8.2862 N.pl3     1 RES1    0.0000
      6 N4         0.4215    4.2568    7.7134 N.3       1 RES1    0.0000
      7 C1        -0.6136    1.5435    4.4492 C.ar      1 RES1    0.0000
      8 C2        -1.5793    1.0073    3.6017 C.ar      1 RES1    0.0000
      9 H1        -2.4582    0.8791    3.8774 H         1 RES1    0.0000
     10 C3        -1.1592    0.6789    2.3329 C.ar      1 RES1    0.0000
     11 H2        -1.7734    0.3228    1.7321 H         1 RES1    0.0000
     12 C4         0.1613    0.8649    1.9205 C.ar      1 RES1    0.0000
     13 H3         0.3996    0.6413    1.0497 H         1 RES1    0.0000
     14 C5         1.1187    1.3702    2.7659 C.ar      1 RES1    0.0000
     15 H4         1.9999    1.4779    2.4876 H         1 RES1    0.0000
     16 C6         0.7211    1.7166    4.0578 C.ar      1 RES1    0.0000
     17 C7        -1.8734    2.0147    6.5901 C.3       1 RES1    0.0000
     18 H5        -1.9294    1.1849    7.0682 H         1 RES1    0.0000
     19 H6        -2.6552    2.1234    6.0436 H         1 RES1    0.0000
     20 H7        -1.8178    2.7413    7.2158 H         1 RES1    0.0000
     21 C8         0.5704    2.4192    6.0603 C.2       1 RES1    0.0000
     22 C9         0.8824    3.0528    7.3491 C.2       1 RES1    0.0000
     23 C10        1.7533    3.4781    9.4911 C.3       1 RES1    0.0000
     24 C11        1.1626    4.7932    8.9113 C.3       1 RES1    0.0000
     25 C12        3.1857    3.5660    9.9899 C.3       1 RES1    0.0000
     26 H8         3.4770    2.6988   10.2808 H         1 RES1    0.0000
     27 H9         3.2317    4.1831   10.7247 H         1 RES1    0.0000
     28 H10        3.7541    3.8731    9.2792 H         1 RES1    0.0000
     29 C13        0.8704    2.8190   10.5385 C.3       1 RES1    0.0000
     30 H11       -0.0259    2.7456   10.2021 H         1 RES1    0.0000
     31 H12        0.8694    3.3507   11.3371 H         1 RES1    0.0000
     32 H13        1.2091    1.9429   10.7379 H         1 RES1    0.0000
     33 C14        2.2190    5.7396    8.3497 C.3       1 RES1    0.0000
     34 H14        2.8127    5.2512    7.7757 H         1 RES1    0.0000
     35 H15        2.7184    6.1260    9.0725 H         1 RES1    0.0000
     36 H16        1.7895    6.4360    7.8489 H         1 RES1    0.0000
     37 C15        0.1921    5.5431    9.8018 C.3       1 RES1    0.0000
     38 H17       -0.1701    6.2916    9.3218 H         1 RES1    0.0000
     39 H18        0.6523    5.8563   10.5837 H         1 RES1    0.0000
     40 H19       -0.5206    4.9560   10.0643 H         1 RES1    0.0000
@<TRIPOS>BOND
     1    1    5 1
     2    2    6 1
     3    3   16 1
     4    4    7 1
     5    5   22 2
     6    6   22 1
     7    7    8 ar
     8    8    9 1
     9   10    8 ar
    10   11   10 1
    11   12   10 ar
    12   13   12 1
    13   14   12 ar
    14   15   14 1
    15   16    7 ar
    16   17    4 1
    17   18   17 1
    18   19   17 1
    19   20   17 1
    20   21    3 2
    21   22   21 1
    22   23    5 1
    23   24    6 1
    24   25   23 1
    25   26   25 1
    26   27   25 1
    27   28   25 1
    28   29   23 1
    29   30   29 1
    30   31   29 1
    31   32   29 1
    32   33   24 1
    33   34   33 1
    34   35   33 1
    35   36   33 1
    36   37   24 1
    37   38   37 1
    38   39   37 1
    39   40   37 1
    40    4   21 1
    41   14   16 ar
    42   23   24 1
@<TRIPOS>SUBSTRUCTURE
     1 RES1 1

@<TRIPOS>CRYSIN
   6.5485   21.2340   11.0279  90.0000  97.4550  90.0000 231 1

