# MOL2 file generated by ConQuest
# Please check atom types

@<TRIPOS>MOLECULE
PUNDOT
    25    25     1
SMALL
NO_CHARGES
****
Generated from CSD

@<TRIPOS>ATOM
      1 O1         2.1073    1.9040    8.9319 O.2       1 RES1    0.0000
      2 O2         1.9770    2.0010    2.7701 O.2       1 RES1    0.0000
      3 O3         0.6572    0.3159    8.8518 O.2       1 RES1    0.0000
      4 O4         3.3427    3.1613    3.8981 O.2       1 RES1    0.0000
      5 N1         1.5655    0.9617    8.3755 N.pl3     1 RES1    0.0000
      6 N2         2.6363    2.1831    3.7500 N.pl3     1 RES1    0.0000
      7 C1         2.0519    0.5864    7.0320 C.ar      1 RES1    0.0000
      8 C2         2.4725   -0.7324    6.8319 C.ar      1 RES1    0.0000
      9 C3         2.9841   -1.0212    5.5858 C.ar      1 RES1    0.0000
     10 C4         3.0524   -0.1019    4.5526 C.ar      1 RES1    0.0000
     11 C5         2.5904    1.1875    4.8411 C.ar      1 RES1    0.0000
     12 C6         2.1027    1.5786    6.0693 C.ar      1 RES1    0.0000
     13 C7         1.5915    2.9847    6.3240 C.3       1 RES1    0.0000
     14 C8         3.6227   -0.4871    3.2148 C.3       1 RES1    0.0000
     15 C9         2.4129   -1.8021    7.8915 C.3       1 RES1    0.0000
     16 H1         3.3012   -1.8814    5.4299 H         1 RES1    0.0000
     17 H2         1.2420    3.3508    5.5083 H         1 RES1    0.0000
     18 H3         2.3121    3.5352    6.6388 H         1 RES1    0.0000
     19 H4         0.8968    2.9576    6.9861 H         1 RES1    0.0000
     20 H5         4.1573    0.2341    2.8750 H         1 RES1    0.0000
     21 H6         2.9063   -0.6705    2.6023 H         1 RES1    0.0000
     22 H7         4.1680   -1.2711    3.3131 H         1 RES1    0.0000
     23 H8         2.7680   -1.4587    8.7143 H         1 RES1    0.0000
     24 H9         2.9318   -2.5601    7.6109 H         1 RES1    0.0000
     25 H10        1.5008   -2.0713    8.0241 H         1 RES1    0.0000
@<TRIPOS>BOND
     1    1    5 2
     2    2    6 2
     3    3    5 2
     4    4    6 2
     5    5    7 1
     6    6   11 1
     7    7    8 ar
     8    8    9 ar
     9    9   10 ar
    10   10   11 ar
    11   11   12 ar
    12   12    7 ar
    13   13   12 1
    14   14   10 1
    15   15    8 1
    16   16    9 1
    17   17   13 1
    18   18   13 1
    19   19   13 1
    20   20   14 1
    21   21   14 1
    22   22   14 1
    23   23   15 1
    24   24   15 1
    25   25   15 1
@<TRIPOS>SUBSTRUCTURE
     1 RES1 1

@<TRIPOS>CRYSIN
   4.1360   13.9160   17.1940  90.0000  90.0000  90.0000  19 1

