# MOL2 file generated by ConQuest
# Please check atom types

@<TRIPOS>MOLECULE
PUNGEM
    43    44     1
SMALL
NO_CHARGES
****
Generated from CSD

@<TRIPOS>ATOM
      1 C1        -0.5345    0.9801   11.5798 C.ar      1 RES1    0.0000
      2 C2        -1.2932    1.7926   12.4022 C.ar      1 RES1    0.0000
      3 H1        -1.7701    2.5002   12.0320 H         1 RES1    0.0000
      4 C3        -1.3551    1.5662   13.7869 C.ar      1 RES1    0.0000
      5 C4        -0.6459    0.5127   14.3393 C.ar      1 RES1    0.0000
      6 H2        -0.6892    0.3557   15.2547 H         1 RES1    0.0000
      7 C5         0.1395   -0.3201   13.5232 C.ar      1 RES1    0.0000
      8 C6         0.1944   -0.0752   12.1267 C.ar      1 RES1    0.0000
      9 C7        -2.1990    2.4770   14.6467 C.3       1 RES1    0.0000
     10 H3        -1.8076    3.3536   14.6637 H         1 RES1    0.0000
     11 H4        -2.2385    2.1268   15.5397 H         1 RES1    0.0000
     12 H5        -3.0857    2.5289   14.2828 H         1 RES1    0.0000
     13 C8         0.9701   -1.4503   13.7657 C.2       1 RES1    0.0000
     14 H6         1.1323   -1.8499   14.5900 H         1 RES1    0.0000
     15 C9         1.4861   -1.8401   12.5546 C.2       1 RES1    0.0000
     16 C10        2.4414   -2.9521   12.3490 C.2       1 RES1    0.0000
     17 C11        2.9095   -2.9542    8.8487 C.2       1 RES1    0.0000
     18 C12        3.8353   -4.0870    8.5375 C.3       1 RES1    0.0000
     19 H7         4.2963   -3.9065    7.7158 H         1 RES1    0.0000
     20 H8         3.3296   -4.8985    8.4493 H         1 RES1    0.0000
     21 H9         4.4732   -4.1836    9.2479 H         1 RES1    0.0000
     22 C13        2.4664   -2.0854    7.7018 C.3       1 RES1    0.0000
     23 H10        3.2267   -1.5784    7.3767 H         1 RES1    0.0000
     24 H11        1.8015   -1.4547    8.0193 H         1 RES1    0.0000
     25 C14        1.8836   -2.8877    6.5631 C.2       1 RES1    0.0000
     26 C15        0.2292   -4.4347    5.9043 C.3       1 RES1    0.0000
     27 H12        0.8758   -5.0727    5.5645 H         1 RES1    0.0000
     28 H13       -0.0740   -3.8818    5.1676 H         1 RES1    0.0000
     29 C16       -0.9230   -5.1485    6.5228 C.3       1 RES1    0.0000
     30 H14       -1.3432   -5.7074    5.8642 H         1 RES1    0.0000
     31 H15       -1.5579   -4.5066    6.8496 H         1 RES1    0.0000
     32 H16       -0.6109   -5.6899    7.2501 H         1 RES1    0.0000
     33 N1        -0.5124    1.2219   10.1538 N.pl3     1 RES1    0.0000
     34 N2         1.0105   -1.0058   11.5667 N.pl3     1 RES1    0.0000
     35 H17        1.2002   -1.0647   10.7296 H         1 RES1    0.0000
     36 N3         2.8590   -3.3074   11.1103 N.am      1 RES1    0.0000
     37 H18        3.3810   -3.9840   11.0183 H         1 RES1    0.0000
     38 N4         2.4603   -2.6017    9.9935 N.2       1 RES1    0.0000
     39 O1        -1.2076    2.1191    9.6859 O.2       1 RES1    0.0000
     40 O2         0.2130    0.5041    9.4588 O.2       1 RES1    0.0000
     41 O3         2.8541   -3.5686   13.3331 O.2       1 RES1    0.0000
     42 O4         2.3134   -2.8817    5.4484 O.2       1 RES1    0.0000
     43 O5         0.8335   -3.6083    6.9360 O.3       1 RES1    0.0000
@<TRIPOS>BOND
     1    1    2 ar
     2    2    3 1
     3    4    2 ar
     4    5    4 ar
     5    6    5 1
     6    7    5 ar
     7    8    1 ar
     8    9    4 1
     9   10    9 1
    10   11    9 1
    11   12    9 1
    12   13    7 1
    13   14   13 1
    14   15   13 2
    15   16   15 1
    16   17   18 1
    17   18   19 1
    18   20   18 1
    19   21   18 1
    20   22   17 1
    21   23   22 1
    22   24   22 1
    23   25   22 1
    24   26   27 1
    25   28   26 1
    26   29   26 1
    27   30   29 1
    28   31   29 1
    29   32   29 1
    30   33    1 1
    31   34    8 1
    32   35   34 1
    33   36   16 1
    34   37   36 1
    35   38   17 2
    36   39   33 2
    37   40   33 2
    38   41   16 2
    39   42   25 2
    40   43   25 1
    41    7    8 ar
    42   15   34 1
    43   26   43 1
    44   36   38 1
@<TRIPOS>SUBSTRUCTURE
     1 RES1 1

@<TRIPOS>CRYSIN
   8.4716    8.4722   13.0971 108.6950  91.8650 106.8860   2 1

