# MOL2 file generated by ConQuest
# Please check atom types

@<TRIPOS>MOLECULE
PUPBAD01
    14    14     1
SMALL
NO_CHARGES
****
Generated from CSD

@<TRIPOS>ATOM
      1 N1        -1.0482    1.2038   -0.9247 N.ar      1 RES1    0.0000
      2 C1        -1.7182    0.1155   -1.3900 C.ar      1 RES1    0.0000
      3 N2        -1.2325   -1.0624   -1.0238 N.3       1 RES1    0.0000
      4 H1        -0.4984   -1.1025   -0.5146 H         1 RES1    0.0000
      5 H2        -1.6196   -1.8398   -1.1304 H         1 RES1    0.0000
      6 N3        -2.8152    0.1242   -2.1842 N.ar      1 RES1    0.0000
      7 C2        -3.2576    1.3247   -2.5550 C.ar      1 RES1    0.0000
      8 H3        -4.2032    1.3037   -3.1155 H         1 RES1    0.0000
      9 C3        -2.6235    2.4710   -2.1336 C.ar      1 RES1    0.0000
     10 N4        -3.1085    3.7765   -2.5343 N.pl3     1 RES1    0.0000
     11 O1        -4.1063    3.8167   -3.2353 O.2       1 RES1    0.0000
     12 O2        -2.4799    4.7635   -2.1655 O.2       1 RES1    0.0000
     13 C4        -1.5159    2.3853   -1.3148 C.ar      1 RES1    0.0000
     14 H4        -1.0067    3.3355   -1.0265 H         1 RES1    0.0000
@<TRIPOS>BOND
     1    1    2 ar
     2    2    3 1
     3    3    4 1
     4    5    3 1
     5    6    2 ar
     6    7    6 ar
     7    8    7 1
     8    9    7 ar
     9   10    9 1
    10   11   10 2
    11   12   10 2
    12   13    1 ar
    13   14   13 1
    14    9   13 ar
@<TRIPOS>SUBSTRUCTURE
     1 RES1 1

@<TRIPOS>CRYSIN
   5.1280   17.5000    6.8720  90.0000 104.3700  90.0000  14 1

