# MOL2 file generated by ConQuest
# Please check atom types

@<TRIPOS>MOLECULE
PUPBAD02
    14    14     1
SMALL
NO_CHARGES
****
Generated from CSD

@<TRIPOS>ATOM
      1 N1        -0.3875    7.1058    1.3473 N.ar      1 RES1    0.0000
      2 C1        -0.9608    8.1711    1.9645 C.ar      1 RES1    0.0000
      3 N2        -0.9466    9.3118    1.3114 N.3       1 RES1    0.0000
      4 H1        -0.5530    9.3527    0.3701 H         1 RES1    0.0000
      5 H2        -1.3930   10.0088    1.6910 H         1 RES1    0.0000
      6 N3        -1.5434    8.1538    3.1859 N.ar      1 RES1    0.0000
      7 C2        -1.4721    7.0242    3.8464 C.ar      1 RES1    0.0000
      8 H3        -1.8825    6.9764    4.6784 H         1 RES1    0.0000
      9 C3        -0.8662    5.9063    3.3080 C.ar      1 RES1    0.0000
     10 N4        -0.7469    4.7049    4.0673 N.pl3     1 RES1    0.0000
     11 O1        -0.1740    3.7465    3.5556 O.2       1 RES1    0.0000
     12 O2        -1.2004    4.6910    5.2050 O.2       1 RES1    0.0000
     13 C4        -0.3535    5.9809    2.0253 C.ar      1 RES1    0.0000
     14 H4         0.0177    5.2100    1.5014 H         1 RES1    0.0000
@<TRIPOS>BOND
     1    1    2 ar
     2    2    3 1
     3    3    4 1
     4    5    3 1
     5    6    2 ar
     6    7    6 ar
     7    8    7 1
     8    9    7 ar
     9   10    9 1
    10   11   10 2
    11   12   10 2
    12   13    1 ar
    13   14   13 1
    14    9   13 ar
@<TRIPOS>SUBSTRUCTURE
     1 RES1 1

@<TRIPOS>CRYSIN
   3.5540   16.5240    9.4650  90.0000  99.0000  90.0000 231 1

