# MOL2 file generated by ConQuest
# Please check atom types

@<TRIPOS>MOLECULE
PUPBAD
    14    14     1
SMALL
NO_CHARGES
****
Generated from CSD

@<TRIPOS>ATOM
      1 N1         1.0413    1.6635   -0.2823 N.3       1 RES1    0.0000
      2 H1         0.5948    2.2910   -0.6237 H         1 RES1    0.0000
      3 C1         1.0413    1.6635    1.0391 C.ar      1 RES1    0.0000
      4 N2         0.3857    2.6842    1.6692 N.ar      1 RES1    0.0000
      5 C2         0.3894    2.6596    2.9951 C.ar      1 RES1    0.0000
      6 H2        -0.0995    3.3396    3.4071 H         1 RES1    0.0000
      7 C3         1.0413    1.6635    3.6975 C.ar      1 RES1    0.0000
      8 N3         1.0413    1.6635    5.1433 N.pl3     1 RES1    0.0000
      9 O1         0.2216    2.3708    5.7289 O.2       1 RES1    0.0000
     10 H1A        1.4877    1.0360   -0.6237 H         1 RES1    0.0000
     11 C2A        1.6931    0.6674    2.9951 C.ar      1 RES1    0.0000
     12 N2A        1.6968    0.6428    1.6692 N.ar      1 RES1    0.0000
     13 H2A        2.1820   -0.0126    3.4071 H         1 RES1    0.0000
     14 O1A        1.8609    0.9562    5.7289 O.2       1 RES1    0.0000
@<TRIPOS>BOND
     1    1    2 1
     2    3    1 1
     3    4    3 ar
     4    5    4 ar
     5    6    5 1
     6    7    5 ar
     7    8    7 1
     8    9    8 2
     9   10    1 1
    10   11    7 ar
    11   12    3 ar
    12   13   11 1
    13   14    8 2
    14   11   12 ar
@<TRIPOS>SUBSTRUCTURE
     1 RES1 1

@<TRIPOS>CRYSIN
   4.1650    6.6540   21.2930  90.0000  90.0000  90.0000  56 1

