# MOL2 file generated by ConQuest
# Please check atom types

@<TRIPOS>MOLECULE
PUPJEP
    34    35     1
SMALL
NO_CHARGES
****
Generated from CSD

@<TRIPOS>ATOM
      1 C1         1.4763   -0.0755    9.3627 C.ar      1 RES1    0.0000
      2 C2         2.3220   -0.9881    9.9697 C.ar      1 RES1    0.0000
      3 H1         2.9861   -1.3854    9.5536 H         1 RES1    0.0000
      4 C3         2.1463   -1.2715   11.3152 C.ar      1 RES1    0.0000
      5 C4         1.1604   -0.7098   12.0995 C.ar      1 RES1    0.0000
      6 H2         0.9869   -0.9256   13.0620 H         1 RES1    0.0000
      7 C5         0.3006    0.1843   11.4764 C.ar      1 RES1    0.0000
      8 H3        -0.4696    0.5298   11.9851 H         1 RES1    0.0000
      9 C6         0.4457    0.5122   10.1412 C.ar      1 RES1    0.0000
     10 C7        -0.3172    1.8183    8.2366 C.2       1 RES1    0.0000
     11 C8         0.6902    1.1502    7.3404 C.3       1 RES1    0.0000
     12 H4         1.1315    1.8551    6.9071 H         1 RES1    0.0000
     13 C9        -0.0726    0.3365    6.2829 C.3       1 RES1    0.0000
     14 H5         0.8077   -0.0821    5.7125 H         1 RES1    0.0000
     15 C10       -0.8987    1.2082    5.3501 C.2       1 RES1    0.0000
     16 C11       -0.7451    3.0146    3.8137 C.3       1 RES1    0.0000
     17 H6        -1.0028    2.6229    3.1140 H         1 RES1    0.0000
     18 H7        -1.4465    3.4752    4.2538 H         1 RES1    0.0000
     19 C12        0.3463    3.9213    3.3472 C.3       1 RES1    0.0000
     20 H8        -0.0205    4.5775    2.7185 H         1 RES1    0.0000
     21 H9         1.0404    3.3933    2.9003 H         1 RES1    0.0000
     22 H10        0.7351    4.3873    4.1166 H         1 RES1    0.0000
     23 N1        -0.3872    1.4499    9.5444 N.am      1 RES1    0.0000
     24 H11       -1.1104    1.8700   10.0817 H         1 RES1    0.0000
     25 N2         1.6091    0.2905    8.0560 N.3       1 RES1    0.0000
     26 H12        2.2171    0.0327    7.6822 H         1 RES1    0.0000
     27 N3         3.0856   -2.2175   11.9234 N.pl3     1 RES1    0.0000
     28 O1        -1.0999    2.6611    7.7942 O.2       1 RES1    0.0000
     29 O2        -0.9213   -0.5952    6.8888 O.3       1 RES1    0.0000
     30 H13       -1.5889   -0.1985    7.2089 H         1 RES1    0.0000
     31 O3        -2.0724    1.1039    5.1843 O.2       1 RES1    0.0000
     32 O4        -0.1003    2.0800    4.7396 O.3       1 RES1    0.0000
     33 O5         3.0616   -2.3199   13.1580 O.2       1 RES1    0.0000
     34 O6         3.8239   -2.8725   11.2261 O.2       1 RES1    0.0000
@<TRIPOS>BOND
     1    1    2 ar
     2    2    3 1
     3    4    2 ar
     4    5    4 ar
     5    6    5 1
     6    7    5 ar
     7    8    7 1
     8    9    1 ar
     9   10   11 1
    10   11   12 1
    11   13   11 1
    12   14   13 1
    13   15   13 1
    14   16   17 1
    15   18   16 1
    16   19   16 1
    17   20   19 1
    18   21   19 1
    19   22   19 1
    20   23    9 1
    21   24   23 1
    22   25    1 1
    23   26   25 1
    24   27    4 1
    25   28   10 2
    26   29   13 1
    27   30   29 1
    28   31   15 2
    29   32   15 1
    30   33   27 2
    31   34   27 2
    32    7    9 ar
    33   10   23 1
    34   11   25 1
    35   16   32 1
@<TRIPOS>SUBSTRUCTURE
     1 RES1 1

@<TRIPOS>CRYSIN
   5.0741    5.6730   11.6860  99.7100  94.6200 102.7500   1 1

