# MOL2 file generated by ConQuest
# Please check atom types

@<TRIPOS>MOLECULE
PUQBUA
    87    93     1
SMALL
NO_CHARGES
****
Generated from CSD

@<TRIPOS>ATOM
      1 O1        -8.8681    0.6153  -13.2700 O.2       1 RES1    0.0000
      2 O2        -6.8925    1.0219  -10.7953 O.2       1 RES1    0.0000
      3 O3        -9.7167   -2.4723  -13.3382 O.2       1 RES1    0.0000
      4 O4        -8.0062   -0.0777   -9.3139 O.2       1 RES1    0.0000
      5 O5        -6.0113   -6.0826  -12.7189 O.2       1 RES1    0.0000
      6 O6        -8.9961   -1.6361  -15.2816 O.3       1 RES1    0.0000
      7 N1        -6.7032    1.1554  -13.9127 N.am      1 RES1    0.0000
      8 N2        -5.8158   -2.0559  -15.7652 N.1       1 RES1    0.0000
      9 N3        -7.4942    0.0316  -10.4185 N.pl3     1 RES1    0.0000
     10 C1        -7.7297   -7.1761  -13.9118 C.ar      1 RES1    0.0000
     11 C2        -6.9945   -3.4753  -12.9730 C.3       1 RES1    0.0000
     12 H1        -5.9987   -3.5441  -12.9267 H         1 RES1    0.0000
     13 C3        -5.5062    1.2627  -16.4547 C.ar      1 RES1    0.0000
     14 H2        -5.5178    0.4660  -15.9372 H         1 RES1    0.0000
     15 C4        -3.0917    0.6480  -13.1223 C.ar      1 RES1    0.0000
     16 H3        -2.2325    1.0367  -13.2443 H         1 RES1    0.0000
     17 C5        -4.2062    1.2881  -13.6513 C.ar      1 RES1    0.0000
     18 H4        -4.1259    2.1106  -14.1223 H         1 RES1    0.0000
     19 C6        -8.9718   -7.1009  -14.5152 C.ar      1 RES1    0.0000
     20 H5        -9.3867   -6.2542  -14.6327 H         1 RES1    0.0000
     21 C7        -7.6833    0.3946  -13.3407 C.2       1 RES1    0.0000
     22 C8        -7.6762   -1.1443  -11.3595 C.3       1 RES1    0.0000
     23 H6        -8.6586   -1.2512  -11.5156 H         1 RES1    0.0000
     24 C9        -4.8700    1.2716  -17.6879 C.ar      1 RES1    0.0000
     25 H7        -4.4489    0.4812  -18.0062 H         1 RES1    0.0000
     26 C10       -5.4339    0.6857  -13.4685 C.ar      1 RES1    0.0000
     27 C11       -7.1899   -2.4019  -10.6774 C.3       1 RES1    0.0000
     28 H8        -7.6209   -2.4939   -9.7915 H         1 RES1    0.0000
     29 H9        -6.2102   -2.3571  -10.5446 H         1 RES1    0.0000
     30 C12      -10.9544    3.0531  -15.9896 C.ar      1 RES1    0.0000
     31 H10      -11.8342    3.1912  -16.3206 H         1 RES1    0.0000
     32 C13       -6.3762    3.5580  -13.6826 C.ar      1 RES1    0.0000
     33 C14       -9.1145    3.7319  -14.6055 C.ar      1 RES1    0.0000
     34 H11       -8.7460    4.3445  -13.9794 H         1 RES1    0.0000
     35 C15      -10.2147    1.9755  -16.4125 C.ar      1 RES1    0.0000
     36 H12      -10.5930    1.3575  -17.0261 H         1 RES1    0.0000
     37 C16       -6.5957    4.6339  -11.5428 C.ar      1 RES1    0.0000
     38 H13       -7.0355    4.7058  -10.7034 H         1 RES1    0.0000
     39 C17       -7.4977   -4.6151  -13.8367 C.3       1 RES1    0.0000
     40 H14       -8.4882   -4.6180  -13.8137 H         1 RES1    0.0000
     41 H15       -7.2202   -4.4509  -14.7734 H         1 RES1    0.0000
     42 C18       -5.3447    4.4333  -13.9948 C.ar      1 RES1    0.0000
     43 H16       -4.9021    4.3631  -14.8324 H         1 RES1    0.0000
     44 C19       -6.1263    2.4078  -15.9676 C.ar      1 RES1    0.0000
     45 C20       -7.0284   -0.8648  -12.7128 C.3       1 RES1    0.0000
     46 C21       -8.9281    1.7837  -15.9542 C.ar      1 RES1    0.0000
     47 H17       -8.4221    1.0452  -16.2730 H         1 RES1    0.0000
     48 C22       -4.4426   -1.1232  -12.2479 C.ar      1 RES1    0.0000
     49 H18       -4.5193   -1.9502  -11.7856 H         1 RES1    0.0000
     50 C23       -7.0008   -5.9754  -13.4158 C.2       1 RES1    0.0000
     51 C24      -10.4065    3.9330  -15.0778 C.ar      1 RES1    0.0000
     52 H19      -10.9125    4.6771  -14.7734 H         1 RES1    0.0000
     53 C25       -7.3487   -2.1064  -13.6495 C.3       1 RES1    0.0000
     54 C26       -8.3606    2.6619  -15.0288 C.ar      1 RES1    0.0000
     55 C27       -8.8379   -2.0995  -14.0470 C.2       1 RES1    0.0000
     56 C28       -6.1326    3.5381  -16.7807 C.ar      1 RES1    0.0000
     57 H20       -6.5966    4.3158  -16.4930 H         1 RES1    0.0000
     58 C29       -5.4759    3.5516  -17.9976 C.ar      1 RES1    0.0000
     59 H21       -5.4580    4.3445  -18.5212 H         1 RES1    0.0000
     60 C30       -6.8758    2.4449  -14.6320 C.3       1 RES1    0.0000
     61 C31       -6.5064   -2.0284  -14.8616 C.1       1 RES1    0.0000
     62 C32       -7.1239   -8.4148  -13.7607 C.ar      1 RES1    0.0000
     63 H22       -6.2727   -8.4813  -13.3441 H         1 RES1    0.0000
     64 C33       -6.9624    3.6490  -12.4337 C.ar      1 RES1    0.0000
     65 H23       -7.6298    3.0207  -12.1849 H         1 RES1    0.0000
     66 C34       -5.5695   -0.4917  -12.7491 C.ar      1 RES1    0.0000
     67 C35       -7.5397   -3.5975  -11.5496 C.3       1 RES1    0.0000
     68 H24       -8.5247   -3.6910  -11.5882 H         1 RES1    0.0000
     69 H25       -7.1739   -4.4188  -11.1345 H         1 RES1    0.0000
     70 C36       -5.5820    5.5207  -11.8777 C.ar      1 RES1    0.0000
     71 H26       -5.3242    6.2018  -11.2661 H         1 RES1    0.0000
     72 C37       -4.9548    5.4136  -13.0864 C.ar      1 RES1    0.0000
     73 H27       -4.2490    6.0110  -13.3078 H         1 RES1    0.0000
     74 C38       -3.2015   -0.5307  -12.4294 C.ar      1 RES1    0.0000
     75 H28       -2.4243   -0.9439  -12.0714 H         1 RES1    0.0000
     76 C39       -9.0030   -9.4677  -14.8072 C.ar      1 RES1    0.0000
     77 H29       -9.4358  -10.2559  -15.1159 H         1 RES1    0.0000
     78 C40       -4.8450    2.4088  -18.4502 C.ar      1 RES1    0.0000
     79 H30       -4.3944    2.4112  -19.2880 H         1 RES1    0.0000
     80 C41       -7.7592   -9.5486  -14.2144 C.ar      1 RES1    0.0000
     81 H31       -7.3380  -10.3943  -14.1177 H         1 RES1    0.0000
     82 C42       -9.6169   -8.2412  -14.9492 C.ar      1 RES1    0.0000
     83 H32      -10.4788   -8.1807  -15.3428 H         1 RES1    0.0000
     84 C43      -10.3673   -1.5311  -15.7219 C.3       1 RES1    0.0000
     85 H33      -10.3905   -1.1803  -16.6359 H         1 RES1    0.0000
     86 H34      -10.8562   -0.9253  -15.1273 H         1 RES1    0.0000
     87 H35      -10.7858   -2.4179  -15.7013 H         1 RES1    0.0000
@<TRIPOS>BOND
     1    1   21 2
     2    2    9 2
     3    3   55 2
     4    4    9 2
     5    5   50 2
     6    6   55 1
     7    7   21 1
     8    8   61 3
     9    9   22 1
    10   10   19 ar
    11   11   12 1
    12   13   14 1
    13   15   16 1
    14   17   15 ar
    15   18   17 1
    16   19   20 1
    17   21   45 1
    18   22   23 1
    19   24   13 ar
    20   25   24 1
    21   26    7 1
    22   27   22 1
    23   28   27 1
    24   29   27 1
    25   30   31 1
    26   32   42 ar
    27   33   34 1
    28   35   30 ar
    29   36   35 1
    30   37   38 1
    31   39   11 1
    32   40   39 1
    33   41   39 1
    34   42   43 1
    35   44   13 ar
    36   45   22 1
    37   46   35 ar
    38   47   46 1
    39   48   49 1
    40   50   10 1
    41   51   30 ar
    42   52   51 1
    43   53   11 1
    44   54   33 ar
    45   55   53 1
    46   56   44 ar
    47   57   56 1
    48   58   56 ar
    49   59   58 1
    50   60    7 1
    51   61   53 1
    52   62   10 ar
    53   63   62 1
    54   64   32 ar
    55   65   64 1
    56   66   26 ar
    57   67   11 1
    58   68   67 1
    59   69   67 1
    60   70   37 ar
    61   71   70 1
    62   72   42 ar
    63   73   72 1
    64   74   15 ar
    65   75   74 1
    66   76   77 1
    67   78   24 ar
    68   79   78 1
    69   80   62 ar
    70   81   80 1
    71   82   19 ar
    72   83   82 1
    73   84    6 1
    74   85   84 1
    75   86   84 1
    76   87   84 1
    77   17   26 ar
    78   27   67 1
    79   32   60 1
    80   33   51 ar
    81   37   64 ar
    82   39   50 1
    83   44   60 1
    84   45   53 1
    85   45   66 1
    86   46   54 ar
    87   48   66 ar
    88   48   74 ar
    89   54   60 1
    90   58   78 ar
    91   70   72 ar
    92   76   80 ar
    93   76   82 ar
@<TRIPOS>SUBSTRUCTURE
     1 RES1 1

@<TRIPOS>CRYSIN
   8.9227   16.8849   22.6864  90.0000  90.0000  90.0000  19 1

