# MOL2 file generated by ConQuest
# Please check atom types

@<TRIPOS>MOLECULE
PUQFUD
    19    19     1
SMALL
NO_CHARGES
****
Generated from CSD

@<TRIPOS>ATOM
      1 O1        -0.0786    9.3541    1.3931 O.3       1 RES1    0.0000
      2 H1        -0.1373    9.4140    0.5575 H         1 RES1    0.0000
      3 O2         0.1920   11.5754    1.2224 O.2       1 RES1    0.0000
      4 N1         1.3962   12.9969    5.9015 N.pl3     1 RES1    0.0000
      5 O3         1.5686   13.0894    7.1302 O.2       1 RES1    0.0000
      6 O4         1.7399   13.9005    5.1363 O.2       1 RES1    0.0000
      7 N2         0.5745   10.6889    7.5468 N.pl3     1 RES1    0.0000
      8 H2         0.8249   11.4149    7.9757 H         1 RES1    0.0000
      9 H3         0.3662    9.9623    7.9970 H         1 RES1    0.0000
     10 C1        -0.0340    9.4413    4.1782 C.ar      1 RES1    0.0000
     11 H4        -0.3035    8.6284    3.7664 H         1 RES1    0.0000
     12 C2         0.2371   10.5766    3.3782 C.ar      1 RES1    0.0000
     13 C3         0.6552   11.7345    3.9842 C.ar      1 RES1    0.0000
     14 H5         0.8347   12.5030    3.4562 H         1 RES1    0.0000
     15 C4         0.5097   10.6894    6.2055 C.ar      1 RES1    0.0000
     16 C5         0.0898    9.5041    5.5355 C.ar      1 RES1    0.0000
     17 H6        -0.1115    8.7324    6.0510 H         1 RES1    0.0000
     18 C6         0.1103   10.5484    1.9062 C.2       1 RES1    0.0000
     19 C7         0.8188   11.7929    5.3695 C.ar      1 RES1    0.0000
@<TRIPOS>BOND
     1    1    2 1
     2    3   18 2
     3    4    5 2
     4    6    4 2
     5    7    8 1
     6    9    7 1
     7   10   11 1
     8   12   10 ar
     9   13   12 ar
    10   14   13 1
    11   15    7 1
    12   16   10 ar
    13   17   16 1
    14   18    1 1
    15   19    4 1
    16   12   18 1
    17   13   19 ar
    18   15   16 ar
    19   15   19 ar
@<TRIPOS>SUBSTRUCTURE
     1 RES1 1

@<TRIPOS>CRYSIN
   6.9476   10.5032   10.4856  90.0000 104.8450  90.0000  14 1

