# MOL2 file generated by ConQuest
# Please check atom types

@<TRIPOS>MOLECULE
PUQQIC
    39    41     1
SMALL
NO_CHARGES
****
Generated from CSD

@<TRIPOS>ATOM
      1 O1         4.8245    2.8887    9.4845 O.3       1 RES1    0.0000
      2 N1         7.0828    2.3747    5.3365 N.2       1 RES1    0.0000
      3 O2         8.7529   -0.7503    1.1414 O.2       1 RES1    0.0000
      4 O3         7.2645   -0.5124    2.6927 O.2       1 RES1    0.0000
      5 O4        10.8549    2.9668   -0.8197 O.2       1 RES1    0.0000
      6 O5         5.8201    1.0050    8.9274 O.2       1 RES1    0.0000
      7 N2         7.4571    1.5848    4.2736 N.pl3     1 RES1    0.0000
      8 H1         7.2294    0.7557    4.2564 H         1 RES1    0.0000
      9 C1         8.1805    2.1044    3.2560 C.ar      1 RES1    0.0000
     10 N3         8.1755   -0.0687    1.9853 N.pl3     1 RES1    0.0000
     11 C2         8.5647    1.3240    2.1322 C.ar      1 RES1    0.0000
     12 C3         4.8719    4.8148    8.0298 C.ar      1 RES1    0.0000
     13 C4         8.6042    3.4531    3.2798 C.ar      1 RES1    0.0000
     14 H2         8.3641    3.9937    3.9976 H         1 RES1    0.0000
     15 C5         9.7290    3.1682    1.1901 C.ar      1 RES1    0.0000
     16 N4        10.5611    3.7046    0.1314 N.pl3     1 RES1    0.0000
     17 C6         4.4874    4.2030    9.2279 C.ar      1 RES1    0.0000
     18 C7         9.3262    1.8631    1.1119 C.ar      1 RES1    0.0000
     19 H3         9.5632    1.3429    0.3781 H         1 RES1    0.0000
     20 O6        10.9684    4.8641    0.2310 O.2       1 RES1    0.0000
     21 C8         5.8171    0.3866    6.1086 C.3       1 RES1    0.0000
     22 H4         5.4502    0.2253    5.2369 H         1 RES1    0.0000
     23 H5         5.1405    0.2398    6.7733 H         1 RES1    0.0000
     24 H6         6.5522   -0.2107    6.2625 H         1 RES1    0.0000
     25 C9         5.7787    2.6973    7.2536 C.2       1 RES1    0.0000
     26 C10        3.7474    4.8541   10.1965 C.ar      1 RES1    0.0000
     27 H7         3.4932    4.4195   10.9779 H         1 RES1    0.0000
     28 C11        9.3579    3.9748    2.2688 C.ar      1 RES1    0.0000
     29 H8         9.6243    4.8657    2.2980 H         1 RES1    0.0000
     30 C12        4.5089    6.1504    7.8454 C.ar      1 RES1    0.0000
     31 H9         4.7591    6.5908    7.0639 H         1 RES1    0.0000
     32 C13        3.7839    6.8262    8.8060 C.ar      1 RES1    0.0000
     33 H10        3.5538    7.7185    8.6773 H         1 RES1    0.0000
     34 C14        3.3991    6.1635    9.9682 C.ar      1 RES1    0.0000
     35 H11        2.8948    6.6169   10.6051 H         1 RES1    0.0000
     36 C15        5.4928    2.1175    8.5725 C.2       1 RES1    0.0000
     37 C16        5.5158    4.0111    7.0373 C.2       1 RES1    0.0000
     38 H12        5.7588    4.3963    6.2267 H         1 RES1    0.0000
     39 C17        6.3025    1.8108    6.1935 C.2       1 RES1    0.0000
@<TRIPOS>BOND
     1    1   17 1
     2    2    7 1
     3    3   10 2
     4    4   10 2
     5    5   16 2
     6    6   36 2
     7    7    8 1
     8    9    7 1
     9   10   11 1
    10   11    9 ar
    11   12   17 ar
    12   13    9 ar
    13   14   13 1
    14   15   16 1
    15   16   20 2
    16   17   26 ar
    17   18   11 ar
    18   19   18 1
    19   21   22 1
    20   23   21 1
    21   24   21 1
    22   25   36 1
    23   26   27 1
    24   28   13 ar
    25   29   28 1
    26   30   12 ar
    27   31   30 1
    28   32   30 ar
    29   33   32 1
    30   34   26 ar
    31   35   34 1
    32   36    1 1
    33   37   12 1
    34   38   37 1
    35   39    2 2
    36   15   18 ar
    37   15   28 ar
    38   21   39 1
    39   25   37 2
    40   25   39 1
    41   32   34 ar
@<TRIPOS>SUBSTRUCTURE
     1 RES1 1

@<TRIPOS>CRYSIN
   8.0505   14.5331   13.2899  90.0000  93.2900  90.0000  14 1

