# MOL2 file generated by ConQuest
# Please check atom types

@<TRIPOS>MOLECULE
PURSEB02
    61    63     1
SMALL
NO_CHARGES
****
Generated from CSD

@<TRIPOS>ATOM
      1 N1        16.9294   12.1014    0.9934 N.3       1 RES1    0.0000
      2 C1        21.1889    9.0314    1.2703 C.ar      1 RES1    0.0000
      3 H1        20.4588    8.8546    0.7211 H         1 RES1    0.0000
      4 C2        19.1045   10.9957    1.2297 C.3       1 RES1    0.0000
      5 H2        18.6241   10.2248    1.5702 H         1 RES1    0.0000
      6 H3        19.2780   10.8649    0.2843 H         1 RES1    0.0000
      7 C3        18.3124   12.2659    1.4587 C.3       1 RES1    0.0000
      8 H4        18.3121   12.4824    2.4041 H         1 RES1    0.0000
      9 H5        18.7304   13.0000    0.9809 H         1 RES1    0.0000
     10 C4        23.2870    8.3816    2.2106 C.ar      1 RES1    0.0000
     11 C5        22.2401    8.1138    1.3804 C.ar      1 RES1    0.0000
     12 H6        22.2241    7.3249    0.8892 H         1 RES1    0.0000
     13 C6        21.2557   10.1941    1.9867 C.ar      1 RES1    0.0000
     14 C7        23.3584    9.5339    2.9345 C.ar      1 RES1    0.0000
     15 H7        24.0842    9.6980    3.4929 H         1 RES1    0.0000
     16 C8        22.3371   10.4483    2.8230 C.ar      1 RES1    0.0000
     17 H8        22.3697   11.2392    3.3090 H         1 RES1    0.0000
     18 O1        20.3354   11.1886    1.9517 O.3       1 RES1    0.0000
     19 O2        24.3555    6.4182    1.6660 O.2       1 RES1    0.0000
     20 O3        25.2537    7.6232    3.1676 O.2       1 RES1    0.0000
     21 N2        24.3823    7.3991    2.3590 N.pl3     1 RES1    0.0000
     22 C9        18.3403   17.5151    4.1324 C.ar      1 RES1    0.0000
     23 H9        19.1440   17.8109    4.4968 H         1 RES1    0.0000
     24 C10       15.9603   17.7150    3.9352 C.ar      1 RES1    0.0000
     25 H10       15.1696   18.1436    4.1752 H         1 RES1    0.0000
     26 C11       17.1173   16.0430    2.6976 C.ar      1 RES1    0.0000
     27 C12       15.9310   16.6807    3.0455 C.ar      1 RES1    0.0000
     28 H11       15.1234   16.4037    2.6746 H         1 RES1    0.0000
     29 C13       17.1519   18.1233    4.4756 C.ar      1 RES1    0.0000
     30 C14       18.3230   16.4764    3.2524 C.ar      1 RES1    0.0000
     31 H12       19.1186   16.0547    3.0202 H         1 RES1    0.0000
     32 O4        18.2463   19.6042    5.8537 O.2       1 RES1    0.0000
     33 O5        16.0994   19.7496    5.7229 O.2       1 RES1    0.0000
     34 O6        17.2032   14.9814    1.8642 O.3       1 RES1    0.0000
     35 C15       16.0717   11.3721    1.9291 C.3       1 RES1    0.0000
     36 H13       15.4099   11.9833    2.2885 H         1 RES1    0.0000
     37 H14       16.6138   11.0567    2.6686 H         1 RES1    0.0000
     38 C16       15.3646   10.2041    1.3173 C.3       1 RES1    0.0000
     39 H15       16.0015    9.6449    0.8436 H         1 RES1    0.0000
     40 H16       14.9478    9.6703    2.0121 H         1 RES1    0.0000
     41 C17       13.4715    9.7964   -0.1097 C.ar      1 RES1    0.0000
     42 C18       12.5049   10.3388   -0.9560 C.ar      1 RES1    0.0000
     43 H17       12.5031   11.2508   -1.1357 H         1 RES1    0.0000
     44 C19       12.4754    7.6553   -0.4156 C.ar      1 RES1    0.0000
     45 H18       12.4569    6.7426   -0.2377 H         1 RES1    0.0000
     46 C20       11.5455    8.1981   -1.2311 C.ar      1 RES1    0.0000
     47 C21       13.4692    8.4579    0.1649 C.ar      1 RES1    0.0000
     48 H19       14.1136    8.0875    0.7247 H         1 RES1    0.0000
     49 C22       11.5536    9.5201   -1.5260 C.ar      1 RES1    0.0000
     50 H20       10.9203    9.8736   -2.1088 H         1 RES1    0.0000
     51 O7        10.3576    6.2384   -1.3564 O.2       1 RES1    0.0000
     52 O8         9.8673    7.8263   -2.7829 O.2       1 RES1    0.0000
     53 O9        14.3611   10.6849    0.4041 O.3       1 RES1    0.0000
     54 N3        17.1610   19.2290    5.4059 N.pl3     1 RES1    0.0000
     55 N4        10.5187    7.3550   -1.8577 N.pl3     1 RES1    0.0000
     56 C23       15.9848   14.4389    1.3398 C.3       1 RES1    0.0000
     57 H21       15.5024   15.1235    0.8501 H         1 RES1    0.0000
     58 H22       15.4215   14.1276    2.0655 H         1 RES1    0.0000
     59 C24       16.3236   13.2900    0.4216 C.3       1 RES1    0.0000
     60 H23       15.5070   13.0185   -0.0249 H         1 RES1    0.0000
     61 H24       16.9234   13.6262   -0.2622 H         1 RES1    0.0000
@<TRIPOS>BOND
     1    1    7 1
     2    2    3 1
     3    4    5 1
     4    6    4 1
     5    7    4 1
     6    8    7 1
     7    9    7 1
     8   10   11 ar
     9   11    2 ar
    10   12   11 1
    11   13    2 ar
    12   14   10 ar
    13   15   14 1
    14   16   13 ar
    15   17   16 1
    16   18    4 1
    17   19   21 2
    18   20   21 2
    19   21   10 1
    20   22   23 1
    21   24   25 1
    22   26   27 ar
    23   27   24 ar
    24   28   27 1
    25   29   22 ar
    26   30   22 ar
    27   31   30 1
    28   32   54 2
    29   33   54 2
    30   34   26 1
    31   35    1 1
    32   36   35 1
    33   37   35 1
    34   38   35 1
    35   39   38 1
    36   40   38 1
    37   41   42 ar
    38   42   43 1
    39   44   45 1
    40   46   44 ar
    41   47   41 ar
    42   48   47 1
    43   49   42 ar
    44   50   49 1
    45   51   55 2
    46   52   55 2
    47   53   38 1
    48   54   29 1
    49   55   46 1
    50   56   34 1
    51   57   56 1
    52   58   56 1
    53   59    1 1
    54   60   59 1
    55   61   59 1
    56   13   18 1
    57   14   16 ar
    58   24   29 ar
    59   26   30 ar
    60   41   53 1
    61   44   47 ar
    62   46   49 ar
    63   56   59 1
@<TRIPOS>SUBSTRUCTURE
     1 RES1 1

@<TRIPOS>CRYSIN
  23.1068   23.1070    4.6074  90.0000  90.0000  90.0000  33 1

