# MOL2 file generated by ConQuest
# Please check atom types

@<TRIPOS>MOLECULE
PUSGAL
    27    27     1
SMALL
NO_CHARGES
****
Generated from CSD

@<TRIPOS>ATOM
      1 O1         1.3847    7.3244    2.8079 O.2       1 RES1    0.0000
      2 N1         4.7229    5.2925    4.3156 N.ar      1 RES1    0.0000
      3 N2         1.9427    7.5120    3.9603 N.pl3     1 RES1    0.0000
      4 C1         5.4020    4.2997    3.7461 C.ar      1 RES1    0.0000
      5 C2         5.0121    3.6464    2.5909 C.ar      1 RES1    0.0000
      6 C3         3.8217    4.0226    2.0070 C.ar      1 RES1    0.0000
      7 C4         3.0826    5.0583    2.5669 C.ar      1 RES1    0.0000
      8 C5         3.5746    5.6853    3.7106 C.ar      1 RES1    0.0000
      9 C6         2.9446    6.7999    4.4039 C.2       1 RES1    0.0000
     10 C7         1.3223    8.6424    4.7727 C.3       1 RES1    0.0000
     11 C8         1.5095    9.9149    3.9603 C.3       1 RES1    0.0000
     12 C9         1.9799    8.7915    6.1306 C.3       1 RES1    0.0000
     13 C10       -0.1440    8.2890    4.9379 C.3       1 RES1    0.0000
     14 H1         6.2072    4.0533    4.2426 H         1 RES1    0.0000
     15 H2         5.5652    2.9624    2.1972 H         1 RES1    0.0000
     16 H3         3.5422    3.6008    1.1917 H         1 RES1    0.0000
     17 H4         2.3026    5.3477    2.1904 H         1 RES1    0.0000
     18 H5         3.2938    7.0130    5.2250 H         1 RES1    0.0000
     19 H6         1.1279    9.8009    3.0902 H         1 RES1    0.0000
     20 H7         2.4754   10.1219    3.8815 H         1 RES1    0.0000
     21 H8         0.9995   10.6077    4.3847 H         1 RES1    0.0000
     22 H9         2.9650    8.9871    6.0710 H         1 RES1    0.0000
     23 H10        1.5023    9.5176    6.5857 H         1 RES1    0.0000
     24 H11        1.8539    7.9742    6.6184 H         1 RES1    0.0000
     25 H12       -0.6084    8.2408    4.0899 H         1 RES1    0.0000
     26 H13       -0.5856    8.9941    5.4276 H         1 RES1    0.0000
     27 H14       -0.2436    7.3577    5.4036 H         1 RES1    0.0000
@<TRIPOS>BOND
     1    1    3 1
     2    2    4 ar
     3    3    9 2
     4    4    5 ar
     5    5    6 ar
     6    6    7 ar
     7    7    8 ar
     8    8    2 ar
     9    9    8 1
    10   10    3 1
    11   11   10 1
    12   12   10 1
    13   13   10 1
    14   14    4 1
    15   15    5 1
    16   16    6 1
    17   17    7 1
    18   18    9 1
    19   19   11 1
    20   20   11 1
    21   21   11 1
    22   22   12 1
    23   23   12 1
    24   24   12 1
    25   25   13 1
    26   26   13 1
    27   27   13 1
@<TRIPOS>SUBSTRUCTURE
     1 RES1 1

@<TRIPOS>CRYSIN
  11.9992    8.7696    9.6030  90.0000  90.0000  90.0000  29 1

