# MOL2 file generated by ConQuest
# Please check atom types

@<TRIPOS>MOLECULE
PUTCOW
    38    40     1
SMALL
NO_CHARGES
****
Generated from CSD

@<TRIPOS>ATOM
      1 C1         1.5905    1.7663    8.5868 C.2       1 RES1    0.0000
      2 C2         1.3114    2.7966    7.6338 C.2       1 RES1    0.0000
      3 O1         2.0937    3.1368    6.6223 O.3       1 RES1    0.0000
      4 C3         3.2965    2.3928    6.3140 C.3       1 RES1    0.0000
      5 C4         0.1049    3.4646    7.8402 C.2       1 RES1    0.0000
      6 N1        -0.3205    4.5770    6.9841 N.pl3     1 RES1    0.0000
      7 O2         0.5044    5.1505    6.2987 O.2       1 RES1    0.0000
      8 O3        -1.5042    4.8951    7.0248 O.2       1 RES1    0.0000
      9 C5        -0.7918    3.1377    8.8721 C.2       1 RES1    0.0000
     10 C6        -0.5115    2.1560    9.7716 C.2       1 RES1    0.0000
     11 N2        -1.4517    1.8847   10.8367 N.pl3     1 RES1    0.0000
     12 O4        -2.5369    2.4449   10.8112 O.2       1 RES1    0.0000
     13 O5        -1.1181    1.0904   11.7081 O.2       1 RES1    0.0000
     14 C7         0.7116    1.4597    9.6493 C.2       1 RES1    0.0000
     15 N3         1.2461    0.4807   10.3857 N.2       1 RES1    0.0000
     16 N4         2.4060    0.2244    9.7563 N.pl3     1 RES1    0.0000
     17 N5         2.6649    0.9543    8.6785 N.2       1 RES1    0.0000
     18 C8         3.3365   -0.7590   10.2226 C.ar      1 RES1    0.0000
     19 C9         3.0555   -1.5498   11.3921 C.ar      1 RES1    0.0000
     20 N6         1.9302   -1.4288   12.0954 N.3       1 RES1    0.0000
     21 C10        4.0957   -2.4679   11.7310 C.ar      1 RES1    0.0000
     22 N7         3.9865   -3.3223   12.9107 N.pl3     1 RES1    0.0000
     23 O6         3.0025   -3.2543   13.6369 O.2       1 RES1    0.0000
     24 O7         4.9029   -4.0743   13.1579 O.2       1 RES1    0.0000
     25 C11        5.2644   -2.5907   11.0252 C.ar      1 RES1    0.0000
     26 C12        5.4577   -1.8070    9.9117 C.ar      1 RES1    0.0000
     27 N8         6.7156   -1.9103    9.1855 N.pl3     1 RES1    0.0000
     28 O8         7.5359   -2.7436    9.5525 O.2       1 RES1    0.0000
     29 O9         6.9120   -1.1443    8.2479 O.2       1 RES1    0.0000
     30 C13        4.5056   -0.8924    9.5015 C.ar      1 RES1    0.0000
     31 H1         3.7130    2.7648    5.5343 H         1 RES1    0.0000
     32 H2         3.0710    1.4738    6.1509 H         1 RES1    0.0000
     33 H3         3.9032    2.4449    7.0554 H         1 RES1    0.0000
     34 H4        -1.6085    3.5856    8.9460 H         1 RES1    0.0000
     35 H5         1.7931   -1.9819   12.8037 H         1 RES1    0.0000
     36 H6         1.3451   -0.7731   11.8584 H         1 RES1    0.0000
     37 H7         5.8888   -3.2030   11.2647 H         1 RES1    0.0000
     38 H8         4.6455   -0.3755    8.6912 H         1 RES1    0.0000
@<TRIPOS>BOND
     1    1    2 1
     2    2    3 1
     3    3    4 1
     4    4   31 1
     5    5    2 2
     6    6    5 1
     7    7    6 2
     8    8    6 2
     9    9    5 1
    10   10    9 2
    11   11   10 1
    12   12   11 2
    13   13   11 2
    14   14    1 1
    15   15   14 2
    16   16   15 1
    17   17    1 2
    18   18   16 1
    19   19   18 ar
    20   20   19 1
    21   21   19 ar
    22   22   21 1
    23   23   22 2
    24   24   22 2
    25   25   21 ar
    26   26   25 ar
    27   27   26 1
    28   28   27 2
    29   29   27 2
    30   30   18 ar
    31   32    4 1
    32   33    4 1
    33   34    9 1
    34   35   20 1
    35   36   20 1
    36   37   25 1
    37   38   30 1
    38   10   14 1
    39   16   17 1
    40   26   30 ar
@<TRIPOS>SUBSTRUCTURE
     1 RES1 1

@<TRIPOS>CRYSIN
   7.1900    8.8360   25.5550  90.0000  94.3900  90.0000  14 1

