# MOL2 file generated by ConQuest
# Please check atom types

@<TRIPOS>MOLECULE
PUTCEM
    32    35     1
SMALL
USER_CHARGES
****
Generated from CSD

@<TRIPOS>ATOM
      1 N1         0.1838    5.8302   -0.6461 N.pl3     1 RES1    0.0000
      2 C1         0.5488    4.5968   -1.1462 C.ar      1 RES1    0.0000
      3 C2         1.0453    4.2315   -2.3869 C.ar      1 RES1    0.0000
      4 C3         1.3459    2.8916   -2.5130 C.ar      1 RES1    0.0000
      5 N2         1.9695    2.4198   -3.7479 N.pl3     1 RES1    0.0000
      6 O1         2.3207    3.2547   -4.5732 O.2       1 RES1    0.0000
      7 O2         2.1232    1.2162   -3.8855 O.2       1 RES1    0.0000
      8 C4         1.1535    1.9640   -1.4986 C.ar      1 RES1    0.0000
      9 C5         0.6760    2.3603   -0.2837 C.ar      1 RES1    0.0000
     10 N3         0.5317    1.3605    0.7679 N.pl3     1 RES1    0.0000
     11 O3         1.2445    0.3630    0.7164 O.2       1 RES1    0.0000
     12 O4        -0.2946    1.5678    1.6505 O.2       1 RES1    0.0000
     13 C6         0.3427    3.7196   -0.0602 C.ar      1 RES1    0.0000
     14 N4         0.1194    7.1060   -1.0559 N.2       1 RES1   -1.0000
     15 H1         1.1870    4.8282   -3.0588 H         1 RES1    0.0000
     16 H2         1.3665    1.0501   -1.6791 H         1 RES1    0.0000
     17 N1D       -0.1838    5.6218    0.6461 N.pl3     1 RES1    0.0000
     18 C1D       -0.5488    6.8552    1.1462 C.ar      1 RES1    0.0000
     19 C2D       -1.0453    7.2205    2.3869 C.ar      1 RES1    0.0000
     20 C3D       -1.3459    8.5604    2.5130 C.ar      1 RES1    0.0000
     21 N2D       -1.9695    9.0322    3.7479 N.pl3     1 RES1    0.0000
     22 O1D       -2.3207    8.1973    4.5732 O.2       1 RES1    0.0000
     23 O2D       -2.1232   10.2358    3.8855 O.2       1 RES1    0.0000
     24 C4D       -1.1535    9.4880    1.4986 C.ar      1 RES1    0.0000
     25 C5D       -0.6760    9.0917    0.2837 C.ar      1 RES1    0.0000
     26 N3D       -0.5317   10.0915   -0.7679 N.pl3     1 RES1    0.0000
     27 O3D       -1.2445   11.0890   -0.7164 O.2       1 RES1    0.0000
     28 O4D        0.2946    9.8842   -1.6505 O.2       1 RES1    0.0000
     29 C6D       -0.3427    7.7324    0.0602 C.ar      1 RES1    0.0000
     30 N4D       -0.1194    4.3460    1.0559 N.2       1 RES1   -1.0000
     31 H2D       -1.3665   10.4019    1.6791 H         1 RES1    0.0000
     32 H1D       -1.1870    6.6238    3.0588 H         1 RES1    0.0000
@<TRIPOS>BOND
     1    1    2 1
     2    2    3 ar
     3    3    4 ar
     4    4    5 1
     5    5    6 2
     6    7    5 2
     7    8    4 ar
     8    9    8 ar
     9   10    9 1
    10   11   10 2
    11   12   10 2
    12   13    2 ar
    13   14    1 1
    14   15    3 1
    15   16    8 1
    16   17    1 1
    17   18   17 1
    18   19   18 ar
    19   20   19 ar
    20   21   20 1
    21   22   21 2
    22   23   21 2
    23   24   20 ar
    24   25   24 ar
    25   26   25 1
    26   27   26 2
    27   28   26 2
    28   29   14 1
    29   30   13 1
    30   31   24 1
    31   32   19 1
    32    9   13 ar
    33   17   30 2
    34   18   29 ar
    35   25   29 ar
@<TRIPOS>SUBSTRUCTURE
     1 RES1 1

@<TRIPOS>CRYSIN
   8.5890   11.4520   14.3270  90.0000  90.0000  90.0000  61 1

