# MOL2 file generated by ConQuest
# Please check atom types

@<TRIPOS>MOLECULE
PUTDAJ
    18    20     1
SMALL
USER_CHARGES
****
Generated from CSD

@<TRIPOS>ATOM
      1 C1         5.2965    1.5454    3.9834 C.ar      1 RES1    0.0000
      2 N1         6.3062    1.5454    4.9259 N.pl3     1 RES1    0.0000
      3 N2         7.6292    1.5454    5.0054 N.2       1 RES1   -1.0000
      4 C2         7.8482    1.5454    6.3342 C.2       1 RES1    0.0000
      5 C3         6.6803    1.5454    7.0664 C.2       1 RES1    0.0000
      6 N3         5.7071    1.5454    6.1440 N.pl3     1 RES1    1.0000
      7 N4         4.3430    1.5454    6.0970 N.2       1 RES1    0.0000
      8 C4         4.1104    1.5454    4.7629 C.ar      1 RES1    0.0000
      9 C5         2.8878    1.5454    4.0337 C.ar      1 RES1    0.0000
     10 N5         1.6180    1.5454    4.7197 N.pl3     1 RES1    0.0000
     11 O1         1.6119    1.5454    5.9298 O.2       1 RES1    0.0000
     12 O2         0.6067    1.5454    4.0477 O.2       1 RES1    0.0000
     13 C6         2.9106    1.5454    2.6556 C.ar      1 RES1    0.0000
     14 C7         4.1225    1.5454    1.9806 C.ar      1 RES1    0.0000
     15 N6         4.1043    1.5454    0.5251 N.pl3     1 RES1    0.0000
     16 O3         5.1688    1.5454   -0.0684 O.2       1 RES1    0.0000
     17 O4         3.0216    1.5454   -0.0493 O.2       1 RES1    0.0000
     18 C8         5.3512    1.5454    2.6133 C.ar      1 RES1    0.0000
@<TRIPOS>BOND
     1    1    2 1
     2    2    3 1
     3    3    4 1
     4    4    5 2
     5    5    6 1
     6    6    2 1
     7    7    6 2
     8    8    1 ar
     9    9    8 ar
    10   10    9 1
    11   11   10 2
    12   12   10 2
    13   13    9 ar
    14   14   13 ar
    15   15   14 1
    16   16   15 2
    17   17   15 2
    18   18    1 ar
    19    7    8 1
    20   14   18 ar
@<TRIPOS>SUBSTRUCTURE
     1 RES1 1

@<TRIPOS>CRYSIN
  15.2067    6.1814   10.0590  90.0000  90.0000  90.0000  62 1

