# MOL2 file generated by ConQuest
# Please check atom types

@<TRIPOS>MOLECULE
PUTNUP
    51    56     1
SMALL
NO_CHARGES
****
Generated from CSD

@<TRIPOS>ATOM
      1 O1         1.8905   10.4955    8.0457 O.2       1 RES1    0.0000
      2 O2         1.5219   15.0587    8.3982 O.2       1 RES1    0.0000
      3 O3        -3.7326   11.0879   11.7236 O.2       1 RES1    0.0000
      4 O4        -4.4239   12.9542   10.8692 O.2       1 RES1    0.0000
      5 N1         6.3208   14.6292    5.7040 N.3       1 RES1    0.0000
      6 N2         1.3669   12.7327    8.3994 N.am      1 RES1    0.0000
      7 N3        -3.5597   12.0954   11.0368 N.pl3     1 RES1    0.0000
      8 C1         7.2504   13.6758    5.3421 C.ar      1 RES1    0.0000
      9 C2         8.5220   13.8829    4.8097 C.ar      1 RES1    0.0000
     10 H1         8.8452   14.7573    4.6226 H         1 RES1    0.0000
     11 C3         9.2909   12.7642    4.5663 C.ar      1 RES1    0.0000
     12 H2        10.1623   12.8689    4.2031 H         1 RES1    0.0000
     13 C4         8.8158   11.4857    4.8425 C.ar      1 RES1    0.0000
     14 H3         9.3720   10.7362    4.6640 H         1 RES1    0.0000
     15 C5         7.5604   11.2786    5.3669 C.ar      1 RES1    0.0000
     16 H4         7.2509   10.3989    5.5495 H         1 RES1    0.0000
     17 C6         6.7447   12.3922    5.6277 C.ar      1 RES1    0.0000
     18 C7         5.4391   12.5853    6.2060 C.ar      1 RES1    0.0000
     19 C8         5.2269   13.9925    6.2521 C.ar      1 RES1    0.0000
     20 C9         4.0970   14.5678    6.8288 C.ar      1 RES1    0.0000
     21 H5         3.9589   15.5076    6.8545 H         1 RES1    0.0000
     22 C10        3.1945   13.6698    7.3582 C.ar      1 RES1    0.0000
     23 C11        3.3617   12.2828    7.2948 C.ar      1 RES1    0.0000
     24 C12        4.4749   11.6944    6.7121 C.ar      1 RES1    0.0000
     25 C13        1.9566   13.9701    8.0839 C.2       1 RES1    0.0000
     26 C14        2.1847   11.6577    7.9268 C.2       1 RES1    0.0000
     27 C15        0.1371   12.5737    9.0940 C.ar      1 RES1    0.0000
     28 C16       -0.0780   11.4720    9.9144 C.ar      1 RES1    0.0000
     29 H6         0.6088   10.8260   10.0306 H         1 RES1    0.0000
     30 C17       -1.2848   11.3174   10.5574 C.ar      1 RES1    0.0000
     31 H7        -1.4412   10.5612   11.1112 H         1 RES1    0.0000
     32 C18       -2.2593   12.2691   10.3893 C.ar      1 RES1    0.0000
     33 C19       -2.0520   13.3911    9.6189 C.ar      1 RES1    0.0000
     34 H8        -2.7258   14.0574    9.5490 H         1 RES1    0.0000
     35 C20       -0.8573   13.5363    8.9523 C.ar      1 RES1    0.0000
     36 H9        -0.7113   14.2923    8.3959 H         1 RES1    0.0000
     37 C21        6.4946   16.0576    5.5459 C.3       1 RES1    0.0000
     38 H10        7.3613   16.2359    5.1232 H         1 RES1    0.0000
     39 H11        6.4640   16.4897    6.4247 H         1 RES1    0.0000
     40 H12        5.7767   16.4140    4.9816 H         1 RES1    0.0000
     41 C22        4.6485   10.2165    6.6493 C.ar      1 RES1    0.0000
     42 C23        5.1343    9.5139    7.7076 C.ar      1 RES1    0.0000
     43 H13        5.3785    9.9780    8.4995 H         1 RES1    0.0000
     44 C24        5.2779    8.1469    7.6554 C.ar      1 RES1    0.0000
     45 H14        5.6441    7.6860    8.4011 H         1 RES1    0.0000
     46 C25        4.9058    7.4516    6.5583 C.ar      1 RES1    0.0000
     47 H15        4.9880    6.5054    6.5334 H         1 RES1    0.0000
     48 C26        4.4169    8.1250    5.4990 C.ar      1 RES1    0.0000
     49 H16        4.1539    7.6514    4.7193 H         1 RES1    0.0000
     50 C27        4.2942    9.5082    5.5413 C.ar      1 RES1    0.0000
     51 H17        3.9564    9.9685    4.7831 H         1 RES1    0.0000
@<TRIPOS>BOND
     1    1   26 2
     2    2   25 2
     3    3    7 2
     4    4    7 2
     5    5    8 1
     6    6   25 1
     7    7   32 1
     8    8    9 ar
     9    9   10 1
    10   11    9 ar
    11   12   11 1
    12   13   11 ar
    13   14   13 1
    14   15   13 ar
    15   16   15 1
    16   17    8 ar
    17   18   17 1
    18   19    5 1
    19   20   19 ar
    20   21   20 1
    21   22   20 ar
    22   23   22 ar
    23   24   18 ar
    24   25   22 1
    25   26    6 1
    26   27    6 1
    27   28   27 ar
    28   29   28 1
    29   30   28 ar
    30   31   30 1
    31   32   30 ar
    32   33   32 ar
    33   34   33 1
    34   35   27 ar
    35   36   35 1
    36   37    5 1
    37   38   37 1
    38   39   37 1
    39   40   37 1
    40   41   24 1
    41   42   41 ar
    42   43   42 1
    43   44   42 ar
    44   45   44 1
    45   46   44 ar
    46   47   46 1
    47   48   46 ar
    48   49   48 1
    49   50   41 ar
    50   51   50 1
    51   15   17 ar
    52   18   19 ar
    53   23   24 ar
    54   23   26 1
    55   33   35 ar
    56   48   50 ar
@<TRIPOS>SUBSTRUCTURE
     1 RES1 1

@<TRIPOS>CRYSIN
   7.9873   15.7630   17.2684  90.0000  91.6320  90.0000  14 1

