# MOL2 file generated by ConQuest
# Please check atom types

@<TRIPOS>MOLECULE
PUVPED
    26    26     1
SMALL
NO_CHARGES
****
Generated from CSD

@<TRIPOS>ATOM
      1 H1        -1.2265    0.0624    5.3836 H         1 RES1    0.0000
      2 H2        -2.2945    0.5792    3.3487 H         1 RES1    0.0000
      3 H3         2.0586   -2.2899    3.7608 H         1 RES1    0.0000
      4 H4        -0.8031   -1.7108    6.5857 H         1 RES1    0.0000
      5 H5        -4.0815    2.8869    1.0304 H         1 RES1    0.0000
      6 H6         0.2260   -3.3324    7.9938 H         1 RES1    0.0000
      7 H7         2.9915   -4.0274    5.0573 H         1 RES1    0.0000
      8 C1         0.6038   -3.0598    7.0459 C.ar      1 RES1    0.0000
      9 C2        -0.0379   -2.1313    6.2405 C.ar      1 RES1    0.0000
     10 C3         0.4821   -1.8377    5.0062 C.ar      1 RES1    0.0000
     11 C4         1.6213   -2.5064    4.6166 C.ar      1 RES1    0.0000
     12 C5         2.1956   -3.4046    5.4969 C.ar      1 RES1    0.0000
     13 C6        -0.1254   -0.8413    4.0721 C.2       1 RES1    0.0000
     14 C7        -1.2081    2.1739    3.7965 C.2       1 RES1    0.0000
     15 C8        -1.5787    4.5424    2.8403 C.3       1 RES1    0.0000
     16 H8        -2.1486    5.0022    2.2196 H         1 RES1    0.0000
     17 H9        -0.6651    4.6217    2.5536 H         1 RES1    0.0000
     18 H10       -1.6750    4.9318    3.7119 H         1 RES1    0.0000
     19 C9        -1.9610    3.1004    2.8932 C.2       1 RES1    0.0000
     20 N1         1.7140   -3.6893    6.6834 N.ar      1 RES1    0.0000
     21 N2        -1.0313   -0.0205    4.6209 N.am      1 RES1    0.0000
     22 N3        -1.6674    0.9267    3.8294 N.am      1 RES1    0.0000
     23 N4        -2.8863    2.5470    2.2220 N.2       1 RES1    0.0000
     24 O1         0.1754   -0.8031    2.8909 O.2       1 RES1    0.0000
     25 O2        -0.2493    2.5714    4.4459 O.2       1 RES1    0.0000
     26 O3        -3.5652    3.4193    1.3965 O.3       1 RES1    0.0000
@<TRIPOS>BOND
     1    1   21 1
     2    2   22 1
     3    3   11 1
     4    4    9 1
     5    5   26 1
     6    6    8 1
     7    7   12 1
     8    8    9 ar
     9    9   10 ar
    10   10   11 ar
    11   11   12 ar
    12   12   20 ar
    13   13   10 1
    14   14   19 1
    15   15   16 1
    16   17   15 1
    17   18   15 1
    18   19   15 1
    19   20    8 ar
    20   21   13 1
    21   22   14 1
    22   23   19 2
    23   24   13 2
    24   25   14 2
    25   26   23 1
    26   21   22 1
@<TRIPOS>SUBSTRUCTURE
     1 RES1 1

@<TRIPOS>CRYSIN
  14.3199    8.9102    9.4475  90.0000 114.6540  90.0000   9 1

