# MOL2 file generated by ConQuest
# Please check atom types

@<TRIPOS>MOLECULE
PUWDOC
    29    30     1
SMALL
USER_CHARGES
****
Generated from CSD

@<TRIPOS>ATOM
      1 N1         8.4615    0.2971   10.7801 N.pl3     1 RES1    1.0000
      2 O1         9.6083    0.8214   10.4638 O.2       1 RES1   -1.0000
      3 O2         3.2532    5.5712   12.9404 O.3       1 RES1    0.0000
      4 C1         8.3301   -1.0467   10.8613 C.ar      1 RES1    0.0000
      5 H1         9.0655   -1.5860   10.6757 H         1 RES1    0.0000
      6 C2         7.3864    1.1017   11.0409 C.ar      1 RES1    0.0000
      7 C3         6.1945    0.5162   11.3694 C.ar      1 RES1    0.0000
      8 H2         5.4579    1.0591   11.5381 H         1 RES1    0.0000
      9 C4         6.5011    3.4185   11.4839 C.ar      1 RES1    0.0000
     10 C5         4.3615    4.8643   12.5300 C.ar      1 RES1    0.0000
     11 C6         5.4260    3.7848   10.6926 C.ar      1 RES1    0.0000
     12 H3         5.4167    3.5382    9.7964 H         1 RES1    0.0000
     13 C7         7.1502   -1.6268   11.2044 C.ar      1 RES1    0.0000
     14 H4         7.0878   -2.5519   11.2700 H         1 RES1    0.0000
     15 C8         6.4706    3.8008   12.8131 C.ar      1 RES1    0.0000
     16 H5         7.1780    3.5640   13.3699 H         1 RES1    0.0000
     17 C9         5.4127    4.5299   13.3362 C.ar      1 RES1    0.0000
     18 H6         5.4180    4.7880   14.2286 H         1 RES1    0.0000
     19 C10        7.6373    2.5812   10.9494 C.3       1 RES1    0.0000
     20 H7         7.7913    2.8162   10.0195 H         1 RES1    0.0000
     21 H8         8.4443    2.7932   11.4444 H         1 RES1    0.0000
     22 C11        6.0485   -0.8453   11.4575 C.ar      1 RES1    0.0000
     23 H9         5.2296   -1.2276   11.6825 H         1 RES1    0.0000
     24 C12        4.3681    4.5051   11.2007 C.ar      1 RES1    0.0000
     25 H10        3.6607    4.7490   10.6476 H         1 RES1    0.0000
     26 C13        3.1138    5.8711   14.3111 C.3       1 RES1    0.0000
     27 H11        3.1776    5.0612   14.8230 H         1 RES1    0.0000
     28 H12        2.2577    6.2791   14.4630 H         1 RES1    0.0000
     29 H13        3.8094    6.4751   14.5792 H         1 RES1    0.0000
@<TRIPOS>BOND
     1    1    2 1
     2    3   10 1
     3    4    1 ar
     4    5    4 1
     5    6    1 ar
     6    7    6 ar
     7    8    7 1
     8    9   11 ar
     9   10   17 ar
    10   11   12 1
    11   13    4 ar
    12   14   13 1
    13   15    9 ar
    14   16   15 1
    15   17   15 ar
    16   18   17 1
    17   19    6 1
    18   20   19 1
    19   21   19 1
    20   22    7 ar
    21   23   22 1
    22   24   10 ar
    23   25   24 1
    24   26    3 1
    25   27   26 1
    26   28   26 1
    27   29   26 1
    28    9   19 1
    29   11   24 ar
    30   13   22 ar
@<TRIPOS>SUBSTRUCTURE
     1 RES1 1

@<TRIPOS>CRYSIN
  13.2730    8.8700   18.7490  90.0000  90.0000  90.0000  61 1

