# MOL2 file generated by ConQuest
# Please check atom types

@<TRIPOS>MOLECULE
PUWGET
    36    37     1
SMALL
NO_CHARGES
****
Generated from CSD

@<TRIPOS>ATOM
      1 O1         3.3183    2.0201    4.5607 O.2       1 RES1    0.0000
      2 O2         3.5421   -0.1629    4.7273 O.3       1 RES1    0.0000
      3 O3         4.8886    0.8000    0.7827 O.2       1 RES1    0.0000
      4 O4         2.9518    0.9549    1.7379 O.2       1 RES1    0.0000
      5 N1         7.0114    0.4877    2.2759 N.3       1 RES1    0.0000
      6 N2         4.1902    0.8783    1.8087 N.pl3     1 RES1    0.0000
      7 C1         4.7878    0.8721    3.0764 C.2       1 RES1    0.0000
      8 C2         6.1431    0.7066    3.2591 C.2       1 RES1    0.0000
      9 C3         6.6358    0.7671    4.6654 C.ar      1 RES1    0.0000
     10 C4         7.1945   -0.3568    5.2432 C.ar      1 RES1    0.0000
     11 C5         7.6342   -0.3026    6.5507 C.ar      1 RES1    0.0000
     12 C6         7.5735    0.8632    7.2524 C.ar      1 RES1    0.0000
     13 C7         7.0417    1.9818    6.6966 C.ar      1 RES1    0.0000
     14 C8         6.5630    1.9462    5.3936 C.ar      1 RES1    0.0000
     15 C9         8.4331    0.3711    2.3541 C.ar      1 RES1    0.0000
     16 C10        9.0513   -0.6212    1.6333 C.ar      1 RES1    0.0000
     17 C11       10.4213   -0.6941    1.6038 C.ar      1 RES1    0.0000
     18 C12       11.1842    0.2038    2.3010 C.ar      1 RES1    0.0000
     19 C13       10.5749    1.2120    3.0189 C.ar      1 RES1    0.0000
     20 C14        9.1970    1.2939    3.0395 C.ar      1 RES1    0.0000
     21 C15        3.8122    1.0074    4.1907 C.2       1 RES1    0.0000
     22 C16        2.5468   -0.1602    5.7783 C.3       1 RES1    0.0000
     23 H1         6.7257   -0.1370    1.5478 H         1 RES1    0.0000
     24 H2         7.2761   -1.1613    4.7450 H         1 RES1    0.0000
     25 H3         7.9820   -1.0839    6.9649 H         1 RES1    0.0000
     26 H4         7.9071    0.9006    8.1412 H         1 RES1    0.0000
     27 H5         6.9963    2.7898    7.1963 H         1 RES1    0.0000
     28 H6         6.1844    2.7258    5.0029 H         1 RES1    0.0000
     29 H7         8.5315   -1.2583    1.1557 H         1 RES1    0.0000
     30 H8        10.8457   -1.3722    1.0923 H         1 RES1    0.0000
     31 H9        12.1326    0.1308    2.2922 H         1 RES1    0.0000
     32 H10       11.0981    1.8457    3.4965 H         1 RES1    0.0000
     33 H11        8.7714    1.9907    3.5274 H         1 RES1    0.0000
     34 H12        2.8445    0.3889    6.4962 H         1 RES1    0.0000
     35 H13        1.7271    0.1798    5.4407 H         1 RES1    0.0000
     36 H14        2.4162   -1.0465    6.0952 H         1 RES1    0.0000
@<TRIPOS>BOND
     1    1   21 2
     2    2   21 1
     3    3    6 2
     4    4    6 2
     5    5    8 1
     6    6    7 1
     7    7    8 2
     8    8    9 1
     9    9   10 ar
    10   10   11 ar
    11   11   12 ar
    12   12   13 ar
    13   13   14 ar
    14   14    9 ar
    15   15    5 1
    16   16   15 ar
    17   17   16 ar
    18   18   17 ar
    19   19   18 ar
    20   20   15 ar
    21   21    7 1
    22   22    2 1
    23   23    5 1
    24   24   10 1
    25   25   11 1
    26   26   12 1
    27   27   13 1
    28   28   14 1
    29   29   16 1
    30   30   17 1
    31   31   18 1
    32   32   19 1
    33   33   20 1
    34   34   22 1
    35   35   22 1
    36   36   22 1
    37   19   20 ar
@<TRIPOS>SUBSTRUCTURE
     1 RES1 1

@<TRIPOS>CRYSIN
  11.4520    8.8990   15.3300  90.0000 105.9400  90.0000  14 1

