# MOL2 file generated by ConQuest
# Please check atom types

@<TRIPOS>MOLECULE
PUWQUT
    71    73     1
SMALL
NO_CHARGES
****
Generated from CSD

@<TRIPOS>ATOM
      1 O1        -0.5947    3.0236    5.8174 O.2       1 RES1    0.0000
      2 O2        -0.0207    5.7643    5.5122 O.3       1 RES1    0.0000
      3 O3         3.4678    3.3699    3.5698 O.3       1 RES1    0.0000
      4 O4         2.6437    3.5401    1.0763 O.2       1 RES1    0.0000
      5 O5         0.5232    3.0810    1.7148 O.3       1 RES1    0.0000
      6 N1         0.3607    7.1178    5.1790 N.3       1 RES1    0.0000
      7 N2         0.1763    2.9346    0.2912 N.3       1 RES1    0.0000
      8 C1         0.2731    3.3996    5.0905 C.2       1 RES1    0.0000
      9 C2         0.6419    4.8204    4.8080 C.2       1 RES1    0.0000
     10 C3         1.5962    4.8916    3.8826 C.2       1 RES1    0.0000
     11 C4         2.0583    3.5223    3.4437 C.3       1 RES1    0.0000
     12 C5         1.2343    2.5448    4.2957 C.3       1 RES1    0.0000
     13 C6        -0.8517    7.8084    4.6699 C.3       1 RES1    0.0000
     14 C7        -0.4610    9.2668    4.4445 C.3       1 RES1    0.0000
     15 C8         0.1152    9.9416    5.6438 C.3       1 RES1    0.0000
     16 C9         1.3322    9.1481    6.1043 C.3       1 RES1    0.0000
     17 C10        1.0372    7.6818    6.4106 C.3       1 RES1    0.0000
     18 C11       -2.0825    7.6956    5.5985 C.3       1 RES1    0.0000
     19 C12       -1.1409    7.1475    3.3261 C.3       1 RES1    0.0000
     20 C13        0.2443    7.5334    7.6940 C.3       1 RES1    0.0000
     21 C14        2.3833    6.9298    6.5336 C.3       1 RES1    0.0000
     22 C15        1.8232    3.3739    1.9240 C.2       1 RES1    0.0000
     23 C16       -0.2167    1.5158    0.1025 C.3       1 RES1    0.0000
     24 C17       -0.6730    1.4030   -1.3719 C.3       1 RES1    0.0000
     25 C18       -1.7483    2.4161   -1.7450 C.3       1 RES1    0.0000
     26 C19       -1.2251    3.8310   -1.4700 C.3       1 RES1    0.0000
     27 C20       -0.7837    4.0467   -0.0086 C.3       1 RES1    0.0000
     28 C21        1.0291    0.6589    0.2977 C.3       1 RES1    0.0000
     29 C22       -1.3103    0.9993    1.0645 C.3       1 RES1    0.0000
     30 C23       -2.0018    4.1041    0.9426 C.3       1 RES1    0.0000
     31 C24        0.0115    5.3468    0.0733 C.3       1 RES1    0.0000
     32 H1         3.5842    3.3442    4.4014 H         1 RES1    0.0000
     33 H2         1.9454    5.7069    3.5396 H         1 RES1    0.0000
     34 H3         0.7410    1.9096    3.7176 H         1 RES1    0.0000
     35 H4         1.8243    2.0283    4.9018 H         1 RES1    0.0000
     36 H5         0.2005    9.3084    3.7090 H         1 RES1    0.0000
     37 H6        -1.2631    9.7675    4.1533 H         1 RES1    0.0000
     38 H7        -0.5578    9.9792    6.3685 H         1 RES1    0.0000
     39 H8         0.3815   10.8677    5.4173 H         1 RES1    0.0000
     40 H9         1.7022    9.5735    6.9175 H         1 RES1    0.0000
     41 H10        2.0260    9.1916    5.4000 H         1 RES1    0.0000
     42 H11       -2.0744    8.4357    6.2424 H         1 RES1    0.0000
     43 H12       -2.0525    6.8428    6.0795 H         1 RES1    0.0000
     44 H13       -2.9019    7.7392    5.0614 H         1 RES1    0.0000
     45 H14       -0.3365    7.1792    2.7674 H         1 RES1    0.0000
     46 H15       -1.8693    7.6264    2.8774 H         1 RES1    0.0000
     47 H16       -1.4025    6.2135    3.4706 H         1 RES1    0.0000
     48 H17       -0.4644    8.2081    7.7199 H         1 RES1    0.0000
     49 H18        0.8413    7.6541    8.4619 H         1 RES1    0.0000
     50 H19       -0.1544    6.6389    7.7296 H         1 RES1    0.0000
     51 H20        2.2150    5.9978    6.7848 H         1 RES1    0.0000
     52 H21        2.9353    7.3592    7.2195 H         1 RES1    0.0000
     53 H22        2.8523    6.9575    5.6729 H         1 RES1    0.0000
     54 H23        0.1106    1.5336   -1.9618 H         1 RES1    0.0000
     55 H24       -1.0222    0.4907   -1.5315 H         1 RES1    0.0000
     56 H25       -2.5654    2.2499   -1.2112 H         1 RES1    0.0000
     57 H26       -1.9788    2.3231   -2.7027 H         1 RES1    0.0000
     58 H27       -1.9361    4.4840   -1.6900 H         1 RES1    0.0000
     59 H28       -0.4564    4.0111   -2.0675 H         1 RES1    0.0000
     60 H29        1.3634    0.7698    1.2112 H         1 RES1    0.0000
     61 H30        1.7206    0.9380   -0.3397 H         1 RES1    0.0000
     62 H31        0.8056   -0.2830    0.1424 H         1 RES1    0.0000
     63 H32       -1.0787    1.2427    1.9844 H         1 RES1    0.0000
     64 H33       -1.3749    0.0237    0.9911 H         1 RES1    0.0000
     65 H34       -2.1712    1.4010    0.8261 H         1 RES1    0.0000
     66 H35       -1.7068    3.9398    1.8626 H         1 RES1    0.0000
     67 H36       -2.6518    3.4194    0.6816 H         1 RES1    0.0000
     68 H37       -2.4202    4.9886    0.8854 H         1 RES1    0.0000
     69 H38        0.8217    5.2676   -0.4745 H         1 RES1    0.0000
     70 H39        0.2628    5.5170    1.0052 H         1 RES1    0.0000
     71 H40       -0.5370    6.0869   -0.2588 H         1 RES1    0.0000
@<TRIPOS>BOND
     1    1    8 2
     2    2    6 1
     3    3   11 1
     4    4   22 2
     5    5    7 1
     6    6   13 1
     7    7   23 1
     8    8    9 1
     9    9    2 1
    10   10    9 2
    11   11   10 1
    12   12    8 1
    13   13   14 1
    14   14   15 1
    15   15   16 1
    16   16   17 1
    17   17    6 1
    18   18   13 1
    19   19   13 1
    20   20   17 1
    21   21   17 1
    22   22    5 1
    23   23   24 1
    24   24   25 1
    25   25   26 1
    26   26   27 1
    27   27    7 1
    28   28   23 1
    29   29   23 1
    30   30   27 1
    31   31   27 1
    32   32    3 1
    33   33   10 1
    34   34   12 1
    35   35   12 1
    36   36   14 1
    37   37   14 1
    38   38   15 1
    39   39   15 1
    40   40   16 1
    41   41   16 1
    42   42   18 1
    43   43   18 1
    44   44   18 1
    45   45   19 1
    46   46   19 1
    47   47   19 1
    48   48   20 1
    49   49   20 1
    50   50   20 1
    51   51   21 1
    52   52   21 1
    53   53   21 1
    54   54   24 1
    55   55   24 1
    56   56   25 1
    57   57   25 1
    58   58   26 1
    59   59   26 1
    60   60   28 1
    61   61   28 1
    62   62   28 1
    63   63   29 1
    64   64   29 1
    65   65   29 1
    66   66   30 1
    67   67   30 1
    68   68   30 1
    69   69   31 1
    70   70   31 1
    71   71   31 1
    72   11   12 1
    73   11   22 1
@<TRIPOS>SUBSTRUCTURE
     1 RES1 1

@<TRIPOS>CRYSIN
  11.5246   19.7882   10.7850  90.0000  90.0000  90.0000  29 1

