# MOL2 file generated by ConQuest
# Please check atom types

@<TRIPOS>MOLECULE
PUXQUW
    40    41     1
SMALL
NO_CHARGES
****
Generated from CSD

@<TRIPOS>ATOM
      1 N1         2.4929    9.1302    0.6464 N.pl3     1 RES1    0.0000
      2 H1         2.5810    8.6170    1.3306 H         1 RES1    0.0000
      3 O1        -1.8919    6.8094   -3.2282 O.2       1 RES1    0.0000
      4 O2         7.0054   11.5065    4.1027 O.2       1 RES1    0.0000
      5 O3         3.7896    8.6012    2.8026 O.2       1 RES1    0.0000
      6 N2         5.4016   10.0393    3.4575 N.am      1 RES1    0.0000
      7 C1         1.6244    8.7569   -0.4073 C.ar      1 RES1    0.0000
      8 N3        -0.8845    7.4493   -3.4990 N.pl3     1 RES1    0.0000
      9 O4        -0.5242    7.6829   -4.6454 O.2       1 RES1    0.0000
     10 C2         5.6411   12.1556    2.2989 C.2       1 RES1    0.0000
     11 C3         4.9550    9.5129    5.8174 C.3       1 RES1    0.0000
     12 H2         5.2232   10.3850    6.1198 H         1 RES1    0.0000
     13 H3         5.1203    8.8703    6.5101 H         1 RES1    0.0000
     14 H4         4.0190    9.5221    5.6052 H         1 RES1    0.0000
     15 C4         5.7347    9.1461    4.6002 C.3       1 RES1    0.0000
     16 H5         6.6850    9.2121    4.7942 H         1 RES1    0.0000
     17 H6         5.5435    8.2278    4.3588 H         1 RES1    0.0000
     18 C5         4.3799    9.6686    2.6184 C.2       1 RES1    0.0000
     19 C6         4.0420   10.5539    1.5050 C.2       1 RES1    0.0000
     20 N4         3.1572   10.2531    0.5805 N.2       1 RES1    0.0000
     21 C7         1.6530    9.4166   -1.6281 C.ar      1 RES1    0.0000
     22 H7         2.2251   10.1383   -1.7611 H         1 RES1    0.0000
     23 C8         0.8218    8.9864   -2.6404 C.ar      1 RES1    0.0000
     24 H8         0.8378    9.3994   -3.4734 H         1 RES1    0.0000
     25 C9        -0.0334    7.9375   -2.3989 C.ar      1 RES1    0.0000
     26 C10        4.6850   11.8522    1.3891 C.2       1 RES1    0.0000
     27 C11        6.2923   13.4394    2.3123 C.1       1 RES1    0.0000
     28 N5         6.7938   14.4567    2.3404 N.1       1 RES1    0.0000
     29 C12        6.0876   11.2466    3.3490 C.2       1 RES1    0.0000
     30 C13        4.3060   12.7876    0.2866 C.3       1 RES1    0.0000
     31 H9         4.3944   13.7020    0.6013 H         1 RES1    0.0000
     32 H10        3.3746   12.6438    0.0524 H         1 RES1    0.0000
     33 C14        5.1510   12.6003   -0.9391 C.3       1 RES1    0.0000
     34 H11        6.0764   12.7335   -0.7074 H         1 RES1    0.0000
     35 H12        4.8964   13.2468   -1.6025 H         1 RES1    0.0000
     36 H13        5.0289   11.7176   -1.2818 H         1 RES1    0.0000
     37 C15        0.7472    7.7000   -0.1817 C.ar      1 RES1    0.0000
     38 H14        0.7377    7.2686    0.6415 H         1 RES1    0.0000
     39 C16       -0.1003    7.3002   -1.1842 C.ar      1 RES1    0.0000
     40 H15       -0.7050    6.6089   -1.0440 H         1 RES1    0.0000
@<TRIPOS>BOND
     1    1    2 1
     2    3    8 2
     3    4   29 2
     4    5   18 2
     5    6   15 1
     6    7    1 1
     7    8    9 2
     8   10   26 2
     9   11   12 1
    10   13   11 1
    11   14   11 1
    12   15   11 1
    13   16   15 1
    14   17   15 1
    15   18    6 1
    16   19   18 1
    17   20    1 1
    18   21    7 ar
    19   22   21 1
    20   23   21 ar
    21   24   23 1
    22   25    8 1
    23   26   19 1
    24   27   10 1
    25   28   27 3
    26   29    6 1
    27   30   26 1
    28   31   30 1
    29   32   30 1
    30   33   30 1
    31   34   33 1
    32   35   33 1
    33   36   33 1
    34   37    7 ar
    35   38   37 1
    36   39   25 ar
    37   40   39 1
    38   10   29 1
    39   19   20 2
    40   23   25 ar
    41   37   39 ar
@<TRIPOS>SUBSTRUCTURE
     1 RES1 1

@<TRIPOS>CRYSIN
   4.9132   13.1940   12.3592  90.0000  99.3280  90.0000   7 1

