# MOL2 file generated by ConQuest
# Please check atom types

@<TRIPOS>MOLECULE
PYCALN
    89    93     1
SMALL
NO_CHARGES
****
Generated from CSD

@<TRIPOS>ATOM
      1 C1         4.2387   -4.3356    3.3770 C.3       1 RES1    0.0000
      2 C2         3.2246   -5.3859    2.8726 C.3       1 RES1    0.0000
      3 C3         1.4818   -4.1045    4.4297 C.3       1 RES1    0.0000
      4 C4         0.3048   -4.3187    5.4035 C.3       1 RES1    0.0000
      5 C5        -0.8740   -5.0478    4.7589 C.3       1 RES1    0.0000
      6 C6        -0.3258   -6.3721    4.1281 C.3       1 RES1    0.0000
      7 C7        -1.5772   -7.1542    3.7475 C.3       1 RES1    0.0000
      8 C8        -2.5700   -6.8251    4.8953 C.3       1 RES1    0.0000
      9 C9        -1.9364   -5.6711    5.7214 C.3       1 RES1    0.0000
     10 C10       -1.5513   -4.1699    3.7100 C.3       1 RES1    0.0000
     11 C11        3.8824   -6.8003    2.9152 C.3       1 RES1    0.0000
     12 C12        5.3869   -4.0459    2.3945 C.3       1 RES1    0.0000
     13 C13       -3.0084   -4.7514    6.3373 C.3       1 RES1    0.0000
     14 C14       -2.4301   -3.5737    7.1233 C.3       1 RES1    0.0000
     15 C15       -3.9209   -5.5516    7.2422 C.2       1 RES1    0.0000
     16 C16       -5.2243   -5.6158    7.1233 C.2       1 RES1    0.0000
     17 C17       -6.1832   -6.3428    8.0521 C.3       1 RES1    0.0000
     18 C18       -7.0620   -5.3566    8.8607 C.3       1 RES1    0.0000
     19 C19       -6.2209   -4.5181    9.8082 C.3       1 RES1    0.0000
     20 C20       -7.9131   -4.4460    7.9707 C.3       1 RES1    0.0000
     21 C21       -7.0336   -7.3514    7.2673 C.3       1 RES1    0.0000
     22 C22        4.8498   -3.6402    1.0414 C.3       1 RES1    0.0000
     23 C23        2.8458   -0.5229    0.6208 C.ar      1 RES1    0.0000
     24 C24        1.8867   -0.7528    1.5921 C.ar      1 RES1    0.0000
     25 C25        0.9108    0.2220    1.8062 C.ar      1 RES1    0.0000
     26 C26        0.8666    1.4031    1.0940 C.ar      1 RES1    0.0000
     27 C27        1.8533    1.5947    0.1540 C.ar      1 RES1    0.0000
     28 C28        2.8489    0.6728   -0.1101 C.ar      1 RES1    0.0000
     29 C29        3.9066   -1.5530    0.2829 C.2       1 RES1    0.0000
     30 C30        3.9437   -4.7075    0.4644 C.3       1 RES1    0.0000
     31 C31        2.8537   -5.1436    1.4157 C.2       1 RES1    0.0000
     32 C32        1.6466   -5.4817    0.9513 C.2       1 RES1    0.0000
     33 C33        0.6136   -6.0385    1.8137 C.2       1 RES1    0.0000
     34 C34        0.7564   -6.0644    3.1355 C.2       1 RES1    0.0000
     35 C35        1.9686   -5.4423    3.8076 C.3       1 RES1    0.0000
     36 H1         4.5883   -4.5193    4.2557 H         1 RES1    0.0000
     37 H2         3.7316   -3.5500    3.6424 H         1 RES1    0.0000
     38 H3         2.1892   -3.7529    4.9692 H         1 RES1    0.0000
     39 H4         1.2468   -3.4712    3.6799 H         1 RES1    0.0000
     40 H5         0.6391   -4.7672    6.2334 H         1 RES1    0.0000
     41 H6        -0.0018   -3.4261    5.7953 H         1 RES1    0.0000
     42 H7         0.0571   -6.8071    4.9567 H         1 RES1    0.0000
     43 H8        -1.9627   -6.8747    2.7662 H         1 RES1    0.0000
     44 H9        -1.4108   -7.9792    3.5798 H         1 RES1    0.0000
     45 H10       -3.4135   -6.5704    4.4685 H         1 RES1    0.0000
     46 H11       -2.8060   -7.5509    5.4949 H         1 RES1    0.0000
     47 H12       -1.4417   -5.9731    6.5088 H         1 RES1    0.0000
     48 H13       -1.0134   -3.9332    2.9415 H         1 RES1    0.0000
     49 H14       -1.9612   -3.2908    4.1306 H         1 RES1    0.0000
     50 H15       -2.4319   -4.4516    3.2794 H         1 RES1    0.0000
     51 H16        3.1241   -7.4495    2.6160 H         1 RES1    0.0000
     52 H17        4.6089   -6.9085    2.3031 H         1 RES1    0.0000
     53 H18        4.2725   -6.9536    3.8552 H         1 RES1    0.0000
     54 H19        6.0581   -3.4035    2.8163 H         1 RES1    0.0000
     55 H20       -3.5635   -4.4404    5.5199 H         1 RES1    0.0000
     56 H21       -1.7406   -3.7642    7.7980 H         1 RES1    0.0000
     57 H22       -1.9706   -2.9978    6.4837 H         1 RES1    0.0000
     58 H23       -3.1180   -3.0542    7.6102 H         1 RES1    0.0000
     59 H24       -3.5025   -5.9618    8.0233 H         1 RES1    0.0000
     60 H25       -5.5889   -5.2293    6.4086 H         1 RES1    0.0000
     61 H26       -5.6519   -6.7620    8.7117 H         1 RES1    0.0000
     62 H27       -7.7830   -5.8829    9.4752 H         1 RES1    0.0000
     63 H28       -5.7797   -5.1391   10.5642 H         1 RES1    0.0000
     64 H29       -6.8495   -3.8994   10.3264 H         1 RES1    0.0000
     65 H30       -5.5422   -4.0459    9.3626 H         1 RES1    0.0000
     66 H31       -7.2672   -3.8543    7.3474 H         1 RES1    0.0000
     67 H32       -8.5170   -4.8686    7.2973 H         1 RES1    0.0000
     68 H33       -8.4485   -3.8318    8.6742 H         1 RES1    0.0000
     69 H34       -7.6617   -7.8552    7.9357 H         1 RES1    0.0000
     70 H35       -7.6026   -6.9761    6.4962 H         1 RES1    0.0000
     71 H36       -6.4813   -8.0468    6.8217 H         1 RES1    0.0000
     72 H37        5.9695   -4.8010    2.1904 H         1 RES1    0.0000
     73 H38        5.5626   -3.4035    0.4131 H         1 RES1    0.0000
     74 H39        1.8399   -1.4989    2.1779 H         1 RES1    0.0000
     75 H40        0.1222    1.9046    1.2266 H         1 RES1    0.0000
     76 H41        3.5114    0.8227   -0.8261 H         1 RES1    0.0000
     77 H42        4.5520   -5.3871    0.1252 H         1 RES1    0.0000
     78 H43        3.5775   -4.4967   -0.4005 H         1 RES1    0.0000
     79 H44        1.4529   -5.4321    0.0501 H         1 RES1    0.0000
     80 H45       -0.1593   -6.2661    1.4144 H         1 RES1    0.0000
     81 H46        2.2338   -6.0294    4.5812 H         1 RES1    0.0000
     82 N1        -0.1454   -0.0552    2.7988 N.pl3     1 RES1    0.0000
     83 N2         1.8413    2.8592   -0.6484 N.pl3     1 RES1    0.0000
     84 O1        -1.1306    0.6818    2.8000 O.2       1 RES1    0.0000
     85 O2         4.5274   -1.5293   -0.7335 O.2       1 RES1    0.0000
     86 O3         4.0158   -2.4354    1.2805 O.3       1 RES1    0.0000
     87 O4         0.0281   -0.9884    3.5786 O.2       1 RES1    0.0000
     88 O5         2.8890    3.2266   -1.1328 O.2       1 RES1    0.0000
     89 O6         0.7451    3.4047   -0.7798 O.2       1 RES1    0.0000
@<TRIPOS>BOND
     1    1    2 1
     2    2   11 1
     3    3    4 1
     4    4    5 1
     5    5    6 1
     6    6    7 1
     7    7    8 1
     8    8    9 1
     9    9    5 1
    10   10    5 1
    11   11   51 1
    12   12    1 1
    13   13    9 1
    14   14   13 1
    15   15   13 1
    16   16   15 2
    17   17   16 1
    18   18   17 1
    19   19   18 1
    20   20   18 1
    21   21   17 1
    22   22   12 1
    23   23   24 ar
    24   24   25 ar
    25   25   26 ar
    26   26   27 ar
    27   27   28 ar
    28   28   23 ar
    29   29   23 1
    30   30   22 1
    31   31    2 1
    32   32   31 2
    33   33   32 1
    34   34    6 1
    35   35    2 1
    36   36    1 1
    37   37    1 1
    38   38    3 1
    39   39    3 1
    40   40    4 1
    41   41    4 1
    42   42    6 1
    43   43    7 1
    44   44    7 1
    45   45    8 1
    46   46    8 1
    47   47    9 1
    48   48   10 1
    49   49   10 1
    50   50   10 1
    51   52   11 1
    52   53   11 1
    53   54   12 1
    54   55   13 1
    55   56   14 1
    56   57   14 1
    57   58   14 1
    58   59   15 1
    59   60   16 1
    60   61   17 1
    61   62   18 1
    62   63   19 1
    63   64   19 1
    64   65   19 1
    65   66   20 1
    66   67   20 1
    67   68   20 1
    68   69   21 1
    69   70   21 1
    70   71   21 1
    71   72   12 1
    72   73   22 1
    73   74   24 1
    74   75   26 1
    75   76   28 1
    76   77   30 1
    77   78   30 1
    78   79   32 1
    79   80   33 1
    80   81   35 1
    81   82   25 1
    82   83   27 1
    83   84   82 2
    84   85   29 2
    85   86   22 1
    86   87   82 2
    87   88   83 2
    88   89   83 2
    89    3   35 1
    90   29   86 1
    91   30   31 1
    92   33   34 2
    93   34   35 1
@<TRIPOS>SUBSTRUCTURE
     1 RES1 1

@<TRIPOS>CRYSIN
  11.2850   11.2700   12.5370  90.0000  93.2500  90.0000   4 1

