# MOL2 file generated by ConQuest
# Please check atom types

@<TRIPOS>MOLECULE
PYMCOX
    14    14     1
SMALL
NO_CHARGES
****
Generated from CSD

@<TRIPOS>ATOM
      1 C1        -3.2521    1.4086   -5.2641 C.ar      1 RES1    0.0000
      2 C2        -3.8539    2.2629   -4.3655 C.ar      1 RES1    0.0000
      3 C3        -4.5909    3.5541   -6.0760 C.ar      1 RES1    0.0000
      4 C4        -3.3813    1.7099   -6.6157 C.ar      1 RES1    0.0000
      5 C5        -2.8084    0.8810   -7.6856 C.2       1 RES1    0.0000
      6 H1        -2.7880    0.5929   -4.9978 H         1 RES1    0.0000
      7 H2        -3.8420    2.1661   -3.4257 H         1 RES1    0.0000
      8 H3        -5.1425    4.3443   -6.4291 H         1 RES1    0.0000
      9 H4        -3.0855    1.1738   -8.6817 H         1 RES1    0.0000
     10 H5        -1.1985   -1.5126   -8.2828 H         1 RES1    0.0000
     11 N1        -4.5263    3.3556   -4.7573 N.ar      1 RES1    0.0000
     12 N2        -4.0613    2.7941   -7.0333 N.ar      1 RES1    0.0000
     13 N3        -2.0927   -0.1234   -7.3700 N.2       1 RES1    0.0000
     14 O1        -1.6524   -0.8265   -8.4881 O.3       1 RES1    0.0000
@<TRIPOS>BOND
     1    1    2 ar
     2    2    7 1
     3    3    8 1
     4    4    1 ar
     5    5    4 1
     6    6    1 1
     7    9    5 1
     8   10   14 1
     9   11    2 ar
    10   12    3 ar
    11   13    5 2
    12   14   13 1
    13    3   11 ar
    14    4   12 ar
@<TRIPOS>SUBSTRUCTURE
     1 RES1 1

@<TRIPOS>CRYSIN
   8.5000   12.1010   11.7320  90.0000  90.0000  90.0000  56 1

