# MOL2 file generated by ConQuest
# Please check atom types

@<TRIPOS>MOLECULE
PYRCOX
    15    15     1
SMALL
NO_CHARGES
****
Generated from CSD

@<TRIPOS>ATOM
      1 C1         5.1786    1.1448   -0.1292 C.ar      1 RES1    0.0000
      2 C2         6.3331    0.8341   -0.8001 C.ar      1 RES1    0.0000
      3 C3         7.5742    1.9678    0.7368 C.ar      1 RES1    0.0000
      4 C4         6.4670    2.3149    1.4596 C.ar      1 RES1    0.0000
      5 C5         5.2196    1.9209    0.9931 C.ar      1 RES1    0.0000
      6 C6         4.0100    2.3477    1.7088 C.2       1 RES1    0.0000
      7 H1         4.3470    0.7806   -0.4703 H         1 RES1    0.0000
      8 H2         6.3158    0.2676   -1.5731 H         1 RES1    0.0000
      9 H3         8.4420    2.3120    1.0001 H         1 RES1    0.0000
     10 H4         6.5363    2.9364    2.2273 H         1 RES1    0.0000
     11 H5         4.0477    2.6911    2.5841 H         1 RES1    0.0000
     12 H6         1.2915    2.7060    1.3299 H         1 RES1    0.0000
     13 N1         7.5348    1.2563   -0.3849 N.ar      1 RES1    0.0000
     14 N2         2.8681    2.2183    1.1536 N.2       1 RES1    0.0000
     15 O1         1.8554    2.6971    1.9748 O.3       1 RES1    0.0000
@<TRIPOS>BOND
     1    1    2 ar
     2    2    8 1
     3    3    4 ar
     4    4    5 ar
     5    5    1 ar
     6    6    5 1
     7    7    1 1
     8    9    3 1
     9   10    4 1
    10   11    6 1
    11   12   15 1
    12   13    2 ar
    13   14    6 2
    14   15   14 1
    15    3   13 ar
@<TRIPOS>SUBSTRUCTURE
     1 RES1 1

@<TRIPOS>CRYSIN
  15.7500    7.4340    5.4060  90.0000  90.0000  90.0000  19 1

