# MOL2 file generated by ConQuest
# Please check atom types

@<TRIPOS>MOLECULE
PYRCOX01
    15    15     1
SMALL
NO_CHARGES
****
Generated from CSD

@<TRIPOS>ATOM
      1 C1         5.1898    7.0199    9.1597 C.ar      1 RES1    0.0000
      2 C2         5.6704    6.6037   10.3987 C.ar      1 RES1    0.0000
      3 H1         6.4766    6.1449   10.4651 H         1 RES1    0.0000
      4 C3         4.9253    6.8878   11.5318 C.ar      1 RES1    0.0000
      5 H2         5.2466    6.5867   12.3504 H         1 RES1    0.0000
      6 N1         3.7773    7.5647   11.5223 N.ar      1 RES1    0.0000
      7 C4         3.3166    7.9880   10.3165 C.ar      1 RES1    0.0000
      8 H3         2.5197    8.4659   10.2865 H         1 RES1    0.0000
      9 C5         3.9840    7.7387    9.1328 C.ar      1 RES1    0.0000
     10 H4         3.6373    8.0434    8.3253 H         1 RES1    0.0000
     11 C6         5.8914    6.6598    7.9428 C.2       1 RES1    0.0000
     12 H5         6.7621    6.3367    7.9887 H         1 RES1    0.0000
     13 N2         5.3232    6.7848    6.8145 N.2       1 RES1    0.0000
     14 O1         6.1239    6.4013    5.7367 O.3       1 RES1    0.0000
     15 H6         6.8365    6.1087    6.0164 H         1 RES1    0.0000
@<TRIPOS>BOND
     1    1    2 ar
     2    2    3 1
     3    4    2 ar
     4    5    4 1
     5    6    4 ar
     6    7    6 ar
     7    8    7 1
     8    9    1 ar
     9   10    9 1
    10   11    1 1
    11   12   11 1
    12   13   11 2
    13   14   13 1
    14   15   14 1
    15    7    9 ar
@<TRIPOS>SUBSTRUCTURE
     1 RES1 1

@<TRIPOS>CRYSIN
   5.5111    7.1023   15.8035  90.0000  90.0000  90.0000  19 1

