# MOL2 file generated by ConQuest
# Please check atom types

@<TRIPOS>MOLECULE
PYRDNO19
    12    12     1
SMALL
USER_CHARGES
****
Generated from CSD

@<TRIPOS>ATOM
      1 O1         0.9982    0.9982    0.0000 O.2       1 RES1   -1.0000
      2 N1         0.0755    0.0755    0.0000 N.pl3     1 RES1    1.0000
      3 C1         0.2191   -1.0440    0.7539 C.ar      1 RES1    0.0000
      4 C2        -0.7294   -2.0143    0.7495 C.ar      1 RES1    0.0000
      5 C3        -1.8729   -1.8729    0.0000 C.ar      1 RES1    0.0000
      6 H1         1.0507   -0.9557    1.3306 H         1 RES1    0.0000
      7 H2        -0.5701   -2.7666    1.2602 H         1 RES1    0.0000
      8 H3        -2.4536   -2.4536    0.0000 H         1 RES1    0.0000
      9 C1F       -1.0440    0.2191   -0.7539 C.ar      1 RES1    0.0000
     10 C2F       -2.0143   -0.7294   -0.7495 C.ar      1 RES1    0.0000
     11 H1F       -0.9557    1.0507   -1.3306 H         1 RES1    0.0000
     12 H2F       -2.7666   -0.5701   -1.2602 H         1 RES1    0.0000
@<TRIPOS>BOND
     1    1    2 1
     2    2    3 ar
     3    3    4 ar
     4    4    5 ar
     5    5    8 1
     6    6    3 1
     7    7    4 1
     8    9    2 ar
     9   10    5 ar
    10   11    9 1
    11   12   10 1
    12    9   10 ar
@<TRIPOS>SUBSTRUCTURE
     1 RES1 1

@<TRIPOS>CRYSIN
   5.5890    5.5890   13.5500  90.0000  90.0000  90.0000  92 1

