# MOL2 file generated by ConQuest
# Please check atom types

@<TRIPOS>MOLECULE
PYRDNO18
    12    12     1
SMALL
USER_CHARGES
****
Generated from CSD

@<TRIPOS>ATOM
      1 O1         0.9929    0.9929    0.0000 O.2       1 RES1   -1.0000
      2 N1         0.0611    0.0611    0.0000 N.pl3     1 RES1    1.0000
      3 C1         0.2185   -1.0546    0.7467 C.ar      1 RES1    0.0000
      4 H1         0.9827   -1.1588    1.2658 H         1 RES1    0.0000
      5 C2        -0.7427   -2.0356    0.7439 C.ar      1 RES1    0.0000
      6 H2        -0.6182   -2.8066    1.2481 H         1 RES1    0.0000
      7 C3        -1.8856   -1.8856    0.0000 C.ar      1 RES1    0.0000
      8 H3        -2.5428   -2.5428    0.0000 H         1 RES1    0.0000
      9 C1F       -1.0546    0.2185   -0.7467 C.ar      1 RES1    0.0000
     10 H1F       -1.1588    0.9827   -1.2658 H         1 RES1    0.0000
     11 C2F       -2.0356   -0.7427   -0.7439 C.ar      1 RES1    0.0000
     12 H2F       -2.8066   -0.6182   -1.2481 H         1 RES1    0.0000
@<TRIPOS>BOND
     1    1    2 1
     2    2    3 ar
     3    3    4 1
     4    5    3 ar
     5    6    5 1
     6    7    5 ar
     7    8    7 1
     8    9    2 ar
     9   10    9 1
    10   11    7 ar
    11   12   11 1
    12    9   11 ar
@<TRIPOS>SUBSTRUCTURE
     1 RES1 1

@<TRIPOS>CRYSIN
   5.6608    5.6608   13.6250  90.0000  90.0000  90.0000  92 1

