# MOL2 file generated by ConQuest
# Please check atom types

@<TRIPOS>MOLECULE
PYRDNO21
    12    12     1
SMALL
USER_CHARGES
****
Generated from CSD

@<TRIPOS>ATOM
      1 O1         0.9622    0.9622    0.0000 O.2       1 RES1   -1.0000
      2 N1         0.0390    0.0390    0.0000 N.pl3     1 RES1    1.0000
      3 C1         0.2111   -1.0963    0.7427 C.ar      1 RES1    0.0000
      4 C2        -0.7653   -2.0453    0.7334 C.ar      1 RES1    0.0000
      5 C3        -1.9248   -1.9248    0.0000 C.ar      1 RES1    0.0000
      6 H1         1.0611   -1.0446    1.3334 H         1 RES1    0.0000
      7 H2        -0.5003   -2.7985    1.2801 H         1 RES1    0.0000
      8 H3        -2.5676   -2.5676    0.0000 H         1 RES1    0.0000
      9 C1F       -1.0963    0.2111   -0.7427 C.ar      1 RES1    0.0000
     10 C2F       -2.0453   -0.7653   -0.7334 C.ar      1 RES1    0.0000
     11 H1F       -1.0446    1.0611   -1.3334 H         1 RES1    0.0000
     12 H2F       -2.7985   -0.5003   -1.2801 H         1 RES1    0.0000
@<TRIPOS>BOND
     1    1    2 1
     2    2    3 ar
     3    3    4 ar
     4    4    5 ar
     5    5    8 1
     6    6    3 1
     7    7    4 1
     8    9    2 ar
     9   10    5 ar
    10   11    9 1
    11   12   10 1
    12    9   10 ar
@<TRIPOS>SUBSTRUCTURE
     1 RES1 1

@<TRIPOS>CRYSIN
   5.4980    5.4980   13.3340  90.0000  90.0000  90.0000  92 1

