# MOL2 file generated by ConQuest
# Please check atom types

@<TRIPOS>MOLECULE
QABCED
    26    26     1
SMALL
NO_CHARGES
****
Generated from CSD

@<TRIPOS>ATOM
      1 N1         1.4834    6.8301    6.3595 N.pl3     1 RES1    0.0000
      2 N2         1.6692   -0.4166    3.7143 N.1       1 RES1    0.0000
      3 O1         2.7270    6.8176    5.9995 O.2       1 RES1    0.0000
      4 O2         0.9686    9.0976    4.8452 O.2       1 RES1    0.0000
      5 O3         1.1735   10.3700    6.6759 O.3       1 RES1    0.0000
      6 C1         0.6481    5.8440    6.2102 C.2       1 RES1    0.0000
      7 H1        -0.2241    5.9922    6.4984 H         1 RES1    0.0000
      8 C2         1.0550    8.0681    7.0140 C.3       1 RES1    0.0000
      9 H2         1.6512    8.2694    7.7531 H         1 RES1    0.0000
     10 H3         0.1605    7.9541    7.3709 H         1 RES1    0.0000
     11 C3         1.0664    9.2055    6.0349 C.2       1 RES1    0.0000
     12 C4         1.1195   11.5523    5.8517 C.3       1 RES1    0.0000
     13 H4         1.2087   12.3328    6.4044 H         1 RES1    0.0000
     14 H5         0.2782   11.5829    5.3898 H         1 RES1    0.0000
     15 H6         1.8354   11.5296    5.2121 H         1 RES1    0.0000
     16 C5         0.9278    4.5462    5.6456 C.ar      1 RES1    0.0000
     17 C6         2.0833    4.2149    4.9239 C.ar      1 RES1    0.0000
     18 H7         2.7422    4.8565    4.7842 H         1 RES1    0.0000
     19 C7         2.2475    2.9433    4.4218 C.ar      1 RES1    0.0000
     20 H8         3.0052    2.7363    3.9243 H         1 RES1    0.0000
     21 C8         1.2834    1.9633    4.6555 C.ar      1 RES1    0.0000
     22 C9         0.1341    2.2734    5.3653 C.ar      1 RES1    0.0000
     23 H9        -0.5127    1.6222    5.5185 H         1 RES1    0.0000
     24 C10        1.4936    0.6294    4.1304 C.1       1 RES1    0.0000
     25 C11       -0.0423    3.5532    5.8407 C.ar      1 RES1    0.0000
     26 H10       -0.8223    3.7640    6.3026 H         1 RES1    0.0000
@<TRIPOS>BOND
     1    1    3 1
     2    2   24 3
     3    4   11 2
     4    5   11 1
     5    6    1 2
     6    7    6 1
     7    8    1 1
     8    9    8 1
     9   10    8 1
    10   11    8 1
    11   12    5 1
    12   13   12 1
    13   14   12 1
    14   15   12 1
    15   16    6 1
    16   17   16 ar
    17   18   17 1
    18   19   17 ar
    19   20   19 1
    20   21   19 ar
    21   22   21 ar
    22   23   22 1
    23   24   21 1
    24   25   16 ar
    25   26   25 1
    26   22   25 ar
@<TRIPOS>SUBSTRUCTURE
     1 RES1 1

@<TRIPOS>CRYSIN
   9.4950   14.3940    7.8960  90.0000  90.0000  90.0000  29 1

