# MOL2 file generated by ConQuest
# Please check atom types

@<TRIPOS>MOLECULE
QABDUU
    42    43     1
SMALL
NO_CHARGES
****
Generated from CSD

@<TRIPOS>ATOM
      1 O1         1.2980    1.3808    4.6262 O.3       1 RES1    0.0000
      2 O2        -3.0143   -1.0820    2.9711 O.3       1 RES1    0.0000
      3 O3        -2.8036    1.9647    4.6338 O.2       1 RES1    0.0000
      4 C1        -0.9317    0.6685    4.8503 C.2       1 RES1    0.0000
      5 H1        -0.5795   -0.1620    5.0775 H         1 RES1    0.0000
      6 N1        -2.2494    0.8473    4.8836 N.pl3     1 RES1    0.0000
      7 C2        -2.4713   -3.4758    1.3432 C.ar      1 RES1    0.0000
      8 H2        -2.7994   -3.7854    2.1564 H         1 RES1    0.0000
      9 C3        -0.0352    1.7397    4.4687 C.2       1 RES1    0.0000
     10 C4         2.0002    2.4550    4.2401 C.2       1 RES1    0.0000
     11 H3         2.9290    2.4988    4.2537 H         1 RES1    0.0000
     12 C5        -1.6394   -4.2775    0.5770 C.ar      1 RES1    0.0000
     13 H4        -1.4043   -5.1279    0.8722 H         1 RES1    0.0000
     14 C6         1.2090    3.4626    3.8297 C.2       1 RES1    0.0000
     15 H5         1.4726    4.2955    3.5117 H         1 RES1    0.0000
     16 C7        -3.8737   -0.6259    3.9751 C.3       1 RES1    0.0000
     17 H6        -4.5384   -1.3070    4.1643 H         1 RES1    0.0000
     18 H7        -4.3379    0.1680    3.6661 H         1 RES1    0.0000
     19 C8        -2.8062   -2.2270    0.8980 C.ar      1 RES1    0.0000
     20 C9        -3.6675   -1.3826    1.7687 C.3       1 RES1    0.0000
     21 H8        -3.8873   -0.5593    1.3053 H         1 RES1    0.0000
     22 H9        -4.4949   -1.8513    1.9580 H         1 RES1    0.0000
     23 C10       -0.1459    2.9669    3.9917 C.2       1 RES1    0.0000
     24 H10       -0.9335    3.4218    3.7994 H         1 RES1    0.0000
     25 C11       -3.2145    0.6931    7.5276 C.3       1 RES1    0.0000
     26 H11       -2.7792    1.4792    7.1884 H         1 RES1    0.0000
     27 H12       -2.5532    0.0780    7.8547 H         1 RES1    0.0000
     28 H13       -3.8065    0.9368    8.2409 H         1 RES1    0.0000
     29 C12       -2.3417   -1.7931   -0.3104 C.ar      1 RES1    0.0000
     30 H14       -2.5817   -0.9470   -0.6133 H         1 RES1    0.0000
     31 C13       -1.5180   -2.5894   -1.0994 C.ar      1 RES1    0.0000
     32 H15       -1.2142   -2.3038   -1.9307 H         1 RES1    0.0000
     33 C14       -4.6911   -1.1858    6.9461 C.3       1 RES1    0.0000
     34 H16       -5.1885   -1.6035    6.2389 H         1 RES1    0.0000
     35 H17       -5.2902   -0.9374    7.6533 H         1 RES1    0.0000
     36 H18       -4.0353   -1.8009    7.2823 H         1 RES1    0.0000
     37 C15       -4.0040    0.0396    6.4191 C.3       1 RES1    0.0000
     38 H19       -4.6906    0.6709    6.1193 H         1 RES1    0.0000
     39 C16       -1.1770   -3.8148   -0.5921 C.ar      1 RES1    0.0000
     40 H20       -0.5974   -4.3519   -1.0827 H         1 RES1    0.0000
     41 C17       -3.1222   -0.3073    5.2228 C.3       1 RES1    0.0000
     42 H21       -2.5571   -1.0730    5.4576 H         1 RES1    0.0000
@<TRIPOS>BOND
     1    1    9 1
     2    2   16 1
     3    3    6 1
     4    4    5 1
     5    6    4 2
     6    7    8 1
     7    9    4 1
     8   10    1 1
     9   11   10 1
    10   12    7 ar
    11   13   12 1
    12   14   10 2
    13   15   14 1
    14   16   17 1
    15   18   16 1
    16   19    7 ar
    17   20    2 1
    18   21   20 1
    19   22   20 1
    20   23    9 2
    21   24   23 1
    22   25   26 1
    23   27   25 1
    24   28   25 1
    25   29   19 ar
    26   30   29 1
    27   31   29 ar
    28   32   31 1
    29   33   34 1
    30   35   33 1
    31   36   33 1
    32   37   25 1
    33   38   37 1
    34   39   12 ar
    35   40   39 1
    36   41    6 1
    37   42   41 1
    38   14   23 1
    39   16   41 1
    40   19   20 1
    41   31   39 ar
    42   33   37 1
    43   37   41 1
@<TRIPOS>SUBSTRUCTURE
     1 RES1 1

@<TRIPOS>CRYSIN
   8.3500    6.0010   15.5210  90.0000 102.6700  90.0000   4 1

