# MOL2 file generated by ConQuest
# Please check atom types

@<TRIPOS>MOLECULE
QABDEE
    38    39     1
SMALL
NO_CHARGES
****
Generated from CSD

@<TRIPOS>ATOM
      1 O1        -1.0246    1.9738    4.1247 O.2       1 RES1    0.0000
      2 O2        -0.8411    1.9400    7.6247 O.3       1 RES1    0.0000
      3 O3        -4.9360    6.5486    0.8338 O.2       1 RES1    0.0000
      4 O4        -4.0973    8.3306    1.6315 O.2       1 RES1    0.0000
      5 N1        -4.1776    7.1263    1.5848 N.pl3     1 RES1    0.0000
      6 N2        -0.4779    2.8384    4.9005 N.pl3     1 RES1    0.0000
      7 C1        -0.7629    4.1108    4.9256 C.2       1 RES1    0.0000
      8 H1        -0.3253    4.6231    5.5666 H         1 RES1    0.0000
      9 C2        -1.6844    4.8027    4.0644 C.ar      1 RES1    0.0000
     10 C3        -1.7402    6.1919    4.1999 C.ar      1 RES1    0.0000
     11 H2        -1.2170    6.6065    4.8469 H         1 RES1    0.0000
     12 C4        -2.5502    6.9570    3.3988 C.ar      1 RES1    0.0000
     13 H3        -2.5786    7.8831    3.4935 H         1 RES1    0.0000
     14 C5        -3.3149    6.3238    2.4585 C.ar      1 RES1    0.0000
     15 C6        -3.2987    4.9712    2.2994 C.ar      1 RES1    0.0000
     16 H4        -3.8332    4.5673    1.6538 H         1 RES1    0.0000
     17 C7        -2.4850    4.2086    3.1021 C.ar      1 RES1    0.0000
     18 H5        -2.4714    3.2851    2.9981 H         1 RES1    0.0000
     19 C8         0.5780    2.3040    5.7917 C.3       1 RES1    0.0000
     20 H6         0.9676    3.0337    6.2977 H         1 RES1    0.0000
     21 H7         1.2790    1.9051    5.2538 H         1 RES1    0.0000
     22 C9         0.0402    1.2816    6.7378 C.3       1 RES1    0.0000
     23 H8        -0.4344    0.5894    6.2490 H         1 RES1    0.0000
     24 H9         0.7672    0.8688    7.2318 H         1 RES1    0.0000
     25 C10       -1.1222    1.1875    8.7778 C.3       1 RES1    0.0000
     26 H10       -0.3002    1.0056    9.2562 H         1 RES1    0.0000
     27 H11       -1.5154    0.3380    8.5239 H         1 RES1    0.0000
     28 C11       -2.0641    1.9339    9.6670 C.ar      1 RES1    0.0000
     29 C12       -2.7012    3.0747    9.2511 C.ar      1 RES1    0.0000
     30 H12       -2.5184    3.4220    8.4083 H         1 RES1    0.0000
     31 C13       -3.6080    3.7088   10.0689 C.ar      1 RES1    0.0000
     32 H13       -4.0339    4.4807    9.7753 H         1 RES1    0.0000
     33 C14       -3.8865    3.2127   11.3056 C.ar      1 RES1    0.0000
     34 H14       -4.5156    3.6343   11.8462 H         1 RES1    0.0000
     35 C15       -3.2415    2.0998   11.7488 C.ar      1 RES1    0.0000
     36 H15       -3.4104    1.7710   12.6023 H         1 RES1    0.0000
     37 C16       -2.3333    1.4551   10.9257 C.ar      1 RES1    0.0000
     38 H16       -1.9009    0.6900   11.2285 H         1 RES1    0.0000
@<TRIPOS>BOND
     1    1    6 1
     2    2   22 1
     3    3    5 2
     4    4    5 2
     5    5   14 1
     6    6    7 2
     7    7    8 1
     8    9    7 1
     9   10    9 ar
    10   11   10 1
    11   12   10 ar
    12   13   12 1
    13   14   12 ar
    14   15   14 ar
    15   16   15 1
    16   17    9 ar
    17   18   17 1
    18   19    6 1
    19   20   19 1
    20   21   19 1
    21   22   19 1
    22   23   22 1
    23   24   22 1
    24   25    2 1
    25   26   25 1
    26   27   25 1
    27   28   25 1
    28   29   28 ar
    29   30   29 1
    30   31   29 ar
    31   32   31 1
    32   33   31 ar
    33   34   33 1
    34   35   33 ar
    35   36   35 1
    36   37   28 ar
    37   38   37 1
    38   15   17 ar
    39   35   37 ar
@<TRIPOS>SUBSTRUCTURE
     1 RES1 1

@<TRIPOS>CRYSIN
   4.7189   27.9343   11.7716  90.0000 105.6530  90.0000 231 1

