# MOL2 file generated by ConQuest
# Please check atom types

@<TRIPOS>MOLECULE
QABFAC
    49    51     1
SMALL
NO_CHARGES
****
Generated from CSD

@<TRIPOS>ATOM
      1 O1         9.6690    0.7068    2.5326 O.2       1 RES1    0.0000
      2 O2        12.5967   -0.4582    3.6946 O.3       1 RES1    0.0000
      3 N1         9.9242    0.3410    3.7559 N.pl3     1 RES1    0.0000
      4 C1         9.9044    1.1717    4.7936 C.2       1 RES1    0.0000
      5 H1        10.0694    0.7831    5.6448 H         1 RES1    0.0000
      6 C2         9.6662    2.5769    4.7684 C.ar      1 RES1    0.0000
      7 C3         9.3170    3.3590    3.6848 C.ar      1 RES1    0.0000
      8 H2         9.1394    2.9446    2.8504 H         1 RES1    0.0000
      9 C4         9.2230    4.7546    3.8052 C.ar      1 RES1    0.0000
     10 H3         8.9650    5.2833    3.0576 H         1 RES1    0.0000
     11 C5         9.5068    5.3604    5.0120 C.ar      1 RES1    0.0000
     12 C6         9.8296    4.6260    6.0900 C.ar      1 RES1    0.0000
     13 H4         9.9968    5.0489    6.9244 H         1 RES1    0.0000
     14 C7         9.9176    3.2218    5.9696 C.ar      1 RES1    0.0000
     15 H5        10.1547    2.7026    6.7284 H         1 RES1    0.0000
     16 C8         9.4336    6.7370    4.9963 C.3       1 RES1    0.0000
     17 H6         9.1861    7.0418    4.0992 H         1 RES1    0.0000
     18 H7        10.3076    7.1152    5.2416 H         1 RES1    0.0000
     19 H8         8.7527    7.0361    5.6392 H         1 RES1    0.0000
     20 C9        10.2955   -1.0793    3.9760 C.3       1 RES1    0.0000
     21 H9        10.4968   -1.1917    4.9476 H         1 RES1    0.0000
     22 C10       11.5901   -1.3461    3.2088 C.3       1 RES1    0.0000
     23 H10       11.8762   -2.2892    3.3376 H         1 RES1    0.0000
     24 H11       11.4444   -1.1927    2.2428 H         1 RES1    0.0000
     25 C11       13.8034   -0.5954    2.9820 C.3       1 RES1    0.0000
     26 H12       13.6570   -0.3306    2.0412 H         1 RES1    0.0000
     27 H13       14.0871   -1.5480    2.9960 H         1 RES1    0.0000
     28 C12        9.1531   -2.0139    3.6372 C.ar      1 RES1    0.0000
     29 C13        8.5184   -2.6674    4.6256 C.ar      1 RES1    0.0000
     30 H14        8.7890   -2.5321    5.5244 H         1 RES1    0.0000
     31 C14        7.4701   -3.5381    4.3428 C.ar      1 RES1    0.0000
     32 H15        7.0367   -3.9972    5.0540 H         1 RES1    0.0000
     33 C15        7.0455   -3.7514    3.0436 C.ar      1 RES1    0.0000
     34 H16        6.3222   -4.3411    2.8476 H         1 RES1    0.0000
     35 C16        7.7269   -3.0627    2.0412 C.ar      1 RES1    0.0000
     36 H17        7.4514   -3.1684    1.1368 H         1 RES1    0.0000
     37 C17        8.7769   -2.2406    2.3296 C.ar      1 RES1    0.0000
     38 H18        9.2576   -1.8195    1.6240 H         1 RES1    0.0000
     39 C18       14.8890    0.2563    3.5742 C.ar      1 RES1    0.0000
     40 C19       16.2014    0.0295    3.2872 C.ar      1 RES1    0.0000
     41 H19       16.4225   -0.7173    2.7412 H         1 RES1    0.0000
     42 C20       17.2084    0.8116    3.7436 C.ar      1 RES1    0.0000
     43 H20       18.1120    0.6144    3.5112 H         1 RES1    0.0000
     44 C21       16.9263    1.8853    4.5388 C.ar      1 RES1    0.0000
     45 H21       17.6275    2.4502    4.8524 H         1 RES1    0.0000
     46 C22       15.5744    2.1463    4.8944 C.ar      1 RES1    0.0000
     47 H22       15.3565    2.8607    5.4824 H         1 RES1    0.0000
     48 C23       14.5888    1.3461    4.3655 C.ar      1 RES1    0.0000
     49 H23       13.6752    1.5490    4.5500 H         1 RES1    0.0000
@<TRIPOS>BOND
     1    1    3 1
     2    2   22 1
     3    3    4 2
     4    4    5 1
     5    6    4 1
     6    7    6 ar
     7    8    7 1
     8    9    7 ar
     9   10    9 1
    10   11    9 ar
    11   12   11 ar
    12   13   12 1
    13   14    6 ar
    14   15   14 1
    15   16   11 1
    16   17   16 1
    17   18   16 1
    18   19   16 1
    19   20    3 1
    20   21   20 1
    21   22   20 1
    22   23   22 1
    23   24   22 1
    24   25    2 1
    25   26   25 1
    26   27   25 1
    27   28   20 1
    28   29   28 ar
    29   30   29 1
    30   31   29 ar
    31   32   31 1
    32   33   31 ar
    33   34   33 1
    34   35   33 ar
    35   36   35 1
    36   37   28 ar
    37   38   37 1
    38   39   25 1
    39   40   39 ar
    40   41   40 1
    41   42   40 ar
    42   43   42 1
    43   44   42 ar
    44   45   44 1
    45   46   44 ar
    46   47   46 1
    47   48   39 ar
    48   49   48 1
    49   12   14 ar
    50   35   37 ar
    51   46   48 ar
@<TRIPOS>SUBSTRUCTURE
     1 RES1 1

@<TRIPOS>CRYSIN
  11.0000   11.0000   28.0000  90.0000  90.0000 120.0000 169 1

