# MOL2 file generated by ConQuest
# Please check atom types

@<TRIPOS>MOLECULE
QABFIK
    47    47     1
SMALL
NO_CHARGES
****
Generated from CSD

@<TRIPOS>ATOM
      1 O1         1.5465    8.9827    0.1959 O.3       1 RES1    0.0000
      2 O2        -0.3137    6.4365   -0.9562 O.2       1 RES1    0.0000
      3 N1         0.9861    6.4592   -0.8359 N.pl3     1 RES1    0.0000
      4 C1         1.6131    5.7258    0.0105 C.2       1 RES1    0.0000
      5 H1         2.5417    5.7624    0.0341 H         1 RES1    0.0000
      6 C2         3.0642    9.3184    1.9964 C.ar      1 RES1    0.0000
      7 C3         1.7084    7.4276   -1.6935 C.3       1 RES1    0.0000
      8 H2         2.6713    7.3024   -1.5614 H         1 RES1    0.0000
      9 C4         0.9135    4.8279    0.9455 C.3       1 RES1    0.0000
     10 H3         0.6930    4.0034    0.4841 H         1 RES1    0.0000
     11 H4         0.0817    5.2452    1.2182 H         1 RES1    0.0000
     12 C5         1.3276    8.8147   -1.1878 C.3       1 RES1    0.0000
     13 H5         1.8446    9.4777   -1.6705 H         1 RES1    0.0000
     14 H6         0.3904    8.9735   -1.3796 H         1 RES1    0.0000
     15 C6         2.1851   10.0516    2.7617 C.ar      1 RES1    0.0000
     16 H7         1.4784   10.4919    2.3478 H         1 RES1    0.0000
     17 C7         1.3871    7.1958   -3.1560 C.3       1 RES1    0.0000
     18 H8         0.4292    7.3514   -3.2956 H         1 RES1    0.0000
     19 C8         1.7195    4.4990    2.1705 C.3       1 RES1    0.0000
     20 H9         2.5755    4.1360    1.8932 H         1 RES1    0.0000
     21 H10        1.2565    3.8118    2.6751 H         1 RES1    0.0000
     22 C9         4.0977    8.6623    2.6387 C.ar      1 RES1    0.0000
     23 H11        4.6985    8.1538    2.1433 H         1 RES1    0.0000
     24 C10        1.9621    5.6860    3.0746 C.3       1 RES1    0.0000
     25 H12        2.4080    6.3804    2.5660 H         1 RES1    0.0000
     26 H13        1.1056    6.0376    3.3637 H         1 RES1    0.0000
     27 C11        2.1735    8.1725   -4.0369 C.3       1 RES1    0.0000
     28 H14        1.9601    9.0743   -3.7842 H         1 RES1    0.0000
     29 H15        1.9384    8.0328   -4.9570 H         1 RES1    0.0000
     30 H16        3.1142    8.0213   -3.9206 H         1 RES1    0.0000
     31 C12        2.9185    9.2210    0.5127 C.3       1 RES1    0.0000
     32 H17        3.2145   10.0453    0.0977 H         1 RES1    0.0000
     33 H18        3.4657    8.4952    0.1750 H         1 RES1    0.0000
     34 C13        2.3308   10.1461    4.1247 C.ar      1 RES1    0.0000
     35 H19        1.7331   10.6547    4.6251 H         1 RES1    0.0000
     36 C14        3.3689    9.4849    4.7488 C.ar      1 RES1    0.0000
     37 H20        3.4703    9.5353    5.6729 H         1 RES1    0.0000
     38 C15        4.2476    8.7516    3.9985 C.ar      1 RES1    0.0000
     39 H21        4.9527    8.3108    4.4138 H         1 RES1    0.0000
     40 C16        1.7124    5.7638   -3.5583 C.3       1 RES1    0.0000
     41 H22        1.4935    5.6342   -4.4842 H         1 RES1    0.0000
     42 H23        1.2005    5.1559   -3.0206 H         1 RES1    0.0000
     43 H24        2.6491    5.5982   -3.4251 H         1 RES1    0.0000
     44 C17        2.7903    5.3691    4.2901 C.3       1 RES1    0.0000
     45 H25        2.9008    6.1643    4.8183 H         1 RES1    0.0000
     46 H26        3.6514    5.0450    4.0160 H         1 RES1    0.0000
     47 H27        2.3475    4.6978    4.8138 H         1 RES1    0.0000
@<TRIPOS>BOND
     1    1   12 1
     2    2    3 1
     3    3    4 2
     4    4    5 1
     5    6   15 ar
     6    7    3 1
     7    8    7 1
     8    9    4 1
     9   10    9 1
    10   11    9 1
    11   12    7 1
    12   13   12 1
    13   14   12 1
    14   15   16 1
    15   17    7 1
    16   18   17 1
    17   19    9 1
    18   20   19 1
    19   21   19 1
    20   22    6 ar
    21   23   22 1
    22   24   19 1
    23   25   24 1
    24   26   24 1
    25   27   17 1
    26   28   27 1
    27   29   27 1
    28   30   27 1
    29   31    1 1
    30   32   31 1
    31   33   31 1
    32   34   15 ar
    33   35   34 1
    34   36   34 ar
    35   37   36 1
    36   38   22 ar
    37   39   38 1
    38   40   17 1
    39   41   40 1
    40   42   40 1
    41   43   40 1
    42   44   24 1
    43   45   44 1
    44   46   44 1
    45   47   44 1
    46    6   31 1
    47   36   38 ar
@<TRIPOS>SUBSTRUCTURE
     1 RES1 1

@<TRIPOS>CRYSIN
   5.0440   14.4060   22.7280  90.0000  90.0000  90.0000  19 1

