# MOL2 file generated by ConQuest
# Please check atom types

@<TRIPOS>MOLECULE
QABFEG
    47    47     1
SMALL
NO_CHARGES
****
Generated from CSD

@<TRIPOS>ATOM
      1 N1         0.8211    7.1649    3.1868 N.pl3     1 RES1    0.0000
      2 O1        -0.4680    7.0994    3.3340 O.2       1 RES1    0.0000
      3 O2         1.3323    5.8230    0.7932 O.3       1 RES1    0.0000
      4 C1         0.7784   11.8943    1.9328 C.3       1 RES1    0.0000
      5 H1         0.7342   12.2130    2.8600 H         1 RES1    0.0000
      6 H2        -0.1286   11.8209    1.5695 H         1 RES1    0.0000
      7 H3         1.2966   12.5284    1.3946 H         1 RES1    0.0000
      8 C2         1.5522   10.0521    0.4712 C.3       1 RES1    0.0000
      9 H4         2.0539   10.7062   -0.0589 H         1 RES1    0.0000
     10 H5         0.6533    9.9469    0.0962 H         1 RES1    0.0000
     11 H6         2.0173    9.1894    0.4518 H         1 RES1    0.0000
     12 C3         1.4483   10.5358    1.8977 C.3       1 RES1    0.0000
     13 H7         2.3758   10.6394    2.2569 H         1 RES1    0.0000
     14 C4         0.7257    9.5381    2.7592 C.3       1 RES1    0.0000
     15 H8         0.5665    9.9453    3.6476 H         1 RES1    0.0000
     16 H9        -0.1582    9.3529    2.3532 H         1 RES1    0.0000
     17 C5         1.4347    8.2599    2.9486 C.2       1 RES1    0.0000
     18 H10        2.3828    8.2499    2.8914 H         1 RES1    0.0000
     19 C6         1.5452    5.8789    3.2312 C.3       1 RES1    0.0000
     20 H11        2.5260    6.0639    3.1703 H         1 RES1    0.0000
     21 C7         1.2750    5.1392    4.5276 C.3       1 RES1    0.0000
     22 H12        0.2898    4.9877    4.6082 H         1 RES1    0.0000
     23 C8         1.9736    3.7902    4.5410 C.3       1 RES1    0.0000
     24 H13        1.7787    3.3307    5.3841 H         1 RES1    0.0000
     25 H14        2.9408    3.9230    4.4569 H         1 RES1    0.0000
     26 H15        1.6517    3.2489    3.7910 H         1 RES1    0.0000
     27 C9         1.7355    5.9622    5.7152 C.3       1 RES1    0.0000
     28 H16        1.5492    5.4732    6.5430 H         1 RES1    0.0000
     29 H17        1.2565    6.8182    5.7258 H         1 RES1    0.0000
     30 H18        2.6987    6.1290    5.6433 H         1 RES1    0.0000
     31 C10        1.1224    5.1103    1.9979 C.3       1 RES1    0.0000
     32 H19        1.6291    4.2601    1.9603 H         1 RES1    0.0000
     33 H20        0.1617    4.8859    2.0743 H         1 RES1    0.0000
     34 C11        2.6997    5.8253    0.3962 C.3       1 RES1    0.0000
     35 H21        3.0161    4.8959    0.2691 H         1 RES1    0.0000
     36 H22        3.2536    6.2508    1.0980 H         1 RES1    0.0000
     37 C12        2.8313    6.5817   -0.8763 C.ar      1 RES1    0.0000
     38 C13        1.9615    6.3977   -1.9224 C.ar      1 RES1    0.0000
     39 H23        1.2409    5.7853   -1.8307 H         1 RES1    0.0000
     40 C14        2.1197    7.0902   -3.1045 C.ar      1 RES1    0.0000
     41 H24        1.5085    6.9567   -3.8205 H         1 RES1    0.0000
     42 C15        3.1612    7.9746   -3.2462 C.ar      1 RES1    0.0000
     43 H25        3.2752    8.4535   -4.0582 H         1 RES1    0.0000
     44 C16        4.0285    8.1581   -2.2137 C.ar      1 RES1    0.0000
     45 H26        4.7506    8.7672   -2.3080 H         1 RES1    0.0000
     46 C17        3.8698    7.4706   -1.0383 C.ar      1 RES1    0.0000
     47 H27        4.4840    7.6091   -0.3280 H         1 RES1    0.0000
@<TRIPOS>BOND
     1    1    2 1
     2    3   31 1
     3    4    5 1
     4    6    4 1
     5    7    4 1
     6    8    9 1
     7   10    8 1
     8   11    8 1
     9   12    4 1
    10   13   12 1
    11   14   12 1
    12   15   14 1
    13   16   14 1
    14   17    1 2
    15   18   17 1
    16   19    1 1
    17   20   19 1
    18   21   19 1
    19   22   21 1
    20   23   21 1
    21   24   23 1
    22   25   23 1
    23   26   23 1
    24   27   21 1
    25   28   27 1
    26   29   27 1
    27   30   27 1
    28   31   19 1
    29   32   31 1
    30   33   31 1
    31   34    3 1
    32   35   34 1
    33   36   34 1
    34   37   34 1
    35   38   37 ar
    36   39   38 1
    37   40   38 ar
    38   41   40 1
    39   42   40 ar
    40   43   42 1
    41   44   42 ar
    42   45   44 1
    43   46   37 ar
    44   47   46 1
    45    8   12 1
    46   14   17 1
    47   44   46 ar
@<TRIPOS>SUBSTRUCTURE
     1 RES1 1

@<TRIPOS>CRYSIN
   5.0218   16.6867   19.6427  90.0000  90.0000  90.0000  19 1

