# MOL2 file generated by ConQuest
# Please check atom types

@<TRIPOS>MOLECULE
QABGEI
    44    47     1
SMALL
NO_CHARGES
****
Generated from CSD

@<TRIPOS>ATOM
      1 O1         0.1806    9.1339    1.1116 O.2       1 RES1    0.0000
      2 N1         2.4339    3.9094    3.7154 N.pl3     1 RES1    0.0000
      3 O2         1.0781    9.9031    2.9198 O.2       1 RES1    0.0000
      4 N2         1.9184    1.6295    3.7504 N.ar      1 RES1    0.0000
      5 N3         0.8118    8.9786    2.1599 N.pl3     1 RES1    0.0000
      6 C1         2.7517    4.1636    5.0608 C.2       1 RES1    0.0000
      7 C2         2.0887    6.1028    4.1200 C.ar      1 RES1    0.0000
      8 C3         2.5550    5.4782    5.3196 C.2       1 RES1    0.0000
      9 H1         2.6979    5.9015    6.1356 H         1 RES1    0.0000
     10 C4         2.4516    2.6425    3.0660 C.ar      1 RES1    0.0000
     11 C5         1.2573    7.6378    2.5156 C.ar      1 RES1    0.0000
     12 C6         2.0270    5.0993    3.1274 C.ar      1 RES1    0.0000
     13 C7         1.7013    7.4053    3.8042 C.ar      1 RES1    0.0000
     14 H2         1.7403    8.0891    4.4336 H         1 RES1    0.0000
     15 C8         3.2713    3.0869    5.9612 C.3       1 RES1    0.0000
     16 H3         3.9763    2.6023    5.5033 H         1 RES1    0.0000
     17 H4         2.5562    2.4607    6.1538 H         1 RES1    0.0000
     18 C9         1.1930    6.6479    1.5364 C.ar      1 RES1    0.0000
     19 H5         0.8856    6.8565    0.6834 H         1 RES1    0.0000
     20 C10        1.5840    5.3622    1.8303 C.ar      1 RES1    0.0000
     21 H6         1.5539    4.6916    1.1863 H         1 RES1    0.0000
     22 C11        3.4403    3.2068    8.4511 C.2       1 RES1    0.0000
     23 H7         2.7908    2.5419    8.4827 H         1 RES1    0.0000
     24 C12        2.9990    2.5150    1.7982 C.ar      1 RES1    0.0000
     25 H8         3.3755    3.2463    1.3649 H         1 RES1    0.0000
     26 C13        3.8067    3.6310    7.2504 C.2       1 RES1    0.0000
     27 H9         4.4386    4.3121    7.2052 H         1 RES1    0.0000
     28 C14        2.9698    1.2743    1.1978 C.ar      1 RES1    0.0000
     29 H10        3.3109    1.1566    0.3408 H         1 RES1    0.0000
     30 C15        3.9637    3.6887    9.7400 C.ar      1 RES1    0.0000
     31 C16        2.4259    0.2050    1.8893 C.ar      1 RES1    0.0000
     32 H11        2.3924   -0.6428    1.5107 H         1 RES1    0.0000
     33 C17        1.9333    0.4361    3.1602 C.ar      1 RES1    0.0000
     34 H12        1.5914   -0.2879    3.6336 H         1 RES1    0.0000
     35 C18        3.9258    2.8564   10.8567 C.ar      1 RES1    0.0000
     36 H13        3.5476    2.0103   10.7805 H         1 RES1    0.0000
     37 C19        4.5074    4.9672    9.9028 C.ar      1 RES1    0.0000
     38 H14        4.5361    5.5508    9.1788 H         1 RES1    0.0000
     39 C20        4.4361    3.2594   12.0736 C.ar      1 RES1    0.0000
     40 H15        4.4187    2.6773   12.7996 H         1 RES1    0.0000
     41 C21        5.0021    5.3728   11.1291 C.ar      1 RES1    0.0000
     42 H16        5.3588    6.2274   11.2234 H         1 RES1    0.0000
     43 C22        4.9716    4.5191   12.2158 C.ar      1 RES1    0.0000
     44 H17        5.3098    4.7953   13.0365 H         1 RES1    0.0000
@<TRIPOS>BOND
     1    1    5 2
     2    2    6 1
     3    3    5 2
     4    4   10 ar
     5    5   11 1
     6    6    8 2
     7    7    8 1
     8    8    9 1
     9   10    2 1
    10   11   13 ar
    11   12    2 1
    12   13    7 ar
    13   14   13 1
    14   15    6 1
    15   16   15 1
    16   17   15 1
    17   18   11 ar
    18   19   18 1
    19   20   12 ar
    20   21   20 1
    21   22   23 1
    22   24   10 ar
    23   25   24 1
    24   26   15 1
    25   27   26 1
    26   28   24 ar
    27   29   28 1
    28   30   22 1
    29   31   28 ar
    30   32   31 1
    31   33    4 ar
    32   34   33 1
    33   35   30 ar
    34   36   35 1
    35   37   30 ar
    36   38   37 1
    37   39   35 ar
    38   40   39 1
    39   41   37 ar
    40   42   41 1
    41   43   39 ar
    42   44   43 1
    43    7   12 ar
    44   18   20 ar
    45   22   26 2
    46   31   33 ar
    47   41   43 ar
@<TRIPOS>SUBSTRUCTURE
     1 RES1 1

@<TRIPOS>CRYSIN
   3.8511   12.3607   18.3888  82.3460  88.7240  87.1560   2 1

