# MOL2 file generated by ConQuest
# Please check atom types

@<TRIPOS>MOLECULE
QABLOX
    33    33     1
SMALL
NO_CHARGES
****
Generated from CSD

@<TRIPOS>ATOM
      1 O1         2.9421    7.5871    0.7398 O.2       1 RES1    0.0000
      2 N1         1.9525    6.3949    4.4587 N.3       1 RES1    0.0000
      3 C1         0.8743    6.3376    3.5218 C.ar      1 RES1    0.0000
      4 O2         3.9111    8.9721    2.2012 O.3       1 RES1    0.0000
      5 C2         0.0012    5.2591    3.5842 C.ar      1 RES1    0.0000
      6 H1         0.1135    4.6075    4.2372 H         1 RES1    0.0000
      7 N2         3.1594    6.3674    3.9472 N.2       1 RES1    0.0000
      8 O3         1.2839   10.3625    0.9902 O.2       1 RES1    0.0000
      9 C3        -1.0281    5.1563    2.6815 C.ar      1 RES1    0.0000
     10 H2        -1.6275    4.4479    2.7378 H         1 RES1    0.0000
     11 O4        -0.0938   10.1123    2.7332 O.3       1 RES1    0.0000
     12 C4        -1.1697    6.0950    1.6996 C.ar      1 RES1    0.0000
     13 H3        -1.8480    6.0058    1.0702 H         1 RES1    0.0000
     14 C5        -0.3070    7.1791    1.6364 C.ar      1 RES1    0.0000
     15 H4        -0.4172    7.8149    0.9666 H         1 RES1    0.0000
     16 O5         4.0656    6.3068    4.7594 O.2       1 RES1    0.0000
     17 C6         0.7148    7.3269    2.5605 C.ar      1 RES1    0.0000
     18 C7         1.6353    8.5466    2.5224 C.3       1 RES1    0.0000
     19 H5         1.9122    8.7438    3.4418 H         1 RES1    0.0000
     20 C8         2.8845    8.2883    1.7065 C.2       1 RES1    0.0000
     21 C9         5.1963    8.7555    1.5611 C.3       1 RES1    0.0000
     22 H6         5.8618    9.2988    1.9873 H         1 RES1    0.0000
     23 H7         5.1351    8.9911    0.6333 H         1 RES1    0.0000
     24 H8         5.4408    7.8305    1.6402 H         1 RES1    0.0000
     25 C10        0.9348    9.7796    1.9721 C.2       1 RES1    0.0000
     26 C11       -0.8525   11.2778    2.3420 C.3       1 RES1    0.0000
     27 H9        -1.5717   11.4157    2.9631 H         1 RES1    0.0000
     28 H10       -1.2106   11.1450    1.4614 H         1 RES1    0.0000
     29 H11       -0.2788   12.0466    2.3420 H         1 RES1    0.0000
     30 C12        1.7549    6.3699    5.9011 C.3       1 RES1    0.0000
     31 H12        2.6069    6.4108    6.3410 H         1 RES1    0.0000
     32 H13        1.3042    5.5598    6.1484 H         1 RES1    0.0000
     33 H14        1.2233    7.1236    6.1637 H         1 RES1    0.0000
@<TRIPOS>BOND
     1    1   20 2
     2    2    3 1
     3    3    5 ar
     4    4   20 1
     5    5    6 1
     6    7    2 1
     7    8   25 2
     8    9    5 ar
     9   10    9 1
    10   11   25 1
    11   12    9 ar
    12   13   12 1
    13   14   12 ar
    14   15   14 1
    15   16    7 2
    16   17    3 ar
    17   18   17 1
    18   19   18 1
    19   20   18 1
    20   21    4 1
    21   22   21 1
    22   23   21 1
    23   24   21 1
    24   25   18 1
    25   26   11 1
    26   27   26 1
    27   28   26 1
    28   29   26 1
    29   30    2 1
    30   31   30 1
    31   32   30 1
    32   33   30 1
    33   14   17 ar
@<TRIPOS>SUBSTRUCTURE
     1 RES1 1

@<TRIPOS>CRYSIN
   8.9220   19.4740    8.1800  90.0000 111.4900  90.0000  14 1

