# MOL2 file generated by ConQuest
# Please check atom types

@<TRIPOS>MOLECULE
QABQAO
    38    40     1
SMALL
NO_CHARGES
****
Generated from CSD

@<TRIPOS>ATOM
      1 O1         1.5369    6.6146   12.8080 O.2       1 RES1    0.0000
      2 O2         1.6796    2.6076   12.0507 O.3       1 RES1    0.0000
      3 O3        -0.2616    1.8609   11.1424 O.2       1 RES1    0.0000
      4 O4        -0.7763    2.0816   17.3926 O.2       1 RES1    0.0000
      5 O5        -0.4998    0.4815   15.9563 O.2       1 RES1    0.0000
      6 N1        -0.3926    1.6372   16.2900 N.pl3     1 RES1    0.0000
      7 C1         1.2648    5.5486   12.4366 C.2       1 RES1    0.0000
      8 C2         1.3246    5.2449   10.9683 C.3       1 RES1    0.0000
      9 H1         1.7308    5.9797   10.5041 H         1 RES1    0.0000
     10 H2         0.4317    5.1123   10.6317 H         1 RES1    0.0000
     11 H3         1.8391    4.4492   10.8261 H         1 RES1    0.0000
     12 C3         0.9847    1.9409   11.0757 C.2       1 RES1    0.0000
     13 C4         0.8817    4.4226   13.3796 C.ar      1 RES1    0.0000
     14 C5         0.9935    3.0891   13.2055 C.ar      1 RES1    0.0000
     15 C6         0.5910    2.1187   14.1225 C.ar      1 RES1    0.0000
     16 H4         0.6624    1.2068   13.9571 H         1 RES1    0.0000
     17 C7         0.0688    2.6298   15.2947 C.ar      1 RES1    0.0000
     18 C8        -0.0477    3.9559   15.5936 C.ar      1 RES1    0.0000
     19 H5        -0.3918    4.2396   16.4119 H         1 RES1    0.0000
     20 C9         0.3588    4.8745   14.6360 C.ar      1 RES1    0.0000
     21 H6         0.2953    5.7879   14.8101 H         1 RES1    0.0000
     22 C10        1.8063    1.3557   10.0659 C.ar      1 RES1    0.0000
     23 C11        3.1336    1.0668   10.4315 C.ar      1 RES1    0.0000
     24 H7         3.4205    1.2994   11.2846 H         1 RES1    0.0000
     25 C12        4.0442    0.4519    9.5639 C.ar      1 RES1    0.0000
     26 H8         4.9065    0.2215    9.8367 H         1 RES1    0.0000
     27 C13        3.5847    0.1852    8.2408 C.ar      1 RES1    0.0000
     28 H9         4.1673   -0.1793    7.6169 H         1 RES1    0.0000
     29 C14        1.8649    0.2741    6.4649 C.ar      1 RES1    0.0000
     30 H10        2.4562   -0.0845    5.8411 H         1 RES1    0.0000
     31 C15        0.6835    0.5926    6.1051 C.ar      1 RES1    0.0000
     32 H11        0.4134    0.3860    5.2375 H         1 RES1    0.0000
     33 C16       -0.2257    1.2445    6.9582 C.ar      1 RES1    0.0000
     34 H12       -1.0536    1.5372    6.6477 H         1 RES1    0.0000
     35 C17        0.1400    1.4223    8.2669 C.ar      1 RES1    0.0000
     36 H13       -0.4750    1.7846    8.8617 H         1 RES1    0.0000
     37 C18        1.3784    1.0816    8.7195 C.ar      1 RES1    0.0000
     38 C19        2.3090    0.4667    7.8722 C.ar      1 RES1    0.0000
@<TRIPOS>BOND
     1    1    7 2
     2    2   12 1
     3    3   12 2
     4    4    6 2
     5    5    6 2
     6    6   17 1
     7    7    8 1
     8    8    9 1
     9   10    8 1
    10   11    8 1
    11   12   22 1
    12   13    7 1
    13   14    2 1
    14   15   14 ar
    15   16   15 1
    16   17   15 ar
    17   18   17 ar
    18   19   18 1
    19   20   13 ar
    20   21   20 1
    21   22   23 ar
    22   23   24 1
    23   25   23 ar
    24   26   25 1
    25   27   25 ar
    26   28   27 1
    27   29   30 1
    28   31   29 ar
    29   32   31 1
    30   33   31 ar
    31   34   33 1
    32   35   33 ar
    33   36   35 1
    34   37   22 ar
    35   38   27 ar
    36   13   14 ar
    37   18   20 ar
    38   29   38 ar
    39   35   37 ar
    40   37   38 ar
@<TRIPOS>SUBSTRUCTURE
     1 RES1 1

@<TRIPOS>CRYSIN
   7.3240    7.4080   29.1490  90.0000  95.4600  90.0000  14 1

