# MOL2 file generated by ConQuest
# Please check atom types

@<TRIPOS>MOLECULE
QABWOF
    69    74     1
SMALL
NO_CHARGES
****
Generated from CSD

@<TRIPOS>ATOM
      1 O1        12.1026    0.8838    9.9361 O.3       1 RES1    0.0000
      2 O2        10.8410   -0.4753    8.6825 O.3       1 RES1    0.0000
      3 O3         7.8411    0.7105   10.2378 O.3       1 RES1    0.0000
      4 O4         7.5773    2.3492    8.7141 O.3       1 RES1    0.0000
      5 O5        10.8355    5.7085    7.0707 O.3       1 RES1    0.0000
      6 O6        10.3521    2.4210    9.7523 O.3       1 RES1    0.0000
      7 O7         7.7846    3.1983    5.1333 O.2       1 RES1    0.0000
      8 O8         9.8776    2.6562    5.3401 O.2       1 RES1    0.0000
      9 N1        11.2079    4.3495    7.5084 N.3       1 RES1    0.0000
     10 N2         8.9054    3.2776    5.6552 N.pl3     1 RES1    0.0000
     11 C1        10.7623    1.1709   10.2761 C.3       1 RES1    0.0000
     12 C2        10.0095    0.0149    9.7130 C.3       1 RES1    0.0000
     13 C3         8.6626    0.3268    9.1326 C.3       1 RES1    0.0000
     14 C4         8.6681    1.5546    8.2324 C.3       1 RES1    0.0000
     15 C5         9.9752    2.3393    8.3636 C.3       1 RES1    0.0000
     16 C6         9.8754    3.8246    7.9384 C.3       1 RES1    0.0000
     17 C7         8.9952    4.2752    6.7796 C.3       1 RES1    0.0000
     18 C8         9.7058    5.5080    6.2164 C.3       1 RES1    0.0000
     19 C9        12.1891   -0.2921    9.1240 C.3       1 RES1    0.0000
     20 C10       13.0527   -0.0173    7.9326 C.3       1 RES1    0.0000
     21 C11       12.6480   -1.5101    9.9792 C.3       1 RES1    0.0000
     22 C12        6.8977    1.6536    9.7503 C.3       1 RES1    0.0000
     23 C13        5.6916    0.9679    9.1518 C.3       1 RES1    0.0000
     24 C14        6.5319    2.5894   10.8632 C.3       1 RES1    0.0000
     25 C15       12.1248    4.5896    8.6270 C.3       1 RES1    0.0000
     26 C16       13.4939    5.0673    8.1558 C.ar      1 RES1    0.0000
     27 C17       13.7910    6.4165    8.1175 C.ar      1 RES1    0.0000
     28 C18       15.0603    6.8423    7.6884 C.ar      1 RES1    0.0000
     29 C19       15.9971    5.8942    7.3264 C.ar      1 RES1    0.0000
     30 C20       15.7022    4.5500    7.3724 C.ar      1 RES1    0.0000
     31 C21       14.4340    4.1489    7.7909 C.ar      1 RES1    0.0000
     32 C22        8.8322    6.7556    6.2777 C.ar      1 RES1    0.0000
     33 C23        8.0584    7.0230    5.1572 C.ar      1 RES1    0.0000
     34 C24        7.2170    8.1617    5.1869 C.ar      1 RES1    0.0000
     35 C25        7.1483    8.9663    6.3179 C.ar      1 RES1    0.0000
     36 C26        7.9442    8.6816    7.4126 C.ar      1 RES1    0.0000
     37 C27        8.7879    7.5701    7.3992 C.ar      1 RES1    0.0000
     38 H1        10.6093    1.2873   11.2817 H         1 RES1    0.0000
     39 H2         9.8111   -0.6436   10.4485 H         1 RES1    0.0000
     40 H3         8.3478   -0.4703    8.5714 H         1 RES1    0.0000
     41 H4         8.5695    1.2873    7.2594 H         1 RES1    0.0000
     42 H5        10.6204    1.8319    7.7765 H         1 RES1    0.0000
     43 H6         9.4564    4.1836    8.7917 H         1 RES1    0.0000
     44 H7         8.0706    4.4311    7.1540 H         1 RES1    0.0000
     45 H8         9.9441    5.3718    5.2482 H         1 RES1    0.0000
     46 H9        13.0704    7.1047    8.3607 H         1 RES1    0.0000
     47 H10       15.2987    7.8473    7.6808 H         1 RES1    0.0000
     48 H11       16.9062    6.1887    7.0104 H         1 RES1    0.0000
     49 H12       16.4073    3.8618    7.1444 H         1 RES1    0.0000
     50 H13       14.2012    3.1439    7.8148 H         1 RES1    0.0000
     51 H14        8.0928    6.4363    4.3384 H         1 RES1    0.0000
     52 H15        6.6516    8.4167    4.3863 H         1 RES1    0.0000
     53 H16        6.4964    9.7535    6.3591 H         1 RES1    0.0000
     54 H17        7.9265    9.2831    8.2171 H         1 RES1    0.0000
     55 H18        9.3566    7.3522    8.2075 H         1 RES1    0.0000
     56 H19       13.0150   -0.7922    7.2881 H         1 RES1    0.0000
     57 H20       12.7489    0.8169    7.4605 H         1 RES1    0.0000
     58 H21       14.0127    0.0990    8.2266 H         1 RES1    0.0000
     59 H22       12.0505   -1.5843   10.7933 H         1 RES1    0.0000
     60 H23       12.5826   -2.3517    9.4621 H         1 RES1    0.0000
     61 H24       13.5914   -1.3863   10.3049 H         1 RES1    0.0000
     62 H25        6.1306    2.1042   11.6456 H         1 RES1    0.0000
     63 H26        7.3389    3.0944   11.2051 H         1 RES1    0.0000
     64 H27        5.8534    3.2677   10.5539 H         1 RES1    0.0000
     65 H28        5.9754    0.3961    8.3703 H         1 RES1    0.0000
     66 H29        5.2437    0.3713    9.8260 H         1 RES1    0.0000
     67 H30        4.9998    1.6338    8.8108 H         1 RES1    0.0000
     68 H31       11.7179    5.2233    9.2993 H         1 RES1    0.0000
     69 H32       12.1946    3.7628    9.2131 H         1 RES1    0.0000
@<TRIPOS>BOND
     1    1   11 1
     2    2   12 1
     3    3   13 1
     4    4   14 1
     5    5    9 1
     6    6   11 1
     7    7   10 2
     8    8   10 2
     9    9   16 1
    10   10   17 1
    11   11   12 1
    12   12   13 1
    13   13   14 1
    14   14   15 1
    15   15    6 1
    16   16   15 1
    17   17   16 1
    18   18    5 1
    19   19    1 1
    20   20   19 1
    21   21   19 1
    22   22    3 1
    23   23   22 1
    24   24   22 1
    25   25    9 1
    26   26   25 1
    27   27   26 ar
    28   28   27 ar
    29   29   28 ar
    30   30   29 ar
    31   31   26 ar
    32   32   18 1
    33   33   32 ar
    34   34   33 ar
    35   35   34 ar
    36   36   35 ar
    37   37   32 ar
    38   38   11 1
    39   39   12 1
    40   40   13 1
    41   41   14 1
    42   42   15 1
    43   43   16 1
    44   44   17 1
    45   45   18 1
    46   46   27 1
    47   47   28 1
    48   48   29 1
    49   49   30 1
    50   50   31 1
    51   51   33 1
    52   52   34 1
    53   53   35 1
    54   54   36 1
    55   55   37 1
    56   56   20 1
    57   57   20 1
    58   58   20 1
    59   59   21 1
    60   60   21 1
    61   61   21 1
    62   62   24 1
    63   63   24 1
    64   64   24 1
    65   65   23 1
    66   66   23 1
    67   67   23 1
    68   68   25 1
    69   69   25 1
    70    2   19 1
    71    4   22 1
    72   17   18 1
    73   30   31 ar
    74   36   37 ar
@<TRIPOS>SUBSTRUCTURE
     1 RES1 1

@<TRIPOS>CRYSIN
  11.0860   24.7550    9.5770  90.0000  90.0000  90.0000  19 1

