# MOL2 file generated by ConQuest
# Please check atom types

@<TRIPOS>MOLECULE
QACWID
    40    41     1
SMALL
NO_CHARGES
****
Generated from CSD

@<TRIPOS>ATOM
      1 O1         5.0625    9.1519    7.2397 O.3       1 RES1    0.0000
      2 O2         2.9401    5.1831    7.3567 O.2       1 RES1    0.0000
      3 O3         1.1914    8.6843    4.5293 O.2       1 RES1    0.0000
      4 O4         1.9461    9.0619    2.4134 O.3       1 RES1    0.0000
      5 N1         3.1322    7.8100    3.7769 N.am      1 RES1    0.0000
      6 N2         4.5651    8.8070    5.9409 N.2       1 RES1    0.0000
      7 C1         4.0768    7.5337    2.6912 C.3       1 RES1    0.0000
      8 H1         4.5128    8.3467    2.3907 H         1 RES1    0.0000
      9 H2         3.6329    7.1138    1.9387 H         1 RES1    0.0000
     10 C2         5.0643    6.5925    3.3372 C.3       1 RES1    0.0000
     11 H3         5.7970    7.0826    3.7420 H         1 RES1    0.0000
     12 H4         5.4232    5.9677    2.6884 H         1 RES1    0.0000
     13 C3         4.2480    5.8720    4.3893 C.3       1 RES1    0.0000
     14 H5         4.8177    5.5121    5.0870 H         1 RES1    0.0000
     15 H6         3.7331    5.1491    3.9971 H         1 RES1    0.0000
     16 C4         3.3343    6.9630    4.9347 C.3       1 RES1    0.0000
     17 H7         2.4794    6.5702    5.2082 H         1 RES1    0.0000
     18 C5         3.9586    7.6756    6.1026 C.2       1 RES1    0.0000
     19 C6         4.0107    7.2367    7.4588 C.2       1 RES1    0.0000
     20 C7         4.7071    8.2076    8.0889 C.2       1 RES1    0.0000
     21 H8         4.9092    8.2097    8.9975 H         1 RES1    0.0000
     22 C8         3.4402    6.0269    8.0487 C.2       1 RES1    0.0000
     23 C9         3.4865    5.8908    9.5463 C.3       1 RES1    0.0000
     24 H9         3.1503    5.0276    9.7991 H         1 RES1    0.0000
     25 H10        2.9455    6.5747    9.9471 H         1 RES1    0.0000
     26 H11        4.3935    5.9822    9.8479 H         1 RES1    0.0000
     27 C10        2.0099    8.5344    3.6443 C.2       1 RES1    0.0000
     28 C11        0.7588    9.7706    1.9181 C.3       1 RES1    0.0000
     29 C12        1.1535   10.0675    0.4890 C.3       1 RES1    0.0000
     30 H12        1.9776   10.5587    0.4803 H         1 RES1    0.0000
     31 H13        0.4652   10.5877    0.0693 H         1 RES1    0.0000
     32 H14        1.2676    9.2422    0.0110 H         1 RES1    0.0000
     33 C13        0.5785   11.0560    2.6599 C.3       1 RES1    0.0000
     34 H15       -0.1908   11.5177    2.3183 H         1 RES1    0.0000
     35 H16        1.3582   11.6046    2.5435 H         1 RES1    0.0000
     36 H17        0.4530   10.8717    3.5939 H         1 RES1    0.0000
     37 C14       -0.4469    8.8847    2.0238 C.3       1 RES1    0.0000
     38 H18       -1.1604    9.2511    1.4962 H         1 RES1    0.0000
     39 H19       -0.7231    8.8290    2.9419 H         1 RES1    0.0000
     40 H20       -0.2283    8.0070    1.7009 H         1 RES1    0.0000
@<TRIPOS>BOND
     1    1    6 1
     2    2   22 2
     3    3   27 2
     4    4   27 1
     5    5    7 1
     6    6   18 2
     7    7    8 1
     8    9    7 1
     9   10    7 1
    10   11   10 1
    11   12   10 1
    12   13   10 1
    13   14   13 1
    14   15   13 1
    15   16    5 1
    16   17   16 1
    17   18   16 1
    18   19   18 1
    19   20    1 1
    20   21   20 1
    21   22   19 1
    22   23   22 1
    23   24   23 1
    24   25   23 1
    25   26   23 1
    26   27    5 1
    27   28    4 1
    28   29   28 1
    29   30   29 1
    30   31   29 1
    31   32   29 1
    32   33   28 1
    33   34   33 1
    34   35   33 1
    35   36   33 1
    36   37   28 1
    37   38   37 1
    38   39   37 1
    39   40   37 1
    40   13   16 1
    41   19   20 2
@<TRIPOS>SUBSTRUCTURE
     1 RES1 1

@<TRIPOS>CRYSIN
   8.7120   11.1379   15.7491  90.0000  90.0000  90.0000  19 1

