# MOL2 file generated by ConQuest
# Please check atom types

@<TRIPOS>MOLECULE
QACWEZ
    35    36     1
SMALL
NO_CHARGES
****
Generated from CSD

@<TRIPOS>ATOM
      1 O1        -0.9045    0.4901    1.0504 O.3       1 RES1    0.0000
      2 O2         1.3566    5.3971    5.2841 O.2       1 RES1    0.0000
      3 O3         1.1603    3.7171    6.8102 O.3       1 RES1    0.0000
      4 O4         1.7124   -1.1294    4.4047 O.2       1 RES1    0.0000
      5 O5         0.4715   -2.6662    3.3676 O.3       1 RES1    0.0000
      6 H1         0.8335   -3.1703    4.0365 H         1 RES1    0.0000
      7 N1        -0.0710    1.5113    1.5789 N.2       1 RES1    0.0000
      8 N2         1.1534    3.2358    4.6746 N.am      1 RES1    0.0000
      9 C1         0.6404    0.9242    2.5077 C.2       1 RES1    0.0000
     10 C2         0.3287   -0.4580    2.6198 C.2       1 RES1    0.0000
     11 C3        -0.6308   -0.6457    1.6929 C.2       1 RES1    0.0000
     12 H2        -1.0566   -1.4779    1.5201 H         1 RES1    0.0000
     13 C4         1.6204    1.7161    3.3051 C.3       1 RES1    0.0000
     14 H3         2.5609    1.4199    3.1374 H         1 RES1    0.0000
     15 C5         1.4859    3.2573    3.2437 C.3       1 RES1    0.0000
     16 H4         2.3311    3.7271    3.0350 H         1 RES1    0.0000
     17 H5         0.7478    3.5744    2.6631 H         1 RES1    0.0000
     18 C6         1.3013    1.7846    4.8261 C.3       1 RES1    0.0000
     19 H6         0.4661    1.3194    5.0840 H         1 RES1    0.0000
     20 H7         2.0547    1.5156    5.4082 H         1 RES1    0.0000
     21 C7         1.2387    4.2108    5.5733 C.2       1 RES1    0.0000
     22 C8         0.9558    4.5820    7.9870 C.3       1 RES1    0.0000
     23 C9        -0.2188    5.4979    7.7531 C.3       1 RES1    0.0000
     24 H8        -1.0069    4.9643    7.5202 H         1 RES1    0.0000
     25 H9        -0.0121    6.1126    7.0187 H         1 RES1    0.0000
     26 H10       -0.3992    6.0111    8.5677 H         1 RES1    0.0000
     27 C10        2.2462    5.3229    8.2654 C.3       1 RES1    0.0000
     28 H11        2.1875    5.7637    9.1393 H         1 RES1    0.0000
     29 H12        2.3935    5.9956    7.5680 H         1 RES1    0.0000
     30 H13        2.9928    4.6879    8.2692 H         1 RES1    0.0000
     31 C11        0.6469    3.5959    9.0845 C.3       1 RES1    0.0000
     32 H14        0.4286    4.0809    9.9070 H         1 RES1    0.0000
     33 H15        1.4284    3.0244    9.2382 H         1 RES1    0.0000
     34 H16       -0.1164    3.0418    8.8202 H         1 RES1    0.0000
     35 C12        0.9171   -1.4349    3.5537 C.2       1 RES1    0.0000
@<TRIPOS>BOND
     1    1    7 1
     2    2   21 2
     3    3   21 1
     4    4   35 2
     5    5    6 1
     6    7    9 2
     7    8   15 1
     8    9   10 1
     9   10   11 2
    10   11    1 1
    11   12   11 1
    12   13    9 1
    13   14   13 1
    14   15   13 1
    15   16   15 1
    16   17   15 1
    17   18    8 1
    18   19   18 1
    19   20   18 1
    20   21    8 1
    21   22    3 1
    22   23   22 1
    23   24   23 1
    24   25   23 1
    25   26   23 1
    26   27   22 1
    27   28   27 1
    28   29   27 1
    29   30   27 1
    30   31   22 1
    31   32   31 1
    32   33   31 1
    33   34   31 1
    34   35    5 1
    35   10   35 1
    36   13   18 1
@<TRIPOS>SUBSTRUCTURE
     1 RES1 1

@<TRIPOS>CRYSIN
  16.0117    9.6657   17.4382  90.0000 101.9480  90.0000  15 1

