# MOL2 file generated by ConQuest
# Please check atom types

@<TRIPOS>MOLECULE
QADLIQ
    32    33     1
SMALL
NO_CHARGES
****
Generated from CSD

@<TRIPOS>ATOM
      1 O1        -2.1079   -5.3419   -8.4258 O.3       1 RES1    0.0000
      2 O2         0.2478   -1.8169  -11.2360 O.2       1 RES1    0.0000
      3 O3         2.2731   -2.7259  -11.4007 O.3       1 RES1    0.0000
      4 O4        -0.6922   -1.6321   -8.2842 O.2       1 RES1    0.0000
      5 O5        -2.1511   -1.0312   -9.7595 O.2       1 RES1    0.0000
      6 N1        -1.4935   -1.8755   -9.1756 N.pl3     1 RES1    0.0000
      7 C1        -1.7272   -3.3350   -9.5050 C.3       1 RES1    0.0000
      8 C2        -2.5401   -3.5117  -10.7845 C.3       1 RES1    0.0000
      9 C3        -4.0337   -3.2826  -10.6371 C.3       1 RES1    0.0000
     10 C4        -4.6173   -4.1074   -9.5061 C.3       1 RES1    0.0000
     11 C5        -3.9209   -3.7653   -8.2024 C.3       1 RES1    0.0000
     12 C6        -2.4327   -3.9677   -8.2726 C.3       1 RES1    0.0000
     13 C7        -0.7130   -5.3666   -8.7264 C.3       1 RES1    0.0000
     14 C8        -0.4444   -4.1310   -9.5533 C.2       1 RES1    0.0000
     15 C9         0.6965   -3.9020  -10.1879 C.2       1 RES1    0.0000
     16 C10        1.0083   -2.7054  -10.9814 C.2       1 RES1    0.0000
     17 C11        2.7147   -1.5735  -12.1550 C.3       1 RES1    0.0000
     18 H1        -2.1649   -2.9272  -11.4594 H         1 RES1    0.0000
     19 H2        -2.3639   -4.4371  -11.0678 H         1 RES1    0.0000
     20 H3        -4.1916   -2.3829  -10.5035 H         1 RES1    0.0000
     21 H4        -4.4808   -3.5230  -11.4939 H         1 RES1    0.0000
     22 H5        -5.5432   -3.9133   -9.4324 H         1 RES1    0.0000
     23 H6        -4.5026   -5.1458   -9.7088 H         1 RES1    0.0000
     24 H7        -4.0773   -2.8143   -8.0043 H         1 RES1    0.0000
     25 H8        -4.3045   -4.2933   -7.5091 H         1 RES1    0.0000
     26 H9        -1.9593   -3.6051   -7.4745 H         1 RES1    0.0000
     27 H10       -0.2046   -5.2896   -7.8661 H         1 RES1    0.0000
     28 H11       -0.5246   -6.1318   -9.1905 H         1 RES1    0.0000
     29 H12        1.4220   -4.5090  -10.1234 H         1 RES1    0.0000
     30 H13        2.1662   -1.5817  -12.9451 H         1 RES1    0.0000
     31 H14        2.5273   -0.7601  -11.6437 H         1 RES1    0.0000
     32 H15        3.4720   -1.7872  -12.5305 H         1 RES1    0.0000
@<TRIPOS>BOND
     1    1   12 1
     2    2   16 2
     3    3   16 1
     4    4    6 2
     5    5    6 2
     6    6    7 1
     7    7    8 1
     8    8    9 1
     9    9   10 1
    10   10   11 1
    11   11   12 1
    12   12    7 1
    13   13    1 1
    14   14    7 1
    15   15   14 2
    16   16   15 1
    17   17    3 1
    18   18    8 1
    19   19    8 1
    20   20    9 1
    21   21    9 1
    22   22   10 1
    23   23   10 1
    24   24   11 1
    25   25   11 1
    26   26   12 1
    27   27   13 1
    28   28   13 1
    29   29   15 1
    30   30   17 1
    31   31   17 1
    32   32   17 1
    33   13   14 1
@<TRIPOS>SUBSTRUCTURE
     1 RES1 1

@<TRIPOS>CRYSIN
   9.7840   10.2710   11.5570  90.0000  94.7700  90.0000  14 1

