# MOL2 file generated by ConQuest
# Please check atom types

@<TRIPOS>MOLECULE
QADWOI
    43    46     1
SMALL
NO_CHARGES
****
Generated from CSD

@<TRIPOS>ATOM
      1 O1        -8.5440    0.3332   12.4556 O.2       1 RES1    0.0000
      2 O2        -7.7013    0.6256   14.3979 O.2       1 RES1    0.0000
      3 O3        -2.3399    0.7608    9.6555 O.3       1 RES1    0.0000
      4 O4        -1.3140    1.0772    7.7365 O.2       1 RES1    0.0000
      5 N1        -7.5902    0.4684   13.2080 N.pl3     1 RES1    0.0000
      6 C1        -3.6964    0.4655   11.5589 C.ar      1 RES1    0.0000
      7 C2        -3.8953    0.5832   12.9163 C.ar      1 RES1    0.0000
      8 C3        -5.1631    0.5832   13.4686 C.ar      1 RES1    0.0000
      9 C4        -4.8123    0.3384   10.7274 C.ar      1 RES1    0.0000
     10 C5        -6.2364    0.4472   12.6123 C.ar      1 RES1    0.0000
     11 C6        -2.3417    0.4845   10.9974 C.2       1 RES1    0.0000
     12 C7        -1.1771    0.8192    8.9077 C.2       1 RES1    0.0000
     13 C8         0.0829    0.5839    9.5950 C.2       1 RES1    0.0000
     14 C9         0.0750    0.3603   10.9400 C.2       1 RES1    0.0000
     15 C10       -1.1812    0.2836   11.6380 C.2       1 RES1    0.0000
     16 C11       -6.0793    0.3274   11.2549 C.ar      1 RES1    0.0000
     17 C12        1.3208    0.2507   11.7544 C.ar      1 RES1    0.0000
     18 C13        2.2924    1.2277   11.6691 C.ar      1 RES1    0.0000
     19 C14        1.2929    0.5569    8.7309 C.ar      1 RES1    0.0000
     20 C15        1.6777    1.6560    7.9707 C.ar      1 RES1    0.0000
     21 C16        2.7978    1.5829    7.1656 C.ar      1 RES1    0.0000
     22 C17        3.5305    0.4421    7.0911 C.ar      1 RES1    0.0000
     23 C18        3.1647   -0.6511    7.8156 C.ar      1 RES1    0.0000
     24 C19        2.0498   -0.5963    8.6471 C.ar      1 RES1    0.0000
     25 C20        1.5033   -0.7878   12.6542 C.ar      1 RES1    0.0000
     26 C21        2.6496   -0.8433   13.4267 C.ar      1 RES1    0.0000
     27 C22        3.6019    0.1286   13.3321 C.ar      1 RES1    0.0000
     28 C23        3.4235    1.1634   12.4618 C.ar      1 RES1    0.0000
     29 H1         0.8541   -1.4762   12.6743 H         1 RES1    0.0000
     30 H2         2.7615   -1.5858   14.0240 H         1 RES1    0.0000
     31 H3         4.4206    0.1096   13.7913 H         1 RES1    0.0000
     32 H4         4.0367    1.9001   12.4572 H         1 RES1    0.0000
     33 H5         3.7049   -1.4689    7.7256 H         1 RES1    0.0000
     34 H6         4.2268    0.3727    6.5621 H         1 RES1    0.0000
     35 H7         3.0289    2.3386    6.8103 H         1 RES1    0.0000
     36 H8         1.1230    2.4774    7.9738 H         1 RES1    0.0000
     37 H9         1.7269   -1.3885    9.2769 H         1 RES1    0.0000
     38 H10        2.1514    1.9293   10.9989 H         1 RES1    0.0000
     39 H11       -1.1676    0.1242   12.5192 H         1 RES1    0.0000
     40 H12       -4.6706    0.2777    9.7113 H         1 RES1    0.0000
     41 H13       -6.8764    0.2339   10.7662 H         1 RES1    0.0000
     42 H14       -5.3094    0.6723   14.3653 H         1 RES1    0.0000
     43 H15       -3.1966    0.6943   13.6206 H         1 RES1    0.0000
@<TRIPOS>BOND
     1    1    5 2
     2    2    5 2
     3    3   11 1
     4    4   12 2
     5    5   10 1
     6    6    7 ar
     7    7    8 ar
     8    8   10 ar
     9    9    6 ar
    10   10   16 ar
    11   11    6 1
    12   12    3 1
    13   13   12 1
    14   14   13 2
    15   15   11 2
    16   16    9 ar
    17   17   14 1
    18   18   17 ar
    19   19   13 1
    20   20   19 ar
    21   21   20 ar
    22   22   21 ar
    23   23   22 ar
    24   24   19 ar
    25   25   17 ar
    26   26   25 ar
    27   27   26 ar
    28   28   18 ar
    29   29   25 1
    30   30   26 1
    31   31   27 1
    32   32   28 1
    33   33   23 1
    34   34   22 1
    35   35   21 1
    36   36   20 1
    37   37   24 1
    38   38   18 1
    39   39   15 1
    40   40    9 1
    41   41   16 1
    42   42    8 1
    43   43    7 1
    44   14   15 1
    45   23   24 ar
    46   27   28 ar
@<TRIPOS>SUBSTRUCTURE
     1 RES1 1

@<TRIPOS>CRYSIN
  16.0948    7.3080   16.4446  90.0000 109.3754  90.0000  14 1

