# MOL2 file generated by ConQuest
# Please check atom types

@<TRIPOS>MOLECULE
QAFREX
    50    54     1
SMALL
NO_CHARGES
****
Generated from CSD

@<TRIPOS>ATOM
      1 N1         8.1051    9.4286   10.6010 N.2       1 RES1    0.0000
      2 O1         9.0009    9.0937   11.5872 O.3       1 RES1    0.0000
      3 N2         8.8893    7.7702   11.9333 N.2       1 RES1    0.0000
      4 O2         5.4134    3.9164   11.1804 O.2       1 RES1    0.0000
      5 C1         7.9424    7.3230   11.1831 C.2       1 RES1    0.0000
      6 C2         7.4259    5.9721   11.1420 C.2       1 RES1    0.0000
      7 O3         5.7619    4.0037    9.0728 O.2       1 RES1    0.0000
      8 N3         5.8241    4.4610   10.1850 N.pl3     1 RES1    0.0000
      9 N4         6.9824    8.4806    8.0195 N.pl3     1 RES1    0.0000
     10 O4         7.0527    9.6221    7.6878 O.2       1 RES1    0.0000
     11 C3         6.4002    5.8056   10.3171 C.2       1 RES1    0.0000
     12 C4         5.7204    6.7733    9.4147 C.3       1 RES1    0.0000
     13 H1         5.6902    6.3967    8.4896 H         1 RES1    0.0000
     14 O5         7.4198    7.5533    7.3854 O.2       1 RES1    0.0000
     15 C5         4.2653    7.1083    9.8834 C.3       1 RES1    0.0000
     16 H2         3.7491    6.3561   10.2933 H         1 RES1    0.0000
     17 O6         7.4233    5.8758   13.8485 O.3       1 RES1    0.0000
     18 C6         3.6386    7.7734    8.6895 C.2       1 RES1    0.0000
     19 H3         2.9619    7.4070    8.1328 H         1 RES1    0.0000
     20 O7        10.0506    1.9023   13.8147 O.3       1 RES1    0.0000
     21 C7         4.1966    8.9459    8.5586 C.2       1 RES1    0.0000
     22 H4         4.0049    9.5776    7.8753 H         1 RES1    0.0000
     23 O8         8.8663    4.1448    9.8490 O.3       1 RES1    0.0000
     24 C8         6.3662    8.1816    9.3723 C.3       1 RES1    0.0000
     25 C9         5.1974    9.1294    9.6734 C.3       1 RES1    0.0000
     26 H5         5.4378   10.0723    9.9035 H         1 RES1    0.0000
     27 C10        7.4622    8.3412   10.3552 C.2       1 RES1    0.0000
     28 C11        4.5389    8.3034   10.7838 C.3       1 RES1    0.0000
     29 H6         5.1586    8.0926   11.5261 H         1 RES1    0.0000
     30 H7         3.7112    8.7192   11.1348 H         1 RES1    0.0000
     31 C12        8.1292    4.9263   11.8836 C.ar      1 RES1    0.0000
     32 C13        8.1171    4.8867   13.2624 C.ar      1 RES1    0.0000
     33 C14        8.7392    3.8875   13.9681 C.ar      1 RES1    0.0000
     34 H8         8.6904    3.8476   14.9164 H         1 RES1    0.0000
     35 C15        9.4300    2.9553   13.2507 C.ar      1 RES1    0.0000
     36 C16        9.5451    3.0221   11.8756 C.ar      1 RES1    0.0000
     37 H9        10.0901    2.3989   11.4081 H         1 RES1    0.0000
     38 C17        8.8655    3.9943   11.1932 C.ar      1 RES1    0.0000
     39 C18        7.6422    6.1000   15.2329 C.3       1 RES1    0.0000
     40 H10        7.2038    6.9349   15.5019 H         1 RES1    0.0000
     41 H11        8.6042    6.1663   15.4055 H         1 RES1    0.0000
     42 H12        7.2683    5.3548   15.7478 H         1 RES1    0.0000
     43 C19        9.8318    1.6606   15.2012 C.3       1 RES1    0.0000
     44 H13       10.2816    0.8301   15.4630 H         1 RES1    0.0000
     45 H14        8.8701    1.5797   15.3710 H         1 RES1    0.0000
     46 H15       10.1936    2.4063   15.7234 H         1 RES1    0.0000
     47 C20        9.5308    3.1697    9.0822 C.3       1 RES1    0.0000
     48 H16        9.4002    3.3576    8.1299 H         1 RES1    0.0000
     49 H17        9.1676    2.2845    9.2936 H         1 RES1    0.0000
     50 H18       10.4885    3.1874    9.2893 H         1 RES1    0.0000
@<TRIPOS>BOND
     1    1    2 1
     2    2    3 1
     3    3    5 2
     4    4    8 2
     5    5    6 1
     6    6   11 2
     7    7    8 2
     8    8   11 1
     9    9   10 2
    10   11   12 1
    11   12   13 1
    12   14    9 2
    13   15   12 1
    14   16   15 1
    15   17   32 1
    16   18   15 1
    17   19   18 1
    18   20   35 1
    19   21   18 2
    20   22   21 1
    21   23   38 1
    22   24    9 1
    23   25   21 1
    24   26   25 1
    25   27    1 2
    26   28   15 1
    27   29   28 1
    28   30   28 1
    29   31    6 1
    30   32   31 ar
    31   33   32 ar
    32   34   33 1
    33   35   33 ar
    34   36   35 ar
    35   37   36 1
    36   38   31 ar
    37   39   17 1
    38   40   39 1
    39   41   39 1
    40   42   39 1
    41   43   20 1
    42   44   43 1
    43   45   43 1
    44   46   43 1
    45   47   23 1
    46   48   47 1
    47   49   47 1
    48   50   47 1
    49    5   27 1
    50   12   24 1
    51   24   25 1
    52   24   27 1
    53   25   28 1
    54   36   38 ar
@<TRIPOS>SUBSTRUCTURE
     1 RES1 1

@<TRIPOS>CRYSIN
   7.5994    8.7910   15.1990  74.5200  78.4400  85.9400   2 1

