# MOL2 file generated by ConQuest
# Please check atom types

@<TRIPOS>MOLECULE
QAHPIZ
    36    38     1
SMALL
NO_CHARGES
****
Generated from CSD

@<TRIPOS>ATOM
      1 N1         6.5954    2.9690   11.8010 N.2       1 RES1    0.0000
      2 N2         7.4514    3.7697   11.0133 N.2       1 RES1    0.0000
      3 C1         8.5774    3.9087   11.6903 C.2       1 RES1    0.0000
      4 N3         8.4670    3.1838   12.9172 N.pl3     1 RES1    0.0000
      5 C2         7.1959    2.6467   12.9285 C.2       1 RES1    0.0000
      6 C3         6.6043    1.8018   14.0283 C.2       1 RES1    0.0000
      7 H1         7.1604    1.6962   14.7658 H         1 RES1    0.0000
      8 C4         5.4180    1.1726   14.1378 C.2       1 RES1    0.0000
      9 H2         5.2947    0.7529   14.9583 H         1 RES1    0.0000
     10 C5         4.2910    1.0201   13.2268 C.2       1 RES1    0.0000
     11 O1         4.2953    1.7016   12.0326 O.3       1 RES1    0.0000
     12 H3         4.9736    2.1593   11.9822 H         1 RES1    0.0000
     13 O2         3.3230    0.2681   13.5250 O.2       1 RES1    0.0000
     14 N4        10.6983    5.0145   12.1483 N.ar      1 RES1    0.0000
     15 C6         9.7484    4.7428   11.2536 C.ar      1 RES1    0.0000
     16 C7         9.8156    5.2456    9.9412 C.ar      1 RES1    0.0000
     17 H4         9.1429    5.0497    9.3308 H         1 RES1    0.0000
     18 C8        10.9151    6.0526    9.5561 C.ar      1 RES1    0.0000
     19 H5        10.9715    6.3902    8.6916 H         1 RES1    0.0000
     20 C9        11.9071    6.3324   10.4848 C.ar      1 RES1    0.0000
     21 H6        12.6495    6.8452   10.2595 H         1 RES1    0.0000
     22 C10       11.7494    5.8170   11.7671 C.ar      1 RES1    0.0000
     23 H7        12.3924    6.0264   12.4050 H         1 RES1    0.0000
     24 C11        9.4876    2.9347   13.9239 C.ar      1 RES1    0.0000
     25 C12       10.4851    1.9291   13.6596 C.ar      1 RES1    0.0000
     26 H8        10.4605    1.4335   12.8732 H         1 RES1    0.0000
     27 C13       11.4847    1.7115   14.6009 C.ar      1 RES1    0.0000
     28 H9        12.1700    1.0995   14.4600 H         1 RES1    0.0000
     29 C14       11.3977    2.4797   15.7901 C.ar      1 RES1    0.0000
     30 N5        12.4794    2.2206   16.7779 N.pl3     1 RES1    0.0000
     31 O3        12.4037    3.0692   17.7695 O.2       1 RES1    0.0000
     32 O4        13.2987    1.2728   16.5791 O.2       1 RES1    0.0000
     33 C15       10.3638    3.4555   16.0606 C.ar      1 RES1    0.0000
     34 H10       10.3573    3.9286   16.8609 H         1 RES1    0.0000
     35 C16        9.3914    3.6704   15.1118 C.ar      1 RES1    0.0000
     36 H11        8.7015    4.2779   15.2527 H         1 RES1    0.0000
@<TRIPOS>BOND
     1    1    2 1
     2    2    3 2
     3    3    4 1
     4    4    5 1
     5    5    1 2
     6    6    5 1
     7    7    6 1
     8    8    6 2
     9    9    8 1
    10   10    8 1
    11   11   10 1
    12   12   11 1
    13   13   10 2
    14   14   15 ar
    15   15    3 1
    16   16   15 ar
    17   17   16 1
    18   18   16 ar
    19   19   18 1
    20   20   18 ar
    21   21   20 1
    22   22   14 ar
    23   23   22 1
    24   24    4 1
    25   25   24 ar
    26   26   25 1
    27   27   25 ar
    28   28   27 1
    29   29   27 ar
    30   30   29 1
    31   31   30 2
    32   32   30 2
    33   33   29 ar
    34   34   33 1
    35   35   24 ar
    36   36   35 1
    37   20   22 ar
    38   33   35 ar
@<TRIPOS>SUBSTRUCTURE
     1 RES1 1

@<TRIPOS>CRYSIN
  15.4460    9.0270   12.6860  90.0000  97.2800  90.0000  14 1

