# MOL2 file generated by ConQuest
# Please check atom types

@<TRIPOS>MOLECULE
QAJJUI
    32    33     1
SMALL
NO_CHARGES
****
Generated from CSD

@<TRIPOS>ATOM
      1 N1        15.9972    7.3376    1.7559 N.2       1 RES1    0.0000
      2 N2        14.7033    7.3212    1.2832 N.am      1 RES1    0.0000
      3 N3        10.1318    8.4651   -0.9059 N.pl3     1 RES1    0.0000
      4 O1        19.5951   11.3390    4.2302 O.3       1 RES1    0.0000
      5 O2        14.6805    5.0799    1.1551 O.2       1 RES1    0.0000
      6 O3         8.9979    8.3566   -1.3449 O.2       1 RES1    0.0000
      7 O4        10.7444    9.5174   -0.9139 O.2       1 RES1    0.0000
      8 C1        17.7779    8.6441    2.6541 C.ar      1 RES1    0.0000
      9 C2        18.1185    9.8759    3.1818 C.ar      1 RES1    0.0000
     10 H1        17.4841   10.5562    3.1970 H         1 RES1    0.0000
     11 C3        19.3792   10.1183    3.6866 C.ar      1 RES1    0.0000
     12 C4        20.3270    9.1281    3.6399 C.ar      1 RES1    0.0000
     13 H2        21.1912    9.2879    3.9460 H         1 RES1    0.0000
     14 C5        19.9843    7.8895    3.1304 C.ar      1 RES1    0.0000
     15 H3        20.6217    7.2125    3.1105 H         1 RES1    0.0000
     16 C6        18.7214    7.6384    2.6552 C.ar      1 RES1    0.0000
     17 H4        18.5022    6.7937    2.3346 H         1 RES1    0.0000
     18 C7        16.4289    8.4627    2.1208 C.2       1 RES1    0.0000
     19 H5        15.8718    9.2028    2.0484 H         1 RES1    0.0000
     20 C8        14.1118    6.1513    1.0167 C.2       1 RES1    0.0000
     21 C9        12.6875    6.2120    0.5675 C.ar      1 RES1    0.0000
     22 C10       12.0890    7.3532    0.0581 C.ar      1 RES1    0.0000
     23 H6        12.5636    8.1498   -0.0093 H         1 RES1    0.0000
     24 C11       10.7745    7.2798   -0.3460 C.ar      1 RES1    0.0000
     25 C12       10.0370    6.1241   -0.2606 C.ar      1 RES1    0.0000
     26 H7         9.1497    6.1024   -0.5387 H         1 RES1    0.0000
     27 C13       10.6417    5.0074    0.2442 C.ar      1 RES1    0.0000
     28 H8        10.1630    4.2132    0.3085 H         1 RES1    0.0000
     29 C14       11.9502    5.0486    0.6555 C.ar      1 RES1    0.0000
     30 H9        12.3462    4.2810    1.0002 H         1 RES1    0.0000
     31 H10       14.2866    8.1073    1.2152 H         1 RES1    0.0000
     32 H11       20.4296   11.4736    4.3117 H         1 RES1    0.0000
@<TRIPOS>BOND
     1    1    2 1
     2    2   20 1
     3    3    6 2
     4    4   11 1
     5    5   20 2
     6    7    3 2
     7    8    9 ar
     8    9   10 1
     9   11    9 ar
    10   12   11 ar
    11   13   12 1
    12   14   12 ar
    13   15   14 1
    14   16    8 ar
    15   17   16 1
    16   18    1 2
    17   19   18 1
    18   20   21 1
    19   21   22 ar
    20   22   23 1
    21   24    3 1
    22   25   24 ar
    23   26   25 1
    24   27   25 ar
    25   28   27 1
    26   29   21 ar
    27   30   29 1
    28   31    2 1
    29   32    4 1
    30    8   18 1
    31   14   16 ar
    32   22   24 ar
    33   27   29 ar
@<TRIPOS>SUBSTRUCTURE
     1 RES1 1

@<TRIPOS>CRYSIN
  16.1540   13.2950   13.5370  90.0000 120.3240  90.0000  15 1

