# MOL2 file generated by ConQuest
# Please check atom types

@<TRIPOS>MOLECULE
QAJKUK
    38    40     1
SMALL
NO_CHARGES
****
Generated from CSD

@<TRIPOS>ATOM
      1 O1         7.4937    2.5587    3.9448 O.2       1 RES1    0.0000
      2 O2        -0.6553    3.0903    0.3971 O.2       1 RES1    0.0000
      3 O3        -1.2947    5.0748    0.9862 O.2       1 RES1    0.0000
      4 N1        10.2093    5.7455    5.5611 N.3       1 RES1    0.0000
      5 N2         8.9795    5.6108    5.0280 N.2       1 RES1    0.0000
      6 N3         6.5751    4.6146    4.2004 N.am      1 RES1    0.0000
      7 N4         5.3894    4.2086    3.6427 N.2       1 RES1    0.0000
      8 N5        -0.4767    4.1566    0.9835 N.pl3     1 RES1    0.0000
      9 C1        12.5249    3.2308    6.9922 C.ar      1 RES1    0.0000
     10 H1        11.8790    2.5407    7.0817 H         1 RES1    0.0000
     11 C2        13.8032    3.0383    7.4918 C.ar      1 RES1    0.0000
     12 H2        14.0254    2.2240    7.9285 H         1 RES1    0.0000
     13 C3        14.7576    4.0331    7.3530 C.ar      1 RES1    0.0000
     14 H3        15.6431    3.8925    7.6654 H         1 RES1    0.0000
     15 C4        14.4114    5.2363    6.7550 C.ar      1 RES1    0.0000
     16 H4        15.0582    5.9269    6.6805 H         1 RES1    0.0000
     17 C5        13.1330    5.4414    6.2664 C.ar      1 RES1    0.0000
     18 H5        12.9056    6.2727    5.8666 H         1 RES1    0.0000
     19 C6        12.1737    4.4230    6.3607 C.ar      1 RES1    0.0000
     20 C7        10.8265    4.5507    5.7764 C.2       1 RES1    0.0000
     21 C8         9.9538    3.5829    5.3335 C.2       1 RES1    0.0000
     22 H6        10.0838    2.6422    5.3356 H         1 RES1    0.0000
     23 C9         8.8320    4.2857    4.8797 C.2       1 RES1    0.0000
     24 C10        7.6013    3.7290    4.3077 C.2       1 RES1    0.0000
     25 C11        4.4692    5.0893    3.6174 C.2       1 RES1    0.0000
     26 H7         4.6220    5.9392    4.0138 H         1 RES1    0.0000
     27 C12        3.1787    4.8058    2.9845 C.ar      1 RES1    0.0000
     28 C13        2.9289    3.5654    2.3695 C.ar      1 RES1    0.0000
     29 H8         3.5885    2.8832    2.3968 H         1 RES1    0.0000
     30 C14        1.7223    3.3329    1.7229 C.ar      1 RES1    0.0000
     31 H9         1.5410    2.4972    1.3088 H         1 RES1    0.0000
     32 C15        0.7917    4.3590    1.7024 C.ar      1 RES1    0.0000
     33 C16        1.0077    5.5806    2.3011 C.ar      1 RES1    0.0000
     34 H10        0.3457    6.2615    2.2690 H         1 RES1    0.0000
     35 C17        2.2072    5.7933    2.9483 C.ar      1 RES1    0.0000
     36 H11        2.3689    6.6274    3.3741 H         1 RES1    0.0000
     37 H12       10.5325    6.5827    5.7613 H         1 RES1    0.0000
     38 H13        6.6876    5.4194    4.4833 H         1 RES1    0.0000
@<TRIPOS>BOND
     1    1   24 2
     2    2    8 2
     3    3    8 2
     4    4    5 1
     5    5   23 2
     6    6    7 1
     7    7   25 2
     8    8   32 1
     9    9   10 1
    10   11    9 ar
    11   12   11 1
    12   13   11 ar
    13   14   13 1
    14   15   13 ar
    15   16   15 1
    16   17   15 ar
    17   18   17 1
    18   19    9 ar
    19   20    4 1
    20   21   20 2
    21   22   21 1
    22   23   21 1
    23   24    6 1
    24   25   26 1
    25   27   25 1
    26   28   27 ar
    27   29   28 1
    28   30   28 ar
    29   31   30 1
    30   32   30 ar
    31   33   32 ar
    32   34   33 1
    33   35   27 ar
    34   36   35 1
    35   37    4 1
    36   38    6 1
    37   17   19 ar
    38   19   20 1
    39   23   24 1
    40   33   35 ar
@<TRIPOS>SUBSTRUCTURE
     1 RES1 1

@<TRIPOS>CRYSIN
  20.1049   11.1534    6.8890  90.0000  97.2240  90.0000  14 1

