# MOL2 file generated by ConQuest
# Please check atom types

@<TRIPOS>MOLECULE
QAJWUV
    28    28     1
SMALL
NO_CHARGES
****
Generated from CSD

@<TRIPOS>ATOM
      1 O1        -1.9200    5.1571    4.8144 O.3       1 RES1    0.0000
      2 O2        -2.7924    6.8759    3.6816 O.2       1 RES1    0.0000
      3 O3        -0.4429    5.6375    2.0608 O.2       1 RES1    0.0000
      4 O4         2.6787    3.9309   -3.8746 O.2       1 RES1    0.0000
      5 O5         4.6771    4.4920   -3.3132 O.2       1 RES1    0.0000
      6 N1         1.7721    6.1564    1.9508 N.am      1 RES1    0.0000
      7 N2         3.4903    4.3484   -3.0652 N.pl3     1 RES1    0.0000
      8 C1        -3.1447    4.4078    4.6271 C.3       1 RES1    0.0000
      9 C2        -1.8741    6.3565    4.2594 C.2       1 RES1    0.0000
     10 C3        -0.5803    7.0328    4.5468 C.2       1 RES1    0.0000
     11 C4         0.5004    6.9510    3.7961 C.2       1 RES1    0.0000
     12 C5         0.5395    6.1809    2.5325 C.2       1 RES1    0.0000
     13 C6         2.1439    5.6137    0.7173 C.ar      1 RES1    0.0000
     14 C7         1.2270    5.3141   -0.2859 C.ar      1 RES1    0.0000
     15 C8         1.6683    4.8710   -1.5093 C.ar      1 RES1    0.0000
     16 C9         3.0212    4.7301   -1.7370 C.ar      1 RES1    0.0000
     17 C10        3.9418    4.9929   -0.7458 C.ar      1 RES1    0.0000
     18 C11        3.5051    5.4276    0.4778 C.ar      1 RES1    0.0000
     19 H1         2.4050    6.5237    2.4027 H         1 RES1    0.0000
     20 H2        -3.8967    4.9666    4.8353 H         1 RES1    0.0000
     21 H3        -3.1435    3.6430    5.2076 H         1 RES1    0.0000
     22 H4        -3.2049    4.1165    3.7144 H         1 RES1    0.0000
     23 H5        -0.5300    7.5537    5.3156 H         1 RES1    0.0000
     24 H6         1.2697    7.3949    4.0717 H         1 RES1    0.0000
     25 H7         0.3158    5.4129   -0.1281 H         1 RES1    0.0000
     26 H8         1.0574    4.6675   -2.1805 H         1 RES1    0.0000
     27 H9         4.8506    4.8759   -0.9060 H         1 RES1    0.0000
     28 H10        4.1208    5.6002    1.1532 H         1 RES1    0.0000
@<TRIPOS>BOND
     1    1    8 1
     2    2    9 2
     3    3   12 2
     4    4    7 2
     5    5    7 2
     6    6   12 1
     7    7   16 1
     8    8   20 1
     9    9    1 1
    10   10    9 1
    11   11   10 2
    12   12   11 1
    13   13    6 1
    14   14   13 ar
    15   15   14 ar
    16   16   15 ar
    17   17   16 ar
    18   18   13 ar
    19   19    6 1
    20   21    8 1
    21   22    8 1
    22   23   10 1
    23   24   11 1
    24   25   14 1
    25   26   15 1
    26   27   17 1
    27   28   18 1
    28   17   18 ar
@<TRIPOS>SUBSTRUCTURE
     1 RES1 1

@<TRIPOS>CRYSIN
   6.8382    7.7497   11.8277  97.8050  92.1190 114.4250   2 1

