# MOL2 file generated by ConQuest
# Please check atom types

@<TRIPOS>MOLECULE
QAKGEQ
    34    33     1
SMALL
NO_CHARGES
****
Generated from CSD

@<TRIPOS>ATOM
      1 O1         3.5584    2.2537    3.4254 O.3       1 RES1    0.0000
      2 H1         3.7850    2.1349    4.2045 H         1 RES1    0.0000
      3 N1         2.7860    3.4133    3.3377 N.2       1 RES1    0.0000
      4 N2         1.1222    5.1672    0.8245 N.2       1 RES1    0.0000
      5 C1         2.4013    3.6526    2.1372 C.2       1 RES1    0.0000
      6 C2         1.5758    4.8842    1.9942 C.2       1 RES1    0.0000
      7 C3         0.2837    6.3669    0.7000 C.3       1 RES1    0.0000
      8 H2         0.8136    7.1542    0.9028 H         1 RES1    0.0000
      9 H3        -0.4432    6.3213    1.3410 H         1 RES1    0.0000
     10 C4         2.6936    2.7878    0.9579 C.3       1 RES1    0.0000
     11 H4         3.2793    3.2545    0.3565 H         1 RES1    0.0000
     12 H5         1.8740    2.5745    0.5064 H         1 RES1    0.0000
     13 H6         3.1164    1.9781    1.2519 H         1 RES1    0.0000
     14 C5         1.3198    5.7217    3.2200 C.3       1 RES1    0.0000
     15 H7         1.5126    6.6414    3.0249 H         1 RES1    0.0000
     16 H8         1.8835    5.4216    3.9361 H         1 RES1    0.0000
     17 H9         0.3994    5.6362    3.4800 H         1 RES1    0.0000
     18 O1B       -3.5584   10.5997   -3.4254 O.3       1 RES1    0.0000
     19 H1B       -3.7850   10.7185   -4.2045 H         1 RES1    0.0000
     20 N1B       -2.7860    9.4401   -3.3377 N.2       1 RES1    0.0000
     21 N2B       -1.1222    7.6862   -0.8245 N.2       1 RES1    0.0000
     22 C1B       -2.4013    9.2008   -2.1372 C.2       1 RES1    0.0000
     23 C2B       -1.5758    7.9692   -1.9942 C.2       1 RES1    0.0000
     24 C3B       -0.2837    6.4865   -0.7000 C.3       1 RES1    0.0000
     25 H2B       -0.8136    5.6992   -0.9028 H         1 RES1    0.0000
     26 H3B        0.4432    6.5321   -1.3410 H         1 RES1    0.0000
     27 C4B       -2.6936   10.0656   -0.9579 C.3       1 RES1    0.0000
     28 H4B       -3.2793    9.5989   -0.3565 H         1 RES1    0.0000
     29 H5B       -1.8740   10.2789   -0.5064 H         1 RES1    0.0000
     30 H6B       -3.1164   10.8753   -1.2519 H         1 RES1    0.0000
     31 C5B       -1.3198    7.1317   -3.2200 C.3       1 RES1    0.0000
     32 H7B       -1.5126    6.2120   -3.0249 H         1 RES1    0.0000
     33 H8B       -1.8835    7.4318   -3.9361 H         1 RES1    0.0000
     34 H9B       -0.3994    7.2172   -3.4800 H         1 RES1    0.0000
@<TRIPOS>BOND
     1    1    2 1
     2    3    1 1
     3    4    6 2
     4    5    3 2
     5    6    5 1
     6    7    4 1
     7    8    7 1
     8    9    7 1
     9   10    5 1
    10   11   10 1
    11   12   10 1
    12   13   10 1
    13   14    6 1
    14   15   14 1
    15   16   14 1
    16   17   14 1
    17   18   19 1
    18   20   18 1
    19   21   23 2
    20   22   20 2
    21   23   22 1
    22   24    7 1
    23   25   24 1
    24   26   24 1
    25   27   22 1
    26   28   27 1
    27   29   27 1
    28   30   27 1
    29   31   23 1
    30   32   31 1
    31   33   31 1
    32   34   31 1
    33   21   24 1
@<TRIPOS>SUBSTRUCTURE
     1 RES1 1

@<TRIPOS>CRYSIN
   4.4128   12.8534   10.4860  90.0000  90.7620  90.0000 231 1

