# MOL2 file generated by ConQuest
# Please check atom types

@<TRIPOS>MOLECULE
QAKQOK
    25    26     1
SMALL
NO_CHARGES
****
Generated from CSD

@<TRIPOS>ATOM
      1 O1         5.3997    2.9849    3.8215 O.3       1 RES1    0.0000
      2 O2         2.5984    2.7769    7.8604 O.3       1 RES1    0.0000
      3 H1         1.9842    2.9167    8.3842 H         1 RES1    0.0000
      4 O3         1.3118    3.9682    6.5024 O.2       1 RES1    0.0000
      5 N1         5.4046    3.7070   -1.9308 N.ar      1 RES1    0.0000
      6 C1         5.0859    3.7500   -0.6423 C.ar      1 RES1    0.0000
      7 H2         4.2265    4.0132   -0.4053 H         1 RES1    0.0000
      8 N2         4.2663    3.8339    2.1451 N.2       1 RES1    0.0000
      9 N3         6.2407    2.8607    2.6914 N.2       1 RES1    0.0000
     10 C2         5.9808    3.4179    0.3636 C.ar      1 RES1    0.0000
     11 C3         5.5119    3.3947    1.7567 C.2       1 RES1    0.0000
     12 C4         2.3336    3.3558    6.7130 C.2       1 RES1    0.0000
     13 C5         3.4296    3.1131    5.7244 C.3       1 RES1    0.0000
     14 H3         3.5007    2.1597    5.5590 H         1 RES1    0.0000
     15 H4         4.2706    3.4111    6.1048 H         1 RES1    0.0000
     16 C6         3.2028    3.8243    4.4165 C.3       1 RES1    0.0000
     17 H5         2.3453    3.5488    4.0550 H         1 RES1    0.0000
     18 H6         3.1587    4.7790    4.5821 H         1 RES1    0.0000
     19 C7         7.6163    3.0258   -1.3210 C.ar      1 RES1    0.0000
     20 H7         8.4751    2.7878   -1.5859 H         1 RES1    0.0000
     21 C8         7.2828    3.0708    0.0110 C.ar      1 RES1    0.0000
     22 H8         7.9148    2.8737    0.6653 H         1 RES1    0.0000
     23 C9         4.2522    3.5638    3.4064 C.2       1 RES1    0.0000
     24 C10        6.6508    3.3401   -2.2576 C.ar      1 RES1    0.0000
     25 H9         6.8776    3.2951   -3.1578 H         1 RES1    0.0000
@<TRIPOS>BOND
     1    1    9 1
     2    2    3 1
     3    4   12 2
     4    5    6 ar
     5    6    7 1
     6    8   11 1
     7    9   11 2
     8   10    6 ar
     9   11   10 1
    10   12    2 1
    11   13   12 1
    12   14   13 1
    13   15   13 1
    14   16   13 1
    15   17   16 1
    16   18   16 1
    17   19   20 1
    18   21   10 ar
    19   22   21 1
    20   23    1 1
    21   24    5 ar
    22   25   24 1
    23    8   23 2
    24   16   23 1
    25   19   21 ar
    26   19   24 ar
@<TRIPOS>SUBSTRUCTURE
     1 RES1 1

@<TRIPOS>CRYSIN
   6.1298    6.8194   23.4260  90.0000  90.0000  90.0000  33 1

