# MOL2 file generated by ConQuest
# Please check atom types

@<TRIPOS>MOLECULE
QALCUE
    49    52     1
SMALL
NO_CHARGES
****
Generated from CSD

@<TRIPOS>ATOM
      1 O1         0.3261    9.8489   10.0805 O.3       1 RES1    0.0000
      2 O2        -0.5124    9.1530    8.1119 O.3       1 RES1    0.0000
      3 O3         1.0197    8.4338    5.9398 O.3       1 RES1    0.0000
      4 O4         2.5917    5.9201    2.2760 O.2       1 RES1    0.0000
      5 O5         2.4144    6.4491    7.4778 O.3       1 RES1    0.0000
      6 N1         2.8509    7.8265    7.2894 N.3       1 RES1    0.0000
      7 C1        -1.8098    8.6980   10.0995 C.3       1 RES1    0.0000
      8 H1        -1.3509    7.8618   10.2093 H         1 RES1    0.0000
      9 H2        -2.6047    8.5614    9.5786 H         1 RES1    0.0000
     10 H3        -2.0481    9.0479   10.9616 H         1 RES1    0.0000
     11 C2        -1.5268   11.0365    9.1653 C.3       1 RES1    0.0000
     12 H4        -1.7541   11.4255   10.0128 H         1 RES1    0.0000
     13 H5        -2.3213   10.9363    8.6355 H         1 RES1    0.0000
     14 H6        -0.9071   11.6091    8.7075 H         1 RES1    0.0000
     15 C3        -0.8979    9.6876    9.3843 C.3       1 RES1    0.0000
     16 C4         1.1269    8.7260    9.7369 C.3       1 RES1    0.0000
     17 H7         1.0040    8.0052   10.3740 H         1 RES1    0.0000
     18 H8         2.0662    8.9661    9.7096 H         1 RES1    0.0000
     19 C5         0.6223    8.3173    8.3386 C.3       1 RES1    0.0000
     20 H9         0.3718    7.3699    8.3173 H         1 RES1    0.0000
     21 C6         1.6322    8.6383    7.2543 C.3       1 RES1    0.0000
     22 H10        1.8853    9.5813    7.3358 H         1 RES1    0.0000
     23 C7         1.9488    7.8480    5.1565 C.2       1 RES1    0.0000
     24 C8         1.7142    7.2872    3.9665 C.2       1 RES1    0.0000
     25 H11        0.9013    7.4168    3.5332 H         1 RES1    0.0000
     26 C9         2.7535    6.4718    3.3630 C.2       1 RES1    0.0000
     27 C10        4.0048    6.2270    4.1522 C.ar      1 RES1    0.0000
     28 C11        4.9668    5.3577    3.6288 C.ar      1 RES1    0.0000
     29 H12        4.8416    4.9830    2.7874 H         1 RES1    0.0000
     30 C12        6.1048    5.0520    4.3547 C.ar      1 RES1    0.0000
     31 H13        6.7297    4.4563    4.0104 H         1 RES1    0.0000
     32 C13        6.3126    5.6366    5.5996 C.ar      1 RES1    0.0000
     33 H14        7.0744    5.4266    6.0904 H         1 RES1    0.0000
     34 C14        5.3827    6.5335    6.1105 C.ar      1 RES1    0.0000
     35 H15        5.5371    6.9437    6.9306 H         1 RES1    0.0000
     36 C15        4.2194    6.8195    5.3987 C.ar      1 RES1    0.0000
     37 C16        3.2769    7.8944    5.8580 C.3       1 RES1    0.0000
     38 C17        3.0490    5.9340    8.6493 C.3       1 RES1    0.0000
     39 H16        4.0016    5.9546    8.5325 H         1 RES1    0.0000
     40 H17        2.7642    5.0285    8.7955 H         1 RES1    0.0000
     41 H18        2.8080    6.4720    9.4065 H         1 RES1    0.0000
     42 C18        3.9585    9.2893    5.6418 C.3       1 RES1    0.0000
     43 H19        3.3128    9.9887    5.8256 H         1 RES1    0.0000
     44 H20        4.6885    9.3856    6.2728 H         1 RES1    0.0000
     45 C19        4.4900    9.4652    4.2453 C.2       1 RES1    0.0000
     46 H21        5.2903    9.0479    4.0225 H         1 RES1    0.0000
     47 C20        3.8797   10.1811    3.3204 C.2       1 RES1    0.0000
     48 H22        3.0778   10.6093    3.5172 H         1 RES1    0.0000
     49 H23        4.2511   10.2581    2.4711 H         1 RES1    0.0000
@<TRIPOS>BOND
     1    1   15 1
     2    2   15 1
     3    3   21 1
     4    4   26 2
     5    5    6 1
     6    6   21 1
     7    7    8 1
     8    9    7 1
     9   10    7 1
    10   11   12 1
    11   13   11 1
    12   14   11 1
    13   15    7 1
    14   16    1 1
    15   17   16 1
    16   18   16 1
    17   19    2 1
    18   20   19 1
    19   21   19 1
    20   22   21 1
    21   23    3 1
    22   24   23 2
    23   25   24 1
    24   26   24 1
    25   27   26 1
    26   28   27 ar
    27   29   28 1
    28   30   28 ar
    29   31   30 1
    30   32   30 ar
    31   33   32 1
    32   34   32 ar
    33   35   34 1
    34   36   27 ar
    35   37    6 1
    36   38    5 1
    37   39   38 1
    38   40   38 1
    39   41   38 1
    40   42   37 1
    41   43   42 1
    42   44   42 1
    43   45   42 1
    44   46   45 1
    45   47   45 2
    46   48   47 1
    47   49   47 1
    48   11   15 1
    49   16   19 1
    50   23   37 1
    51   34   36 ar
    52   36   37 1
@<TRIPOS>SUBSTRUCTURE
     1 RES1 1

@<TRIPOS>CRYSIN
   7.1941   13.4023    9.4154  90.0000  96.3920  90.0000   4 1

