# MOL2 file generated by ConQuest
# Please check atom types

@<TRIPOS>MOLECULE
QALDAI
    41    39     2
SMALL
NO_CHARGES
****
Generated from CSD

@<TRIPOS>ATOM
      1 N1         0.6076    6.4558    6.6288 N.pl3     1 RES1    0.0000
      2 N2         2.2261    5.0343    6.3777 N.pl3     1 RES1    0.0000
      3 O1        -0.5790    6.9431    6.7114 O.2       1 RES1    0.0000
      4 O2         2.8642    3.9328    6.2429 O.2       1 RES1    0.0000
      5 O3        -2.6311   -0.2065    6.0042 O.3       1 RES1    0.0000
      6 O4        -2.3200   -0.3562    7.0760 Du        2 SUP2    0.0000
      7 H1        -2.9753   -0.9740    6.3085 H         1 RES1    0.0000
      8 C1         0.8969    5.1559    6.5037 C.2       1 RES1    0.0000
      9 C2         2.9585    6.3326    6.4860 C.3       1 RES1    0.0000
     10 C3         1.8068    7.3350    6.6386 C.3       1 RES1    0.0000
     11 C4         3.8093    6.2341    7.7672 C.3       1 RES1    0.0000
     12 H2         3.2330    6.1621    8.5312 H         1 RES1    0.0000
     13 H3         4.3537    7.0205    7.8506 H         1 RES1    0.0000
     14 H4         4.3734    5.4591    7.7166 H         1 RES1    0.0000
     15 C5         3.8243    6.4880    5.2837 C.3       1 RES1    0.0000
     16 H5         4.4314    5.7452    5.2296 H         1 RES1    0.0000
     17 H6         4.3231    7.3047    5.3520 H         1 RES1    0.0000
     18 H7         3.2770    6.5107    4.4949 H         1 RES1    0.0000
     19 C6         1.6633    8.2862    5.4647 C.3       1 RES1    0.0000
     20 H8         1.9225    7.8390    4.6564 H         1 RES1    0.0000
     21 H9         2.2276    9.0499    5.6023 H         1 RES1    0.0000
     22 H10        0.7495    8.5705    5.3937 H         1 RES1    0.0000
     23 C7         1.7543    8.0873    7.9518 C.3       1 RES1    0.0000
     24 H11        1.8437    7.4676    8.6793 H         1 RES1    0.0000
     25 H12        0.9152    8.5477    8.0236 H         1 RES1    0.0000
     26 H13        2.4728    8.7239    7.9837 H         1 RES1    0.0000
     27 C8        -0.0654    4.0527    6.5552 C.ar      1 RES1    0.0000
     28 C9        -1.1994    4.1649    7.3555 C.ar      1 RES1    0.0000
     29 H14       -1.3550    4.9513    7.8284 H         1 RES1    0.0000
     30 C10       -2.0820    3.1189    7.4611 C.ar      1 RES1    0.0000
     31 H15       -2.8254    3.2061    8.0130 H         1 RES1    0.0000
     32 C11       -1.8893    1.9460    6.7655 C.ar      1 RES1    0.0000
     33 C12       -0.7787    1.8418    5.9545 C.ar      1 RES1    0.0000
     34 H16       -0.6434    1.0706    5.4523 H         1 RES1    0.0000
     35 C13        0.1372    2.8726    5.8640 C.ar      1 RES1    0.0000
     36 H17        0.8999    2.7722    5.3396 H         1 RES1    0.0000
     37 C14       -2.8896    0.8318    6.8941 C.3       1 RES1    0.0000
     38 H18       -2.8634    0.4870    7.7894 H         1 RES1    0.0000
     39 H19       -3.7712    1.1805    6.7389 H         1 RES1    0.0000
     40 H20       -3.4444    0.9967    7.6598 Du        2 SUP2    0.0000
     41 H21       -3.4553    0.8318    6.1187 Du        2 SUP2    0.0000
@<TRIPOS>BOND
     1    1    3 1
     2    2    4 1
     3    5    7 1
     4    8    1 2
     5    9    2 1
     6   10    1 1
     7   11    9 1
     8   12   11 1
     9   13   11 1
    10   14   11 1
    11   15    9 1
    12   16   15 1
    13   17   15 1
    14   18   15 1
    15   19   10 1
    16   20   19 1
    17   21   19 1
    18   22   19 1
    19   23   10 1
    20   24   23 1
    21   25   23 1
    22   26   23 1
    23   27    8 1
    24   28   27 ar
    25   29   28 1
    26   30   28 ar
    27   31   30 1
    28   32   30 ar
    29   33   32 ar
    30   34   33 1
    31   35   27 ar
    32   36   35 1
    33   37    5 1
    34   38   37 1
    35   39   37 1
    36    2    8 1
    37    9   10 1
    38   32   37 1
    39   33   35 ar
@<TRIPOS>SUBSTRUCTURE
     1 RES1 1
     2 SUP2 6

@<TRIPOS>CRYSIN
   8.1860   18.9486    9.3799  90.0000 108.9270  90.0000  14 1

