# MOL2 file generated by ConQuest
# Please check atom types

@<TRIPOS>MOLECULE
QAMJOG
    40    41     1
SMALL
NO_CHARGES
****
Generated from CSD

@<TRIPOS>ATOM
      1 N1         1.3321    4.9029    4.6145 N.am      1 RES1    0.0000
      2 N2         1.3896    6.5499    8.4009 N.pl3     1 RES1    0.0000
      3 O1         1.3014    5.3264    2.3936 O.2       1 RES1    0.0000
      4 O2         3.1042    5.8259    3.6763 O.3       1 RES1    0.0000
      5 O3         2.8550    3.7256    5.9269 O.3       1 RES1    0.0000
      6 O4         0.5015    5.9951    7.4661 O.3       1 RES1    0.0000
      7 O5         2.4058    5.9602    8.6269 O.2       1 RES1    0.0000
      8 O6         0.9742    7.5620    8.8812 O.2       1 RES1    0.0000
      9 C1         0.0297    4.3891    4.7879 C.ar      1 RES1    0.0000
     10 C2        -0.9024    4.0589    3.8292 C.ar      1 RES1    0.0000
     11 H1        -0.7281    4.1666    2.9225 H         1 RES1    0.0000
     12 C3        -2.1207    3.5564    4.2853 C.ar      1 RES1    0.0000
     13 H2        -2.7760    3.3288    3.6653 H         1 RES1    0.0000
     14 C4        -2.3751    3.3913    5.6041 C.ar      1 RES1    0.0000
     15 H3        -3.1944    3.0447    5.8725 H         1 RES1    0.0000
     16 C5        -1.4326    3.7318    6.5530 C.ar      1 RES1    0.0000
     17 H4        -1.6080    3.6231    7.4591 H         1 RES1    0.0000
     18 C6        -0.2246    4.2353    6.1204 C.ar      1 RES1    0.0000
     19 C7         0.9322    4.7194    6.9220 C.3       1 RES1    0.0000
     20 H5         1.1732    4.0856    7.6303 H         1 RES1    0.0000
     21 C8         2.0541    4.8701    5.8915 C.3       1 RES1    0.0000
     22 H6         2.5761    5.6874    6.0376 H         1 RES1    0.0000
     23 C9         1.8695    5.3541    3.4547 C.2       1 RES1    0.0000
     24 C10        3.8979    6.4801    2.6211 C.3       1 RES1    0.0000
     25 C11        5.1603    6.8370    3.3569 C.3       1 RES1    0.0000
     26 H7         5.7336    7.3477    2.7819 H         1 RES1    0.0000
     27 H8         5.6115    6.0340    3.6256 H         1 RES1    0.0000
     28 H9         4.9419    7.3580    4.1331 H         1 RES1    0.0000
     29 C12        3.1391    7.7189    2.1671 C.3       1 RES1    0.0000
     30 H10        2.2971    7.4574    1.7883 H         1 RES1    0.0000
     31 H11        3.6559    8.1866    1.5071 H         1 RES1    0.0000
     32 H12        2.9863    8.2942    2.9194 H         1 RES1    0.0000
     33 C13        4.1615    5.5203    1.5068 C.3       1 RES1    0.0000
     34 H13        4.5563    4.7194    1.8617 H         1 RES1    0.0000
     35 H14        4.7634    5.9202    0.8743 H         1 RES1    0.0000
     36 H15        3.3349    5.3029    1.0700 H         1 RES1    0.0000
     37 C14        4.1164    3.8754    6.4289 C.3       1 RES1    0.0000
     38 H16        4.6404    4.4076    5.8266 H         1 RES1    0.0000
     39 H17        4.5245    3.0129    6.5328 H         1 RES1    0.0000
     40 H18        4.0702    4.3112    7.2848 H         1 RES1    0.0000
@<TRIPOS>BOND
     1    1    9 1
     2    2    6 1
     3    3   23 2
     4    4   23 1
     5    5   21 1
     6    6   19 1
     7    7    2 2
     8    8    2 2
     9    9   10 ar
    10   10   11 1
    11   12   10 ar
    12   13   12 1
    13   14   12 ar
    14   15   14 1
    15   16   14 ar
    16   17   16 1
    17   18    9 ar
    18   19   18 1
    19   20   19 1
    20   21    1 1
    21   22   21 1
    22   23    1 1
    23   24    4 1
    24   25   24 1
    25   26   25 1
    26   27   25 1
    27   28   25 1
    28   29   24 1
    29   30   29 1
    30   31   29 1
    31   32   29 1
    32   33   24 1
    33   34   33 1
    34   35   33 1
    35   36   33 1
    36   37    5 1
    37   38   37 1
    38   39   37 1
    39   40   37 1
    40   16   18 ar
    41   19   21 1
@<TRIPOS>SUBSTRUCTURE
     1 RES1 1

@<TRIPOS>CRYSIN
  10.2550   10.2550   30.5700  90.0000  90.0000  90.0000  96 1

