# MOL2 file generated by ConQuest
# Please check atom types

@<TRIPOS>MOLECULE
QAMWAC
    33    33     1
SMALL
NO_CHARGES
****
Generated from CSD

@<TRIPOS>ATOM
      1 N1        -1.9402    2.3425    7.6896 N.3       1 RES1    0.0000
      2 C1        -1.5258    2.3425    6.2732 C.3       1 RES1    0.0000
      3 C2        -0.0303    2.3425    6.4531 C.2       1 RES1    0.0000
      4 C3         0.3326    2.3425    7.7339 C.2       1 RES1    0.0000
      5 C4        -0.8347    2.3425    8.6696 C.3       1 RES1    0.0000
      6 O1        -3.1614    2.3425    8.0374 O.2       1 RES1    0.0000
      7 C5        -2.0607    1.0878    5.5831 C.3       1 RES1    0.0000
      8 C6         0.8950    2.3425    5.3004 C.2       1 RES1    0.0000
      9 O2         0.5312    2.3425    4.1534 O.2       1 RES1    0.0000
     10 O3         2.1741    2.3425    5.6699 O.3       1 RES1    0.0000
     11 C7         3.1592    2.3425    4.5947 C.3       1 RES1    0.0000
     12 C8         4.4900    2.3425    5.1858 C.3       1 RES1    0.0000
     13 C9        -0.8870    3.5981    9.5351 C.3       1 RES1    0.0000
     14 H1         1.2974    2.3425    8.0905 H         1 RES1    0.0000
     15 H2        -0.1131    3.6243   10.1245 H         1 RES1    0.0000
     16 H3        -0.8209    4.4030    8.9834 H         1 RES1    0.0000
     17 H4        -3.0240    1.1047    5.6526 H         1 RES1    0.0000
     18 H5        -1.7413    3.5868   10.0566 H         1 RES1    0.0000
     19 H6        -1.7727    1.0963    4.6152 H         1 RES1    0.0000
     20 H7        -1.7162    0.2942    6.0033 H         1 RES1    0.0000
     21 H8         5.1517    2.3425    4.4213 H         1 RES1    0.0000
     22 H9         2.9863    1.5179    4.0780 H         1 RES1    0.0000
     23 H10        4.6701    1.6772    5.8663 H         1 RES1    0.0000
     24 C9C       -0.8870    1.0869    9.5351 C.3       1 RES1    0.0000
     25 H2C       -0.1131    1.0607   10.1245 H         1 RES1    0.0000
     26 H3C       -0.8209    0.2820    8.9834 H         1 RES1    0.0000
     27 H5C       -1.7413    1.0982   10.0566 H         1 RES1    0.0000
     28 H10C       4.6701    3.0078    5.8663 H         1 RES1    0.0000
     29 H9C        2.9863    3.1671    4.0780 H         1 RES1    0.0000
     30 C5C       -2.0607    3.5972    5.5831 C.3       1 RES1    0.0000
     31 H4C       -3.0240    3.5803    5.6526 H         1 RES1    0.0000
     32 H6C       -1.7727    3.5887    4.6152 H         1 RES1    0.0000
     33 H7C       -1.7162    4.3908    6.0033 H         1 RES1    0.0000
@<TRIPOS>BOND
     1    1    2 1
     2    2    3 1
     3    3    4 2
     4    4    5 1
     5    5    1 1
     6    6    1 1
     7    7    2 1
     8    8    3 1
     9    9    8 2
    10   10    8 1
    11   11   10 1
    12   12   11 1
    13   13    5 1
    14   14    4 1
    15   15   13 1
    16   16   13 1
    17   17    7 1
    18   18   13 1
    19   19    7 1
    20   20    7 1
    21   21   12 1
    22   22   11 1
    23   23   12 1
    24   24    5 1
    25   25   24 1
    26   26   24 1
    27   27   24 1
    28   28   12 1
    29   29   11 1
    30   30    2 1
    31   31   30 1
    32   32   30 1
    33   33   30 1
@<TRIPOS>SUBSTRUCTURE
     1 RES1 1

@<TRIPOS>CRYSIN
  10.4710    9.3700   12.3500  90.0000  90.0000  90.0000  62 1

