# MOL2 file generated by ConQuest
# Please check atom types

@<TRIPOS>MOLECULE
QAMZUB
    47    49     2
SMALL
NO_CHARGES
****
Generated from CSD

@<TRIPOS>ATOM
      1 O1         4.7144    1.6386    1.3900 O.3       1 RES1    0.0000
      2 N1         4.8601    2.3963    2.5669 N.2       1 RES1    0.0000
      3 C1         5.5458    3.4354    2.2784 C.2       1 RES1    0.0000
      4 N2         5.8317    3.6017    0.8977 N.3       1 RES1    0.0000
      5 O2         7.2649    3.6138    0.6554 O.3       1 RES1    0.0000
      6 C2         7.6623    2.2481    0.4491 C.3       1 RES1    0.0000
      7 C3         6.5012    1.6542   -0.3025 C.3       1 RES1    0.0000
      8 C4         5.2885    2.3851    0.2729 C.3       1 RES1    0.0000
      9 O3         7.8543    1.5621    1.6350 O.3       1 RES1    0.0000
     10 C5         8.9913    2.0208    2.3916 C.3       1 RES1    0.0000
     11 C6         9.2069    1.0983    3.5281 C.3       1 RES1    0.0000
     12 C7         8.1094    1.0391    4.5095 C.3       1 RES1    0.0000
     13 C8         8.3724    0.0523    5.6550 C.3       1 RES1    0.0000
     14 C9         5.9276    4.4461    3.2753 C.ar      1 RES1    0.0000
     15 C10        5.7797    4.1732    4.6281 C.ar      1 RES1    0.0000
     16 C11        6.1069    5.1261    5.5703 C.ar      1 RES1    0.0000
     17 C12        6.5870    6.3506    5.1771 C.ar      1 RES1    0.0000
     18 C13        6.7741    6.6177    3.8413 C.ar      1 RES1    0.0000
     19 C14        6.4424    5.6692    2.8822 C.ar      1 RES1    0.0000
     20 C15        4.1806    2.6571   -0.7150 C.ar      1 RES1    0.0000
     21 C16        3.7271    3.9369   -0.9853 C.ar      1 RES1    0.0000
     22 C17        2.7101    4.1271   -1.9168 C.ar      1 RES1    0.0000
     23 C18        2.1438    3.0485   -2.5631 C.ar      1 RES1    0.0000
     24 C19        2.5766    1.7742   -2.2746 C.ar      1 RES1    0.0000
     25 C20        3.5963    1.5680   -1.3643 C.ar      1 RES1    0.0000
     26 H1         8.5182    2.3203   -0.0909 H         1 RES1    0.0000
     27 H2         6.4340    0.7230   -0.2177 H         1 RES1    0.0000
     28 H3         6.5974    1.9385   -1.2669 H         1 RES1    0.0000
     29 H4         8.8195    2.9248    2.7100 H         1 RES1    0.0000
     30 H5         9.7654    2.0551    1.8201 H         1 RES1    0.0000
     31 H6        10.0071    1.4091    3.9948 H         1 RES1    0.0000
     32 H7         9.3776    0.2287    3.1824 H         1 RES1    0.0000
     33 H8         7.2877    0.7683    4.0464 H         1 RES1    0.0000
     34 H9         7.9427    1.9168    4.8813 H         1 RES1    0.0000
     35 H10        7.6140    0.0630    6.2548 H         1 RES1    0.0000
     36 H11        9.6368    1.4139    3.8803 Du        2 SUP2    0.0000
     37 H12        8.4052   -0.8281    5.2976 H         1 RES1    0.0000
     38 H13        5.3950    3.3472    4.8645 H         1 RES1    0.0000
     39 H14        5.9945    4.9484    6.4781 H         1 RES1    0.0000
     40 H15        6.8299    7.0580    5.8228 H         1 RES1    0.0000
     41 H16        7.1133    7.4582    3.5695 H         1 RES1    0.0000
     42 H17        6.5360    5.9200    1.9402 H         1 RES1    0.0000
     43 H18        4.1168    4.7209   -0.5510 H         1 RES1    0.0000
     44 H19        2.4034    5.0265   -2.1152 H         1 RES1    0.0000
     45 H20        1.4617    3.1683   -3.2486 H         1 RES1    0.0000
     46 H21        2.1827    1.0194   -2.7201 H         1 RES1    0.0000
     47 H22        3.9361    0.6431   -1.2119 H         1 RES1    0.0000
@<TRIPOS>BOND
     1    1    2 1
     2    2    3 2
     3    3    4 1
     4    4    5 1
     5    5    6 1
     6    6    7 1
     7    7    8 1
     8    8    1 1
     9    9    6 1
    10   10    9 1
    11   11   10 1
    12   12   11 1
    13   13   12 1
    14   14    3 1
    15   15   14 ar
    16   16   15 ar
    17   17   16 ar
    18   18   17 ar
    19   19   14 ar
    20   20    8 1
    21   21   20 ar
    22   22   21 ar
    23   23   22 ar
    24   24   23 ar
    25   25   20 ar
    26   26    6 1
    27   27    7 1
    28   28    7 1
    29   29   10 1
    30   30   10 1
    31   31   11 1
    32   32   11 1
    33   33   12 1
    34   34   12 1
    35   35   13 1
    36   37   13 1
    37   38   15 1
    38   39   16 1
    39   40   17 1
    40   41   18 1
    41   42   19 1
    42   43   21 1
    43   44   22 1
    44   45   23 1
    45   46   24 1
    46   47   25 1
    47    4    8 1
    48   18   19 ar
    49   24   25 ar
@<TRIPOS>SUBSTRUCTURE
     1 RES1 1
     2 SUP2 36

@<TRIPOS>CRYSIN
   7.7269   10.7240   12.7190 112.2300 100.8300 103.0000   2 1

