# MOL2 file generated by ConQuest
# Please check atom types

@<TRIPOS>MOLECULE
QANTAD
    73    77     1
SMALL
NO_CHARGES
****
Generated from CSD

@<TRIPOS>ATOM
      1 C1         0.2057   12.3015    3.5951 C.ar      1 RES1    0.0000
      2 C2        -1.0411   12.7926    3.9176 C.ar      1 RES1    0.0000
      3 H1        -1.5811   13.2450    3.2800 H         1 RES1    0.0000
      4 C3        -1.4658   12.5924    5.2209 C.ar      1 RES1    0.0000
      5 C4        -0.7146   11.9228    6.1660 C.ar      1 RES1    0.0000
      6 H2        -1.0466   11.7926    7.0463 H         1 RES1    0.0000
      7 C5         0.5372   11.4436    5.8015 C.ar      1 RES1    0.0000
      8 C6         1.0035   11.6432    4.5100 C.ar      1 RES1    0.0000
      9 H3         1.8636   11.3290    4.2584 H         1 RES1    0.0000
     10 C7         1.3205   10.7036    6.8338 C.2       1 RES1    0.0000
     11 C8         3.4809    9.8665    7.3896 C.3       1 RES1    0.0000
     12 H4         3.1565   10.0394    8.3087 H         1 RES1    0.0000
     13 H5         4.3827   10.2660    7.2999 H         1 RES1    0.0000
     14 C9         3.5609    8.3617    7.1485 C.3       1 RES1    0.0000
     15 H6         2.6271    8.0121    7.2242 H         1 RES1    0.0000
     16 C10        4.3975    7.6386    8.2563 C.3       1 RES1    0.0000
     17 C11        3.4564    7.1409    9.3586 C.3       1 RES1    0.0000
     18 H7         2.9002    7.8844    9.6733 H         1 RES1    0.0000
     19 H8         3.9852    6.7884   10.1048 H         1 RES1    0.0000
     20 H9         2.8822    6.4319    9.0014 H         1 RES1    0.0000
     21 C12        5.4726    8.5385    8.8668 C.3       1 RES1    0.0000
     22 H10        5.0472    9.3059    9.3042 H         1 RES1    0.0000
     23 H11        6.0728    8.8568    8.1592 H         1 RES1    0.0000
     24 H12        5.9878    8.0307    9.5276 H         1 RES1    0.0000
     25 C13        5.7047    5.5139    8.3990 C.ar      1 RES1    0.0000
     26 C14        6.9968    5.7558    8.8402 C.ar      1 RES1    0.0000
     27 H13        7.4654    6.5288    8.5453 H         1 RES1    0.0000
     28 C15        7.6029    4.8656    9.7127 C.ar      1 RES1    0.0000
     29 H14        8.4771    5.0475   10.0367 H         1 RES1    0.0000
     30 C16        6.9557    3.7238   10.1147 C.ar      1 RES1    0.0000
     31 H15        7.3780    3.1253   10.7180 H         1 RES1    0.0000
     32 C17        5.6912    3.4494    9.6400 C.ar      1 RES1    0.0000
     33 H16        5.2538    2.6453    9.8947 H         1 RES1    0.0000
     34 C18        5.0529    4.3460    8.7896 C.ar      1 RES1    0.0000
     35 H17        4.1753    4.1616    8.4753 H         1 RES1    0.0000
     36 C19        3.9548    6.4853    5.5191 C.3       1 RES1    0.0000
     37 H18        4.7123    6.1930    4.9341 H         1 RES1    0.0000
     38 C20        2.6567    6.0294    4.9067 C.ar      1 RES1    0.0000
     39 C21        1.5600    5.6524    5.6760 C.ar      1 RES1    0.0000
     40 H19        1.6171    5.6779    6.6243 H         1 RES1    0.0000
     41 C22        0.3853    5.2403    5.0696 C.ar      1 RES1    0.0000
     42 H20       -0.3545    4.9754    5.6022 H         1 RES1    0.0000
     43 C23        0.2869    5.2148    3.6895 C.ar      1 RES1    0.0000
     44 H21       -0.5190    4.9321    3.2743 H         1 RES1    0.0000
     45 C24        1.3634    5.6011    2.9194 C.ar      1 RES1    0.0000
     46 H22        1.2933    5.5934    1.9721 H         1 RES1    0.0000
     47 C25        2.5421    5.9977    3.5171 C.ar      1 RES1    0.0000
     48 H23        3.2817    6.2506    2.9771 H         1 RES1    0.0000
     49 C26        4.0337    8.0323    5.7264 C.3       1 RES1    0.0000
     50 H24        3.3868    8.4530    5.0912 H         1 RES1    0.0000
     51 C27        5.6430    9.0093    4.1103 C.ar      1 RES1    0.0000
     52 C28        6.8853    8.7328    3.5425 C.ar      1 RES1    0.0000
     53 H25        7.5309    8.2387    4.0332 H         1 RES1    0.0000
     54 C29        7.1851    9.1803    2.2534 C.ar      1 RES1    0.0000
     55 H26        8.0324    8.9825    1.8737 H         1 RES1    0.0000
     56 C30        6.2639    9.9044    1.5264 C.ar      1 RES1    0.0000
     57 H27        6.4707   10.2021    0.6492 H         1 RES1    0.0000
     58 C31        5.0517   10.1867    2.0829 C.ar      1 RES1    0.0000
     59 H28        4.4125   10.6842    1.5860 H         1 RES1    0.0000
     60 C32        4.7419    9.7569    3.3653 C.ar      1 RES1    0.0000
     61 H29        3.8971    9.9775    3.7399 H         1 RES1    0.0000
     62 N1         0.6824   12.4494    2.2070 N.pl3     1 RES1    0.0000
     63 N2        -2.7936   13.0936    5.6034 N.pl3     1 RES1    0.0000
     64 N3         5.1040    6.5073    7.5337 N.3       1 RES1    0.0000
     65 N4         5.3598    8.5871    5.4343 N.pl3     1 RES1    0.0000
     66 O1         1.7528   11.9284    1.9142 O.2       1 RES1    0.0000
     67 H30        6.1166    8.0739    5.9353 H         1 RES1    0.0000
     68 O2        -0.0315   13.0559    1.4153 O.2       1 RES1    0.0000
     69 O3        -3.5230   13.4815    4.7049 O.2       1 RES1    0.0000
     70 O4        -3.1096   13.0817    6.7895 O.2       1 RES1    0.0000
     71 O5         0.8745   10.3496    7.8972 O.2       1 RES1    0.0000
     72 O6         2.5735   10.4811    6.4248 O.3       1 RES1    0.0000
     73 O7         4.0567    5.8176    6.7923 O.3       1 RES1    0.0000
@<TRIPOS>BOND
     1    1    2 ar
     2    2    3 1
     3    4    2 ar
     4    5    4 ar
     5    6    5 1
     6    7    5 ar
     7    8    1 ar
     8    9    8 1
     9   10    7 1
    10   11   12 1
    11   13   11 1
    12   14   11 1
    13   15   14 1
    14   16   14 1
    15   17   16 1
    16   18   17 1
    17   19   17 1
    18   20   17 1
    19   21   16 1
    20   22   21 1
    21   23   21 1
    22   24   21 1
    23   25   26 ar
    24   26   27 1
    25   28   26 ar
    26   29   28 1
    27   30   28 ar
    28   31   30 1
    29   32   30 ar
    30   33   32 1
    31   34   25 ar
    32   35   34 1
    33   36   37 1
    34   38   36 1
    35   39   38 ar
    36   40   39 1
    37   41   39 ar
    38   42   41 1
    39   43   41 ar
    40   44   43 1
    41   45   43 ar
    42   46   45 1
    43   47   38 ar
    44   48   47 1
    45   49   14 1
    46   50   49 1
    47   51   52 ar
    48   52   53 1
    49   54   52 ar
    50   55   54 1
    51   56   54 ar
    52   57   56 1
    53   58   56 ar
    54   59   58 1
    55   60   51 ar
    56   61   60 1
    57   62    1 1
    58   63    4 1
    59   64   16 1
    60   65   49 1
    61   66   62 2
    62   67   65 1
    63   68   62 2
    64   69   63 2
    65   70   63 2
    66   71   10 2
    67   72   10 1
    68   73   36 1
    69    7    8 ar
    70   11   72 1
    71   25   64 1
    72   32   34 ar
    73   36   49 1
    74   45   47 ar
    75   51   65 1
    76   58   60 ar
    77   64   73 1
@<TRIPOS>SUBSTRUCTURE
     1 RES1 1

@<TRIPOS>CRYSIN
   7.5463   20.6020   19.2810  90.0000 101.0050  90.0000 231 1

