# MOL2 file generated by ConQuest
# Please check atom types

@<TRIPOS>MOLECULE
QAPWUC
    93    98     1
SMALL
USER_CHARGES
****
Generated from CSD

@<TRIPOS>ATOM
      1 N1         5.1048   -0.4587   31.1199 N.1       1 RES1    1.0000
      2 O1        -3.0903   13.5453   36.4420 O.2       1 RES1    0.0000
      3 O2        -1.0542   14.4452   36.6183 O.3       1 RES1    0.0000
      4 O3         6.3069   -0.7080   31.1331 O.2       1 RES1   -1.0000
      5 C1         2.5257   -0.2026   31.1433 C.3       1 RES1    0.0000
      6 C2         2.0751   -1.3476   30.2294 C.3       1 RES1    0.0000
      7 H1         2.6484   -2.1227   30.3349 H         1 RES1    0.0000
      8 H2         1.1596   -1.6050   30.4219 H         1 RES1    0.0000
      9 C3         2.1950   -0.7674   28.8191 C.3       1 RES1    0.0000
     10 H3         1.4152   -1.0038   28.2922 H         1 RES1    0.0000
     11 H4         2.9827   -1.1226   28.3792 H         1 RES1    0.0000
     12 C4         2.3047    0.7759   28.9489 C.3       1 RES1    0.0000
     13 H5         3.2405    1.0292   28.8066 H         1 RES1    0.0000
     14 C5         1.9545    1.0297   30.4310 C.3       1 RES1    0.0000
     15 H6         0.9791    0.9662   30.5014 H         1 RES1    0.0000
     16 C6         2.3574    2.3371   31.1134 C.3       1 RES1    0.0000
     17 H7         3.3372    2.3567   31.1218 H         1 RES1    0.0000
     18 C7         1.9062    3.5955   30.3780 C.3       1 RES1    0.0000
     19 H8         2.2693    3.5859   29.4800 H         1 RES1    0.0000
     20 H9         0.9386    3.5932   30.3084 H         1 RES1    0.0000
     21 C8         2.3509    4.8702   31.0813 C.3       1 RES1    0.0000
     22 H10        1.9935    5.6395   30.6111 H         1 RES1    0.0000
     23 H11        3.3192    4.9291   31.0612 H         1 RES1    0.0000
     24 C9         1.8679    4.8913   32.5407 C.3       1 RES1    0.0000
     25 H12        0.9061    4.7133   32.4798 H         1 RES1    0.0000
     26 C10        1.9581    6.3083   33.2133 C.3       1 RES1    0.0000
     27 C11        1.0491    7.2470   32.4166 C.3       1 RES1    0.0000
     28 H13        1.5314    7.5585   31.6362 H         1 RES1    0.0000
     29 H14        0.2787    6.7451   32.1053 H         1 RES1    0.0000
     30 C12        0.5690    8.4351   33.1887 C.2       1 RES1    0.0000
     31 H15        0.1978    9.1332   32.6992 H         1 RES1    0.0000
     32 C13        0.6217    8.5889   34.5036 C.2       1 RES1    0.0000
     33 C14        1.1444    7.5003   35.4448 C.3       1 RES1    0.0000
     34 C15        1.3589    6.1732   34.6398 C.3       1 RES1    0.0000
     35 H16        0.4585    5.8104   34.5036 H         1 RES1    0.0000
     36 C16        2.1033    5.0975   35.4293 C.3       1 RES1    0.0000
     37 H17        3.0462    5.3207   35.4721 H         1 RES1    0.0000
     38 H18        1.7610    5.0673   36.3383 H         1 RES1    0.0000
     39 C17        1.9307    3.7319   34.7749 C.3       1 RES1    0.0000
     40 H19        0.9899    3.4950   34.7911 H         1 RES1    0.0000
     41 H20        2.4087    3.0719   35.3018 H         1 RES1    0.0000
     42 C18        2.4361    3.6671   33.3173 C.3       1 RES1    0.0000
     43 C19        1.9004    2.3436   32.6080 C.3       1 RES1    0.0000
     44 C20        2.4722    1.0807   33.2988 C.3       1 RES1    0.0000
     45 H21        3.4390    1.1517   33.3272 H         1 RES1    0.0000
     46 H22        2.1516    1.0535   34.2124 H         1 RES1    0.0000
     47 C21        2.0961   -0.2358   32.6058 C.3       1 RES1    0.0000
     48 H23        2.5314   -0.9771   33.0548 H         1 RES1    0.0000
     49 H24        1.1372   -0.3697   32.6614 H         1 RES1    0.0000
     50 C22        4.0159   -0.1915   31.1047 C.1       1 RES1    0.0000
     51 C23        1.4621    1.4875   27.9199 C.2       1 RES1    0.0000
     52 C24        2.0484    2.0596   26.8815 C.2       1 RES1    0.0000
     53 H25        1.5329    2.4694   26.2229 H         1 RES1    0.0000
     54 H26        2.9748    2.0512   26.8093 H         1 RES1    0.0000
     55 C25       -0.0029    1.4705   28.0883 C.3       1 RES1    0.0000
     56 H27       -0.4137    1.9602   27.3729 H         1 RES1    0.0000
     57 H28       -0.2339    1.8766   28.9277 H         1 RES1    0.0000
     58 H29       -0.3155    0.5625   28.0765 H         1 RES1    0.0000
     59 C26        3.3647    6.9342   33.2073 C.3       1 RES1    0.0000
     60 H30        3.3336    7.7961   33.6298 H         1 RES1    0.0000
     61 H31        3.6679    7.0336   32.3020 H         1 RES1    0.0000
     62 H32        3.9704    6.3656   33.6865 H         1 RES1    0.0000
     63 C27        0.0188    9.8354   35.0726 C.ar      1 RES1    0.0000
     64 C28       -1.3459   10.0407   34.9243 C.ar      1 RES1    0.0000
     65 H33       -1.8664    9.3793   34.5301 H         1 RES1    0.0000
     66 C29       -1.9459   11.2072   35.3525 C.ar      1 RES1    0.0000
     67 H34       -2.8636   11.3178   35.2489 H         1 RES1    0.0000
     68 C30       -1.1993   12.2125   35.9362 C.ar      1 RES1    0.0000
     69 C31        0.1639   12.0108   36.0993 C.ar      1 RES1    0.0000
     70 H35        0.6823   12.6755   36.4934 H         1 RES1    0.0000
     71 C32       -1.6607   15.6868   37.0348 C.3       1 RES1    0.0000
     72 H36       -0.9747   16.3378   37.2008 H         1 RES1    0.0000
     73 H37       -2.1661   15.5437   37.8364 H         1 RES1    0.0000
     74 H38       -2.2441   16.0068   36.3421 H         1 RES1    0.0000
     75 C33        0.7589   10.8370   35.6873 C.ar      1 RES1    0.0000
     76 H39        1.6708   10.7140   35.8239 H         1 RES1    0.0000
     77 C34       -1.8896   13.4464   36.3508 C.2       1 RES1    0.0000
     78 C35        2.4065    7.9731   36.1965 C.3       1 RES1    0.0000
     79 H40        2.2152    8.7902   36.6599 H         1 RES1    0.0000
     80 H41        3.1170    8.1222   35.5666 H         1 RES1    0.0000
     81 H42        2.6737    7.3003   36.8263 H         1 RES1    0.0000
     82 C36        0.0383    7.2409   36.4889 C.3       1 RES1    0.0000
     83 H43       -0.1148    8.0398   37.0003 H         1 RES1    0.0000
     84 H44        0.3134    6.5329   37.0760 H         1 RES1    0.0000
     85 H45       -0.7719    6.9875   36.0395 H         1 RES1    0.0000
     86 C37        3.9769    3.6780   33.3548 C.3       1 RES1    0.0000
     87 H46        4.2809    4.4818   33.7811 H         1 RES1    0.0000
     88 H47        4.3185    3.6417   32.4571 H         1 RES1    0.0000
     89 H48        4.2903    2.9155   33.8492 H         1 RES1    0.0000
     90 C38        0.3531    2.2554   32.6951 C.3       1 RES1    0.0000
     91 H49        0.0542    1.4499   32.2680 H         1 RES1    0.0000
     92 H50       -0.0354    3.0149   32.2528 H         1 RES1    0.0000
     93 H51        0.0845    2.2475   33.6185 H         1 RES1    0.0000
@<TRIPOS>BOND
     1    1    4 1
     2    2   77 2
     3    3   71 1
     4    5    6 1
     5    6    7 1
     6    8    6 1
     7    9    6 1
     8   10    9 1
     9   11    9 1
    10   12    9 1
    11   13   12 1
    12   14    5 1
    13   15   14 1
    14   16   14 1
    15   17   16 1
    16   18   16 1
    17   19   18 1
    18   20   18 1
    19   21   18 1
    20   22   21 1
    21   23   21 1
    22   24   21 1
    23   25   24 1
    24   26   24 1
    25   27   26 1
    26   28   27 1
    27   29   27 1
    28   30   27 1
    29   31   30 1
    30   32   30 2
    31   33   32 1
    32   34   26 1
    33   35   34 1
    34   36   34 1
    35   37   36 1
    36   38   36 1
    37   39   36 1
    38   40   39 1
    39   41   39 1
    40   42   24 1
    41   43   16 1
    42   44   43 1
    43   45   44 1
    44   46   44 1
    45   47    5 1
    46   48   47 1
    47   49   47 1
    48   50    1 3
    49   51   12 1
    50   52   51 2
    51   53   52 1
    52   54   52 1
    53   55   51 1
    54   56   55 1
    55   57   55 1
    56   58   55 1
    57   59   26 1
    58   60   59 1
    59   61   59 1
    60   62   59 1
    61   63   32 1
    62   64   63 ar
    63   65   64 1
    64   66   64 ar
    65   67   66 1
    66   68   66 ar
    67   69   68 ar
    68   70   69 1
    69   71   72 1
    70   73   71 1
    71   74   71 1
    72   75   63 ar
    73   76   75 1
    74   77    3 1
    75   78   33 1
    76   79   78 1
    77   80   78 1
    78   81   78 1
    79   82   33 1
    80   83   82 1
    81   84   82 1
    82   85   82 1
    83   86   42 1
    84   87   86 1
    85   88   86 1
    86   89   86 1
    87   90   43 1
    88   91   90 1
    89   92   90 1
    90   93   90 1
    91    5   50 1
    92   12   14 1
    93   33   34 1
    94   39   42 1
    95   42   43 1
    96   44   47 1
    97   68   77 1
    98   69   75 ar
@<TRIPOS>SUBSTRUCTURE
     1 RES1 1

@<TRIPOS>CRYSIN
   7.2203   12.1227   37.8288  90.0000  90.0000  90.0000  19 1

