# MOL2 file generated by ConQuest
# Please check atom types

@<TRIPOS>MOLECULE
QAPXAJ
    99   101     2
SMALL
NO_CHARGES
****
Generated from CSD

@<TRIPOS>ATOM
      1 O1        12.9742    2.1251    1.5273 O.3       1 RES1    0.0000
      2 H1        13.3624    1.5547    1.0823 H         1 RES1    0.0000
      3 O2         9.3574   15.6476    9.4753 O.3       1 RES1    0.0000
      4 O3         7.1097   15.7541    9.3889 O.2       1 RES1    0.0000
      5 O4        10.9821    2.9154   -0.0760 O.2       1 RES1    0.0000
      6 N1        11.6445    1.7457    1.7093 N.am      1 RES1    0.0000
      7 H2        11.4382    1.1764    2.3177 H         1 RES1    0.0000
      8 C1         8.4059    6.7410    3.4678 C.3       1 RES1    0.0000
      9 H3         7.4837    6.5446    3.7335 H         1 RES1    0.0000
     10 C2        10.6882    2.2707    0.9287 C.2       1 RES1    0.0000
     11 C3         9.2363    1.9439    1.2977 C.3       1 RES1    0.0000
     12 C4         8.2567    3.0872    0.9309 C.3       1 RES1    0.0000
     13 H4         7.3864    2.8196    1.2955 H         1 RES1    0.0000
     14 C5         8.6265    4.3840    1.6481 C.3       1 RES1    0.0000
     15 H5         9.5643    4.5657    1.4267 H         1 RES1    0.0000
     16 C6         7.8379    5.6195    1.2305 C.3       1 RES1    0.0000
     17 H6         6.9010    5.4895    1.4431 H         1 RES1    0.0000
     18 H7         7.9112    5.7366    0.2678 H         1 RES1    0.0000
     19 C7         8.3485    6.8819    1.9340 C.3       1 RES1    0.0000
     20 H8         7.7680    7.6247    1.7055 H         1 RES1    0.0000
     21 H9         9.2363    7.0890    1.6016 H         1 RES1    0.0000
     22 C8         8.7619    8.0743    4.2134 C.3       1 RES1    0.0000
     23 C9         7.6204    9.0785    3.9636 C.3       1 RES1    0.0000
     24 H10        7.6783    9.4025    3.0502 H         1 RES1    0.0000
     25 H11        6.7698    8.6218    4.0615 H         1 RES1    0.0000
     26 C10        7.6581   10.2463    4.8984 C.2       1 RES1    0.0000
     27 H12        7.1623   10.9965    4.6628 H         1 RES1    0.0000
     28 C11        8.3436   10.3006    6.0403 C.2       1 RES1    0.0000
     29 C12        8.3343   11.5822    6.8099 C.ar      1 RES1    0.0000
     30 C13        7.1251   12.1696    7.1565 C.ar      1 RES1    0.0000
     31 H13        6.3303   11.7585    6.9039 H         1 RES1    0.0000
     32 C14        7.0759   13.3504    7.8666 C.ar      1 RES1    0.0000
     33 H14        6.2526   13.7298    8.0737 H         1 RES1    0.0000
     34 C15        8.2414   13.9765    8.2722 C.ar      1 RES1    0.0000
     35 C16        8.1441   15.2068    9.0954 C.2       1 RES1    0.0000
     36 C17        9.3839   16.7626   10.3860 C.3       1 RES1    0.0000
     37 H15        8.7377   17.4175   10.1072 H         1 RES1    0.0000
     38 H16       10.2585   17.1562   10.3860 H         1 RES1    0.0000
     39 H17        9.1707   16.4576   11.2715 H         1 RES1    0.0000
     40 C18        9.5020   12.2571    7.1723 C.ar      1 RES1    0.0000
     41 H18       10.3263   11.9127    6.9094 H         1 RES1    0.0000
     42 C19        9.4604   13.4215    7.9070 C.ar      1 RES1    0.0000
     43 H19       10.2520   13.8369    8.1612 H         1 RES1    0.0000
     44 C20        8.7565    7.8185    5.7440 C.3       1 RES1    0.0000
     45 H20        7.8390    7.5438    5.9473 H         1 RES1    0.0000
     46 C21        9.6211    6.6123    6.1179 C.3       1 RES1    0.0000
     47 H21       10.5428    6.7916    5.8763 H         1 RES1    0.0000
     48 H22        9.5840    6.4768    7.0789 H         1 RES1    0.0000
     49 C22        9.1521    5.3528    5.4138 C.3       1 RES1    0.0000
     50 H23        8.2381    5.1637    5.6795 H         1 RES1    0.0000
     51 H24        9.7042    4.6072    5.6959 H         1 RES1    0.0000
     52 C23        9.2174    5.4708    3.8762 C.3       1 RES1    0.0000
     53 C24        8.5640    4.1893    3.2005 C.3       1 RES1    0.0000
     54 C25        7.0967    3.9807    3.6673 C.3       1 RES1    0.0000
     55 H25        6.6954    3.2745    3.1541 H         1 RES1    0.0000
     56 H26        6.6014    4.7920    3.5367 H         1 RES1    0.0000
     57 H27        7.0879    3.7457    4.5972 H         1 RES1    0.0000
     58 C26        8.1025    3.0536   -0.6062 C.3       1 RES1    0.0000
     59 H28        8.7727    3.6462   -1.0058 H         1 RES1    0.0000
     60 C27        6.7337    3.4264   -1.1474 C.2       1 RES1    0.0000
     61 C28        5.5376    2.7617   -0.5231 C.3       1 RES1    0.0000
     62 H29        5.3332    3.1881    0.3116 H         1 RES1    0.0000
     63 H30        5.7300    1.8346   -0.3717 H         1 RES1    0.0000
     64 H31        4.7843    2.8393   -1.1151 H         1 RES1    0.0000
     65 C29        6.6211    4.2453   -2.1811 C.2       1 RES1    0.0000
     66 H32        5.7836    4.4246   -2.5418 H         1 RES1    0.0000
     67 H33        7.3798    4.6411   -2.5473 H         1 RES1    0.0000
     68 C30        8.4513    1.5733   -0.9730 C.3       1 RES1    0.0000
     69 H34        7.7035    1.1545   -1.4267 H         1 RES1    0.0000
     70 H35        9.2221    1.5470   -1.5634 H         1 RES1    0.0000
     71 C31        8.7585    0.8397    0.3324 C.3       1 RES1    0.0000
     72 H36        9.4517    0.1749    0.1968 H         1 RES1    0.0000
     73 H37        7.9648    0.4002    0.6778 H         1 RES1    0.0000
     74 C32        9.0460    1.6618    2.7845 C.3       1 RES1    0.0000
     75 H38        9.6441    0.9468    3.0557 H         1 RES1    0.0000
     76 H39        8.1364    1.3666    2.9409 H         1 RES1    0.0000
     77 C33        9.3292    2.9060    3.6274 C.3       1 RES1    0.0000
     78 H40       10.2815    3.0908    3.5914 H         1 RES1    0.0000
     79 H41        9.1062    2.7081    4.5480 H         1 RES1    0.0000
     80 C34       10.7035    5.5890    3.4596 C.3       1 RES1    0.0000
     81 H42       11.2830    5.8820    4.1927 H         1 RES1    0.0000
     82 H43       10.7254    6.0460    2.5965 H         1 RES1    0.0000
     83 H44       11.1080    4.7559    3.1650 H         1 RES1    0.0000
     84 C35        9.0127    9.0668    6.6426 C.3       1 RES1    0.0000
     85 C36       10.5122    9.2789    6.9504 C.3       1 RES1    0.0000
     86 H45       10.9626    9.5730    6.1551 H         1 RES1    0.0000
     87 H46       10.8970    8.4513    7.2483 H         1 RES1    0.0000
     88 H47       10.6073    9.9426    7.6364 H         1 RES1    0.0000
     89 C37        8.3179    8.8219    8.0043 C.3       1 RES1    0.0000
     90 H48        8.4622    9.5785    8.5766 H         1 RES1    0.0000
     91 H49        8.6863    8.0358    8.4126 H         1 RES1    0.0000
     92 H50        7.3766    8.6995    7.8660 H         1 RES1    0.0000
     93 C38       10.0628    8.7323    3.7231 C.3       1 RES1    0.0000
     94 H51       10.0869    8.7191    2.7659 H         1 RES1    0.0000
     95 H52       10.8161    8.2479    4.0669 H         1 RES1    0.0000
     96 H53       10.0978    9.6408    4.0341 H         1 RES1    0.0000
     97 H54       11.0971    6.4396    3.7444 Du        2 SUP2    0.0000
     98 H55       10.9222    5.3026    2.5582 Du        2 SUP2    0.0000
     99 H56       11.2392    4.9308    3.9412 Du        2 SUP2    0.0000
@<TRIPOS>BOND
     1    1    2 1
     2    3   35 1
     3    4   35 2
     4    5   10 2
     5    6    1 1
     6    7    6 1
     7    8    9 1
     8   10    6 1
     9   11   10 1
    10   12   11 1
    11   13   12 1
    12   14   12 1
    13   15   14 1
    14   16   14 1
    15   17   16 1
    16   18   16 1
    17   19    8 1
    18   20   19 1
    19   21   19 1
    20   22    8 1
    21   23   22 1
    22   24   23 1
    23   25   23 1
    24   26   23 1
    25   27   26 1
    26   28   26 2
    27   29   28 1
    28   30   29 ar
    29   31   30 1
    30   32   30 ar
    31   33   32 1
    32   34   32 ar
    33   35   34 1
    34   36    3 1
    35   37   36 1
    36   38   36 1
    37   39   36 1
    38   40   29 ar
    39   41   40 1
    40   42   34 ar
    41   43   42 1
    42   44   22 1
    43   45   44 1
    44   46   44 1
    45   47   46 1
    46   48   46 1
    47   49   46 1
    48   50   49 1
    49   51   49 1
    50   52    8 1
    51   53   14 1
    52   54   53 1
    53   55   54 1
    54   56   54 1
    55   57   54 1
    56   58   12 1
    57   59   58 1
    58   60   58 1
    59   61   60 1
    60   62   61 1
    61   63   61 1
    62   64   61 1
    63   65   60 2
    64   66   65 1
    65   67   65 1
    66   68   58 1
    67   69   68 1
    68   70   68 1
    69   71   11 1
    70   72   71 1
    71   73   71 1
    72   74   11 1
    73   75   74 1
    74   76   74 1
    75   77   53 1
    76   78   77 1
    77   79   77 1
    78   80   52 1
    79   81   80 1
    80   82   80 1
    81   83   80 1
    82   84   28 1
    83   85   84 1
    84   86   85 1
    85   87   85 1
    86   88   85 1
    87   89   84 1
    88   90   89 1
    89   91   89 1
    90   92   89 1
    91   93   22 1
    92   94   93 1
    93   95   93 1
    94   96   93 1
    95   16   19 1
    96   40   42 ar
    97   44   84 1
    98   49   52 1
    99   52   53 1
   100   68   71 1
   101   74   77 1
@<TRIPOS>SUBSTRUCTURE
     1 RES1 1
     2 SUP2 97

@<TRIPOS>CRYSIN
  10.9331   10.9331   54.6630  90.0000  90.0000  90.0000  96 1

