# MOL2 file generated by ConQuest
# Please check atom types

@<TRIPOS>MOLECULE
QAQGUK
    48    51     1
SMALL
NO_CHARGES
****
Generated from CSD

@<TRIPOS>ATOM
      1 O1         4.1475    4.1343    5.7079 O.3       1 RES1    0.0000
      2 N1         4.7533    5.2461    5.0478 N.3       1 RES1    0.0000
      3 C1         3.8293    5.5999    3.9315 C.3       1 RES1    0.0000
      4 C2         3.0078    4.3299    3.6629 C.3       1 RES1    0.0000
      5 C3         3.5182    3.3102    4.6919 C.3       1 RES1    0.0000
      6 C4         2.9987    6.8143    4.2971 C.3       1 RES1    0.0000
      7 O2         2.0748    6.4449    5.3261 O.3       1 RES1    0.0000
      8 C5         1.2502    7.5236    5.7338 C.3       1 RES1    0.0000
      9 O3         0.4868    8.0026    4.6530 O.3       1 RES1    0.0000
     10 C6         1.3104    8.4729    3.5917 C.3       1 RES1    0.0000
     11 C7         2.2253    7.3663    3.1031 C.3       1 RES1    0.0000
     12 O4         3.1583    7.8713    2.1712 O.3       1 RES1    0.0000
     13 C8         0.2976    6.9795    6.7757 C.3       1 RES1    0.0000
     14 C9         2.4853    2.4861    5.4005 C.ar      1 RES1    0.0000
     15 C10        2.5079    1.0962    5.3423 C.ar      1 RES1    0.0000
     16 C11        1.5538    0.3495    6.0315 C.ar      1 RES1    0.0000
     17 C12        0.6073    0.9788    6.8048 C.ar      1 RES1    0.0000
     18 C13        0.5917    2.3549    6.8857 C.ar      1 RES1    0.0000
     19 C14        1.5197    3.1068    6.1836 C.ar      1 RES1    0.0000
     20 C15        6.1119    4.9636    4.6595 C.ar      1 RES1    0.0000
     21 C16        6.7658    3.8118    5.0737 C.ar      1 RES1    0.0000
     22 C17        8.0878    3.6171    4.6983 C.ar      1 RES1    0.0000
     23 C18        8.7583    4.5646    3.9444 C.ar      1 RES1    0.0000
     24 C19        8.1239    5.7051    3.5788 C.ar      1 RES1    0.0000
     25 C20        6.7950    5.9242    3.9315 C.ar      1 RES1    0.0000
     26 H1         4.3608    5.8077    3.1322 H         1 RES1    0.0000
     27 H2         2.0617    4.4994    3.7859 H         1 RES1    0.0000
     28 H3         3.1538    4.0091    2.7601 H         1 RES1    0.0000
     29 H4         4.1847    2.7243    4.2745 H         1 RES1    0.0000
     30 H5         3.5925    7.5141    4.6433 H         1 RES1    0.0000
     31 H6         1.7952    8.2451    6.1124 H         1 RES1    0.0000
     32 H7         1.8429    9.2231    3.8991 H         1 RES1    0.0000
     33 H8         0.7528    8.7797    2.8572 H         1 RES1    0.0000
     34 H9         1.6948    6.6526    2.6922 H         1 RES1    0.0000
     35 H10        2.8281    7.8627    1.4205 H         1 RES1    0.0000
     36 H11       -0.3172    7.6688    7.0378 H         1 RES1    0.0000
     37 H12        0.7955    6.6874    7.5426 H         1 RES1    0.0000
     38 H13       -0.1892    6.2388    6.4101 H         1 RES1    0.0000
     39 H14        3.1618    0.6641    4.8407 H         1 RES1    0.0000
     40 H15        1.5588   -0.5789    5.9668 H         1 RES1    0.0000
     41 H16       -0.0216    0.4772    7.2708 H         1 RES1    0.0000
     42 H17       -0.0432    2.7800    7.4164 H         1 RES1    0.0000
     43 H18        1.4966    4.0352    6.2386 H         1 RES1    0.0000
     44 H19        6.3247    3.1798    5.5946 H         1 RES1    0.0000
     45 H20        8.5289    2.8408    4.9572 H         1 RES1    0.0000
     46 H21        9.6411    4.4194    3.6920 H         1 RES1    0.0000
     47 H22        8.5811    6.3475    3.0869 H         1 RES1    0.0000
     48 H23        6.3689    6.7109    3.6791 H         1 RES1    0.0000
@<TRIPOS>BOND
     1    1    2 1
     2    2    3 1
     3    3    4 1
     4    4    5 1
     5    5    1 1
     6    6    3 1
     7    7    6 1
     8    8    7 1
     9    9    8 1
    10   10    9 1
    11   11    6 1
    12   12   11 1
    13   13    8 1
    14   14    5 1
    15   15   14 ar
    16   16   15 ar
    17   17   16 ar
    18   18   17 ar
    19   19   14 ar
    20   20    2 1
    21   21   20 ar
    22   22   21 ar
    23   23   22 ar
    24   24   23 ar
    25   25   20 ar
    26   26    3 1
    27   27    4 1
    28   28    4 1
    29   29    5 1
    30   30    6 1
    31   31    8 1
    32   32   10 1
    33   33   10 1
    34   34   11 1
    35   35   12 1
    36   36   13 1
    37   37   13 1
    38   38   13 1
    39   39   15 1
    40   40   16 1
    41   41   17 1
    42   42   18 1
    43   43   19 1
    44   44   21 1
    45   45   22 1
    46   46   23 1
    47   47   24 1
    48   48   25 1
    49   10   11 1
    50   18   19 ar
    51   24   25 ar
@<TRIPOS>SUBSTRUCTURE
     1 RES1 1

@<TRIPOS>CRYSIN
  10.0376   10.0376   32.3577  90.0000  90.0000 120.0000 169 1

