# MOL2 file generated by ConQuest
# Please check atom types

@<TRIPOS>MOLECULE
QAQPON
    24    25     1
SMALL
NO_CHARGES
****
Generated from CSD

@<TRIPOS>ATOM
      1 O1        -1.3936    3.0710   11.6592 O.3       1 RES1    0.0000
      2 O2         5.6280    2.9213    8.2305 O.3       1 RES1    0.0000
      3 N1        -1.8666    2.7465   10.4043 N.2       1 RES1    0.0000
      4 N2         1.1935    3.8413   13.7215 N.1       1 RES1    0.0000
      5 N3        -1.2657    2.0932    7.1554 N.1       1 RES1    0.0000
      6 C1        -0.0406    3.1809   11.5778 C.2       1 RES1    0.0000
      7 C2         0.4055    2.9391   10.2901 C.2       1 RES1    0.0000
      8 C3        -0.8096    2.6766    9.6154 C.2       1 RES1    0.0000
      9 C4         0.6401    3.5446   12.7947 C.1       1 RES1    0.0000
     10 C5        -1.0573    2.3450    8.2358 C.1       1 RES1    0.0000
     11 C6         1.7820    2.9455    9.7900 C.ar      1 RES1    0.0000
     12 C7         2.8652    2.7273   10.6353 C.ar      1 RES1    0.0000
     13 C8         4.1599    2.7209   10.1601 C.ar      1 RES1    0.0000
     14 C9         4.4023    2.9177    8.8199 C.ar      1 RES1    0.0000
     15 C10        3.3298    3.1452    7.9562 C.ar      1 RES1    0.0000
     16 C11        2.0391    3.1638    8.4182 C.ar      1 RES1    0.0000
     17 C12        6.7705    2.7458    9.0614 C.3       1 RES1    0.0000
     18 H1         2.7419    2.5390   11.6566 H         1 RES1    0.0000
     19 H2         4.8774    2.5818   10.8427 H         1 RES1    0.0000
     20 H3         3.4535    3.3092    7.0622 H         1 RES1    0.0000
     21 H4         1.2285    3.3948    7.7579 H         1 RES1    0.0000
     22 H5         6.8146    3.4804    9.6745 H         1 RES1    0.0000
     23 H6         6.7368    1.7830    9.5563 H         1 RES1    0.0000
     24 H7         7.5309    2.8385    8.4405 H         1 RES1    0.0000
@<TRIPOS>BOND
     1    1    3 1
     2    2   14 1
     3    3    8 2
     4    4    9 3
     5    5   10 3
     6    6    1 1
     7    7    6 2
     8    8    7 1
     9    9    6 1
    10   10    8 1
    11   11    7 1
    12   12   11 ar
    13   13   12 ar
    14   14   13 ar
    15   15   14 ar
    16   16   11 ar
    17   17    2 1
    18   18   12 1
    19   19   13 1
    20   20   15 1
    21   21   16 1
    22   22   17 1
    23   23   17 1
    24   24   17 1
    25   15   16 ar
@<TRIPOS>SUBSTRUCTURE
     1 RES1 1

@<TRIPOS>CRYSIN
  11.7110    7.1320   13.2450  90.0000  97.6600  90.0000 231 1

