# MOL2 file generated by ConQuest
# Please check atom types

@<TRIPOS>MOLECULE
QATZOD
    30    32     1
SMALL
NO_CHARGES
****
Generated from CSD

@<TRIPOS>ATOM
      1 O1        -0.3557   -3.1395  -20.6181 O.2       1 RES1    0.0000
      2 O2        -4.0758   -0.4652  -20.8273 O.2       1 RES1    0.0000
      3 N1        -1.7623   -1.0806  -19.2277 N.pl3     1 RES1    0.0000
      4 H1        -1.3198   -0.3433  -19.2072 H         1 RES1    0.0000
      5 N2        -2.1138   -1.6383  -20.4325 N.am      1 RES1    0.0000
      6 O3        -2.4477   -3.3183  -13.4159 O.2       1 RES1    0.0000
      7 N3        -3.1455   -3.5122  -14.4017 N.pl3     1 RES1    0.0000
      8 O4        -4.1434   -4.2308  -14.3781 O.2       1 RES1    0.0000
      9 C1        -3.2558   -2.4965  -17.9611 C.ar      1 RES1    0.0000
     10 H2        -3.7924   -2.6290  -18.7101 H         1 RES1    0.0000
     11 C2        -3.2241   -1.2327  -21.1956 C.2       1 RES1    0.0000
     12 C3        -2.1216   -1.7067  -18.0496 C.ar      1 RES1    0.0000
     13 C4        -1.9901   -2.8185  -22.3972 C.ar      1 RES1    0.0000
     14 C5        -3.1065   -1.9913  -22.4586 C.ar      1 RES1    0.0000
     15 C6        -1.3427   -2.6210  -21.0759 C.2       1 RES1    0.0000
     16 C7        -1.3557   -1.4853  -16.9195 C.ar      1 RES1    0.0000
     17 H3        -0.6079   -0.9347  -16.9742 H         1 RES1    0.0000
     18 C8        -3.5839   -3.0853  -16.7607 C.ar      1 RES1    0.0000
     19 H4        -4.3379   -3.6269  -16.6957 H         1 RES1    0.0000
     20 C9        -2.7961   -2.8710  -15.6632 C.ar      1 RES1    0.0000
     21 C10       -1.6432   -3.6260  -23.4497 C.ar      1 RES1    0.0000
     22 H5        -0.9007   -4.1837  -23.4026 H         1 RES1    0.0000
     23 C11       -3.8886   -1.9398  -23.5874 C.ar      1 RES1    0.0000
     24 H6        -4.6265   -1.3759  -23.6368 H         1 RES1    0.0000
     25 C12       -1.6828   -2.0661  -15.7171 C.ar      1 RES1    0.0000
     26 H7        -1.1638   -1.9193  -14.9597 H         1 RES1    0.0000
     27 C13       -3.5376   -2.7562  -24.6466 C.ar      1 RES1    0.0000
     28 H8        -4.0566   -2.7482  -25.4170 H         1 RES1    0.0000
     29 C14       -2.4342   -3.5834  -24.5842 C.ar      1 RES1    0.0000
     30 H9        -2.2199   -4.1188  -25.3129 H         1 RES1    0.0000
@<TRIPOS>BOND
     1    1   15 2
     2    2   11 2
     3    3    4 1
     4    5    3 1
     5    6    7 2
     6    7    8 2
     7    9   10 1
     8   11    5 1
     9   12    3 1
    10   13   14 ar
    11   14   11 1
    12   15    5 1
    13   16   12 ar
    14   17   16 1
    15   18    9 ar
    16   19   18 1
    17   20    7 1
    18   21   13 ar
    19   22   21 1
    20   23   14 ar
    21   24   23 1
    22   25   16 ar
    23   26   25 1
    24   27   23 ar
    25   28   27 1
    26   29   21 ar
    27   30   29 1
    28    9   12 ar
    29   13   15 1
    30   18   20 ar
    31   20   25 ar
    32   27   29 ar
@<TRIPOS>SUBSTRUCTURE
     1 RES1 1

@<TRIPOS>CRYSIN
   5.2001    8.8939   26.0260  90.0000  90.0000  90.0000  19 1

