# MOL2 file generated by ConQuest
# Please check atom types

@<TRIPOS>MOLECULE
QAWNIL
    31    35     1
SMALL
NO_CHARGES
****
Generated from CSD

@<TRIPOS>ATOM
      1 O1         6.2272    2.4212    7.0909 O.2       1 RES1    0.0000
      2 O2         2.7049    5.9825    3.6554 O.2       1 RES1    0.0000
      3 O3         5.2055    6.9419    4.2634 O.3       1 RES1    0.0000
      4 O4         4.7510    2.5209    1.5925 O.3       1 RES1    0.0000
      5 O5         4.2438   -2.2664    5.7943 O.3       1 RES1    0.0000
      6 N1         6.4616    4.1779    5.6088 N.am      1 RES1    0.0000
      7 N2         5.0127    2.5397    5.1384 N.am      1 RES1    0.0000
      8 N3         4.8224    5.6168    4.5448 N.am      1 RES1    0.0000
      9 N4         3.7276    3.9271    3.6254 N.am      1 RES1    0.0000
     10 C1         5.8786    4.6069    4.3276 C.3       1 RES1    0.0000
     11 C2         5.9316    2.9925    6.0612 C.2       1 RES1    0.0000
     12 C3         5.0142    3.3535    3.9179 C.3       1 RES1    0.0000
     13 C4         3.6418    5.2462    3.8897 C.2       1 RES1    0.0000
     14 C5         6.9060    5.0521    3.3150 C.3       1 RES1    0.0000
     15 C6         7.0850    5.0835    6.5162 C.ar      1 RES1    0.0000
     16 C7         8.2732    5.7042    6.2049 C.ar      1 RES1    0.0000
     17 C8         8.8311    6.6066    7.1097 C.ar      1 RES1    0.0000
     18 C9         8.2291    6.8545    8.3122 C.ar      1 RES1    0.0000
     19 C10        7.0833    6.1999    8.6441 C.ar      1 RES1    0.0000
     20 C11        6.5013    5.3476    7.7392 C.ar      1 RES1    0.0000
     21 C12        4.8998    1.1691    4.7869 C.ar      1 RES1    0.0000
     22 C13        4.6162    0.1230    5.6421 C.ar      1 RES1    0.0000
     23 C14        4.5159   -1.1351    5.0682 C.ar      1 RES1    0.0000
     24 C15        4.7002   -1.3229    3.7050 C.ar      1 RES1    0.0000
     25 C16        4.9958   -0.2495    2.8865 C.ar      1 RES1    0.0000
     26 C17        5.0981    1.0121    3.4330 C.ar      1 RES1    0.0000
     27 C18        5.4446    2.3459    2.8001 C.3       1 RES1    0.0000
     28 C19        4.1944   -2.1390    7.2132 C.3       1 RES1    0.0000
     29 C20        5.3134    3.2477    0.5961 C.3       1 RES1    0.0000
     30 C21        4.6806    3.0984   -0.6945 C.3       1 RES1    0.0000
     31 C22        4.9895    7.7637    5.4103 C.3       1 RES1    0.0000
@<TRIPOS>BOND
     1    1   11 2
     2    2   13 2
     3    3    8 1
     4    4   27 1
     5    5   23 1
     6    6   10 1
     7    7   11 1
     8    8   10 1
     9    9   12 1
    10   10   12 1
    11   11    6 1
    12   12    7 1
    13   13    8 1
    14   14   10 1
    15   15    6 1
    16   16   15 ar
    17   17   16 ar
    18   18   17 ar
    19   19   18 ar
    20   20   15 ar
    21   21    7 1
    22   22   21 ar
    23   23   22 ar
    24   24   23 ar
    25   25   24 ar
    26   26   21 ar
    27   27   12 1
    28   28    5 1
    29   29    4 1
    30   30   29 1
    31   31    3 1
    32    9   13 1
    33   19   20 ar
    34   25   26 ar
    35   26   27 1
@<TRIPOS>SUBSTRUCTURE
     1 RES1 1

@<TRIPOS>CRYSIN
   7.7750   31.7780    8.8060  90.0000 103.7800  90.0000  14 1

