# MOL2 file generated by ConQuest
# Please check atom types

@<TRIPOS>MOLECULE
QAYBUO
    26    27     1
SMALL
NO_CHARGES
****
Generated from CSD

@<TRIPOS>ATOM
      1 N1         4.2790    4.0619    4.6919 N.3       1 RES1    0.0000
      2 O1         4.2595    2.7523    5.3164 O.3       1 RES1    0.0000
      3 C1         4.5417    2.9235    6.7406 C.3       1 RES1    0.0000
      4 H1         5.5018    2.6595    6.8685 H         1 RES1    0.0000
      5 H2         3.9311    2.2194    7.2555 H         1 RES1    0.0000
      6 C2         4.2905    4.3881    7.0448 C.3       1 RES1    0.0000
      7 H3         5.1646    4.7832    7.1803 H         1 RES1    0.0000
      8 H4         3.6294    4.4962    7.7822 H         1 RES1    0.0000
      9 O2         1.7118    5.7102    4.6627 O.3       1 RES1    0.0000
     10 O3         2.4199    7.6675    3.9104 O.2       1 RES1    0.0000
     11 C3         3.6649    4.9009    5.7517 C.3       1 RES1    0.0000
     12 O4         1.5370    6.0364    7.5199 O.3       1 RES1    0.0000
     13 H5         1.1270    5.9407    8.3949 H         1 RES1    0.0000
     14 C4         3.7954    6.3856    5.4583 C.3       1 RES1    0.0000
     15 H6         3.6915    6.8878    6.2881 H         1 RES1    0.0000
     16 H7         4.5878    6.6678    5.0735 H         1 RES1    0.0000
     17 C5         2.6151    6.6955    4.5973 C.2       1 RES1    0.0000
     18 C6         2.1342    4.6894    5.6185 C.3       1 RES1    0.0000
     19 H8         1.9700    3.7309    5.1810 H         1 RES1    0.0000
     20 C7         1.2805    4.8071    6.8610 C.3       1 RES1    0.0000
     21 H9         0.3461    4.7641    6.6321 H         1 RES1    0.0000
     22 H10        1.5618    4.0562    7.4920 H         1 RES1    0.0000
     23 C8         5.6837    4.3805    4.3727 C.3       1 RES1    0.0000
     24 H11        6.0165    3.5204    3.8696 H         1 RES1    0.0000
     25 H12        6.2650    4.4962    5.2025 H         1 RES1    0.0000
     26 H13        5.6527    5.3094    3.8696 H         1 RES1    0.0000
@<TRIPOS>BOND
     1    1    2 1
     2    2    3 1
     3    3    4 1
     4    5    3 1
     5    6    3 1
     6    7    6 1
     7    8    6 1
     8    9   17 1
     9   10   17 2
    10   11    1 1
    11   12   13 1
    12   14   11 1
    13   15   14 1
    14   16   14 1
    15   17   14 1
    16   18    9 1
    17   19   18 1
    18   20   12 1
    19   21   20 1
    20   22   20 1
    21   23    1 1
    22   24   23 1
    23   25   23 1
    24   26   23 1
    25    6   11 1
    26   11   18 1
    27   18   20 1
@<TRIPOS>SUBSTRUCTURE
     1 RES1 1

@<TRIPOS>CRYSIN
   8.8739    9.5664   10.7489  90.0000  90.0000  90.0000  19 1

