# MOL2 file generated by ConQuest
# Please check atom types

@<TRIPOS>MOLECULE
QAYJEG
    70    73     1
SMALL
NO_CHARGES
****
Generated from CSD

@<TRIPOS>ATOM
      1 O1         0.0313    4.2870    6.6559 O.2       1 RES1    0.0000
      2 O2         1.2940    5.7917    7.4722 O.2       1 RES1    0.0000
      3 N1         1.0996    4.8953    6.6982 N.pl3     1 RES1    0.0000
      4 C1         2.0990    4.5111    5.7298 C.ar      1 RES1    0.0000
      5 C2         1.8694    3.5492    4.7729 C.ar      1 RES1    0.0000
      6 C3         2.8389    3.1782    3.8718 C.ar      1 RES1    0.0000
      7 C4         4.1032    3.7879    3.9277 C.ar      1 RES1    0.0000
      8 C5         4.3305    4.7629    4.9269 C.ar      1 RES1    0.0000
      9 N2         5.5848    5.4512    5.0444 N.pl3     1 RES1    0.0000
     10 O3         5.6818    6.3796    5.8145 O.2       1 RES1    0.0000
     11 O4         6.5423    5.0452    4.3782 O.2       1 RES1    0.0000
     12 C6         3.3196    5.1150    5.8010 C.ar      1 RES1    0.0000
     13 N3         5.0330    3.4255    3.0228 N.3       1 RES1    0.0000
     14 N4         4.6994    2.5408    1.9946 N.2       1 RES1    0.0000
     15 C7         5.6575    2.2614    1.1899 C.2       1 RES1    0.0000
     16 C8         7.0748    2.7343    1.2669 C.3       1 RES1    0.0000
     17 C9         7.6689    2.2468   -0.0539 C.3       1 RES1    0.0000
     18 C10        6.8717    1.0507   -0.4313 C.3       1 RES1    0.0000
     19 C11        5.4462    1.3693    0.0116 C.3       1 RES1    0.0000
     20 C12        4.5264    0.1877    0.2830 C.3       1 RES1    0.0000
     21 C13        3.9249   -0.4962   -0.9569 C.3       1 RES1    0.0000
     22 C14        2.6514    0.1470   -1.4170 C.2       1 RES1    0.0000
     23 O5         2.3141    1.2253   -1.0532 O.2       1 RES1    0.0000
     24 O6         2.0288   -0.5588   -2.2950 O.3       1 RES1    0.0000
     25 C15        0.7425   -0.0757   -2.7802 C.3       1 RES1    0.0000
     26 C16       -0.2738   -0.8397   -2.3682 C.3       1 RES1    0.0000
     27 C17        3.4779   -1.8816   -0.5680 C.2       1 RES1    0.0000
     28 O7         3.9394   -2.8653   -1.1398 O.2       1 RES1    0.0000
     29 O8         2.6519   -1.9063    0.3716 O.3       1 RES1    0.0000
     30 C18        2.1838   -3.2393    0.7798 C.3       1 RES1    0.0000
     31 C19        1.0275   -3.1156    1.4421 C.3       1 RES1    0.0000
     32 C20        4.8913   -0.5384   -2.1698 C.3       1 RES1    0.0000
     33 C21        6.0826   -0.4904   -2.3219 C.3       1 RES1    0.0000
     34 C22        7.0941    0.5239   -1.8464 C.3       1 RES1    0.0000
     35 C23        8.5132    0.0568   -2.0543 C.3       1 RES1    0.0000
     36 C24        8.7698   -0.2998   -3.5041 C.3       1 RES1    0.0000
     37 C25        7.6862   -1.0332   -4.1395 C.2       1 RES1    0.0000
     38 C26        6.5321   -1.1103   -3.6138 C.2       1 RES1    0.0000
     39 H1         1.0111    3.1229    4.7363 H         1 RES1    0.0000
     40 H2         2.6485    2.5088    3.2115 H         1 RES1    0.0000
     41 H3         3.4768    5.7888    6.4672 H         1 RES1    0.0000
     42 H4         5.9251    3.7733    3.0844 H         1 RES1    0.0000
     43 H5         7.1146    3.6918    1.3285 H         1 RES1    0.0000
     44 H6         7.5317    2.3472    2.0197 H         1 RES1    0.0000
     45 H7         8.5938    2.0111    0.0635 H         1 RES1    0.0000
     46 H8         7.5948    2.9250   -0.7278 H         1 RES1    0.0000
     47 H9         7.1751    0.2590    0.0193 H         1 RES1    0.0000
     48 H10        4.9488    1.7797   -0.7008 H         1 RES1    0.0000
     49 H11        5.0336   -0.4700    0.7644 H         1 RES1    0.0000
     50 H12        3.8029    0.4977    0.8317 H         1 RES1    0.0000
     51 H13        0.7506   -0.0480   -3.7390 H         1 RES1    0.0000
     52 H14        0.6083    0.8105   -2.4355 H         1 RES1    0.0000
     53 H15       -1.1744   -0.5733   -2.5742 H         1 RES1    0.0000
     54 H16       -0.0614   -0.5821   -1.4690 H         1 RES1    0.0000
     55 H17       -0.1940   -1.7914   -2.4567 H         1 RES1    0.0000
     56 H18        2.8411   -3.6438    1.3497 H         1 RES1    0.0000
     57 H19        2.0510   -3.7879    0.0039 H         1 RES1    0.0000
     58 H20        0.5092   -3.7850    1.8926 H         1 RES1    0.0000
     59 H21        0.4438   -2.4389    1.0936 H         1 RES1    0.0000
     60 H22        1.6455   -2.7183    2.0601 H         1 RES1    0.0000
     61 H23        4.5440    0.1397   -2.7551 H         1 RES1    0.0000
     62 H24        4.6980   -1.4043   -2.5337 H         1 RES1    0.0000
     63 H25        6.1016   -0.8717   -1.4421 H         1 RES1    0.0000
     64 H26        6.9442    1.2835   -2.4144 H         1 RES1    0.0000
     65 H27        9.1135    0.7596   -1.7944 H         1 RES1    0.0000
     66 H28        8.6712   -0.7174   -1.5095 H         1 RES1    0.0000
     67 H29        9.5632   -0.8382   -3.5465 H         1 RES1    0.0000
     68 H30        8.9072    0.5137   -3.9951 H         1 RES1    0.0000
     69 H31        7.8505   -1.4741   -4.9751 H         1 RES1    0.0000
     70 H32        5.8771   -1.6255   -4.0913 H         1 RES1    0.0000
@<TRIPOS>BOND
     1    1    3 2
     2    2    3 2
     3    3    4 1
     4    4    5 ar
     5    5    6 ar
     6    6    7 ar
     7    7    8 ar
     8    8    9 1
     9    9   10 2
    10   11    9 2
    11   12    4 ar
    12   13    7 1
    13   14   13 1
    14   15   14 2
    15   16   15 1
    16   17   16 1
    17   18   17 1
    18   19   15 1
    19   20   19 1
    20   21   20 1
    21   22   21 1
    22   23   22 2
    23   24   22 1
    24   25   24 1
    25   26   25 1
    26   27   21 1
    27   28   27 2
    28   29   27 1
    29   30   29 1
    30   31   30 1
    31   32   21 1
    32   33   32 1
    33   34   18 1
    34   35   34 1
    35   36   35 1
    36   37   36 1
    37   38   33 1
    38   39    5 1
    39   40    6 1
    40   41   12 1
    41   42   13 1
    42   43   16 1
    43   44   16 1
    44   45   17 1
    45   46   17 1
    46   47   18 1
    47   48   19 1
    48   49   20 1
    49   50   20 1
    50   51   25 1
    51   52   25 1
    52   53   26 1
    53   54   26 1
    54   55   26 1
    55   56   30 1
    56   57   30 1
    57   58   31 1
    58   59   31 1
    59   60   31 1
    60   61   32 1
    61   62   32 1
    62   63   33 1
    63   64   34 1
    64   65   35 1
    65   66   35 1
    66   67   36 1
    67   68   36 1
    68   69   37 1
    69   70   38 1
    70    8   12 ar
    71   18   19 1
    72   33   34 1
    73   37   38 2
@<TRIPOS>SUBSTRUCTURE
     1 RES1 1

@<TRIPOS>CRYSIN
  19.1540   14.5520   19.3500  90.0000  95.7300  90.0000  15 1

