# MOL2 file generated by ConQuest
# Please check atom types

@<TRIPOS>MOLECULE
QAYVIY
    30    31     1
SMALL
NO_CHARGES
****
Generated from CSD

@<TRIPOS>ATOM
      1 O1         0.9639   12.4090    7.0488 O.2       1 RES1    0.0000
      2 N1        -1.0285   11.6028    7.8453 N.am      1 RES1    0.0000
      3 O2        -1.4562   11.4746   11.8973 O.2       1 RES1    0.0000
      4 O3        -2.5532   11.8196   10.0594 O.2       1 RES1    0.0000
      5 N2        -0.9941   13.3902    6.4108 N.am      1 RES1    0.0000
      6 N3        -1.6374   11.2941   10.6936 N.pl3     1 RES1    0.0000
      7 C1        -0.2678   12.4621    7.0913 C.2       1 RES1    0.0000
      8 C2         0.4625    9.6944    8.0341 C.ar      1 RES1    0.0000
      9 H1         0.6560    9.7714    7.1069 H         1 RES1    0.0000
     10 C3        -0.4478   10.5794    8.6212 C.ar      1 RES1    0.0000
     11 C4         0.5902   15.2364    6.1433 C.ar      1 RES1    0.0000
     12 H2         0.8334   15.1635    7.0582 H         1 RES1    0.0000
     13 C5         1.0866    8.7079    8.7814 C.ar      1 RES1    0.0000
     14 H3         1.7124    8.1269    8.3644 H         1 RES1    0.0000
     15 C6        -0.3738   14.3859    5.6003 C.ar      1 RES1    0.0000
     16 C7        -0.7205   10.4070    9.9865 C.ar      1 RES1    0.0000
     17 C8        -0.1066    9.4070   10.7428 C.ar      1 RES1    0.0000
     18 H4        -0.3141    9.3088   11.6652 H         1 RES1    0.0000
     19 C9         0.8047    8.5609   10.1404 C.ar      1 RES1    0.0000
     20 H5         1.2360    7.8844   10.6485 H         1 RES1    0.0000
     21 C10       -0.7526   14.5175    4.2717 C.ar      1 RES1    0.0000
     22 H6        -1.4186   13.9449    3.9084 H         1 RES1    0.0000
     23 C11        1.1942   16.1971    5.3302 C.ar      1 RES1    0.0000
     24 H7         1.8618   16.7693    5.6898 H         1 RES1    0.0000
     25 C12       -0.1552   15.4887    3.4714 C.ar      1 RES1    0.0000
     26 H8        -0.4185   15.5812    2.5636 H         1 RES1    0.0000
     27 C13        0.8239   16.3204    3.9979 C.ar      1 RES1    0.0000
     28 H9         1.2402   16.9731    3.4468 H         1 RES1    0.0000
     29 H10       -1.8318   13.2826    6.3834 H         1 RES1    0.0000
     30 H11       -1.8421   11.7848    7.9340 H         1 RES1    0.0000
@<TRIPOS>BOND
     1    1    7 2
     2    2    7 1
     3    3    6 2
     4    4    6 2
     5    5    7 1
     6    6   16 1
     7    8    9 1
     8   10    2 1
     9   11   12 1
    10   13    8 ar
    11   14   13 1
    12   15    5 1
    13   16   10 ar
    14   17   16 ar
    15   18   17 1
    16   19   13 ar
    17   20   19 1
    18   21   15 ar
    19   22   21 1
    20   23   11 ar
    21   24   23 1
    22   25   21 ar
    23   26   25 1
    24   27   23 ar
    25   28   27 1
    26   29    5 1
    27   30    2 1
    28    8   10 ar
    29   11   15 ar
    30   17   19 ar
    31   25   27 ar
@<TRIPOS>SUBSTRUCTURE
     1 RES1 1

@<TRIPOS>CRYSIN
   4.6245   20.3783   12.6310  90.0000  99.0200  90.0000  14 1

