# MOL2 file generated by ConQuest
# Please check atom types

@<TRIPOS>MOLECULE
QAZCAW
    28    29     1
SMALL
NO_CHARGES
****
Generated from CSD

@<TRIPOS>ATOM
      1 O1         0.1083    8.5356    7.8188 O.2       1 RES1    0.0000
      2 O2         1.9213    8.2354    8.9171 O.2       1 RES1    0.0000
      3 N1         1.2621    8.1383    7.9047 N.pl3     1 RES1    0.0000
      4 C1         3.1882    6.8288    6.9910 C.3       1 RES1    0.0000
      5 H1         3.7470    7.4381    7.5176 H         1 RES1    0.0000
      6 C2         3.8872    6.5930    5.6408 C.3       1 RES1    0.0000
      7 H2         4.2428    7.4343    5.3143 H         1 RES1    0.0000
      8 H3         4.6315    5.9837    5.7681 H         1 RES1    0.0000
      9 C3         2.9477    6.0190    4.6121 C.3       1 RES1    0.0000
     10 H4         3.4343    5.8314    3.7945 H         1 RES1    0.0000
     11 H5         2.5749    5.1854    4.9403 H         1 RES1    0.0000
     12 C4         1.8368    6.9911    4.3273 C.3       1 RES1    0.0000
     13 H6         2.1679    7.6862    3.7371 H         1 RES1    0.0000
     14 H7         1.1201    6.5277    3.8673 H         1 RES1    0.0000
     15 C5         1.2914    7.6231    5.5686 C.2       1 RES1    0.0000
     16 H8         0.5049    8.1168    5.5118 H         1 RES1    0.0000
     17 C6         1.8833    7.5066    6.7362 C.2       1 RES1    0.0000
     18 C7         3.0413    5.5346    7.7767 C.ar      1 RES1    0.0000
     19 C8         1.9359    4.7204    7.6580 C.ar      1 RES1    0.0000
     20 H9         1.2315    4.9814    7.1100 H         1 RES1    0.0000
     21 C9         1.8564    3.5192    8.3421 C.ar      1 RES1    0.0000
     22 H10        1.1084    2.9755    8.2431 H         1 RES1    0.0000
     23 C10        2.8859    3.1338    9.1676 C.ar      1 RES1    0.0000
     24 H11        2.8326    2.3308    9.6340 H         1 RES1    0.0000
     25 C11        3.9851    3.9283    9.3029 C.ar      1 RES1    0.0000
     26 H12        4.6792    3.6680    9.8637 H         1 RES1    0.0000
     27 C12        4.0696    5.1203    8.6066 C.ar      1 RES1    0.0000
     28 H13        4.8273    5.6513    8.6969 H         1 RES1    0.0000
@<TRIPOS>BOND
     1    1    3 2
     2    2    3 2
     3    3   17 1
     4    4    5 1
     5    6    4 1
     6    7    6 1
     7    8    6 1
     8    9    6 1
     9   10    9 1
    10   11    9 1
    11   12    9 1
    12   13   12 1
    13   14   12 1
    14   15   12 1
    15   16   15 1
    16   17    4 1
    17   18    4 1
    18   19   18 ar
    19   20   19 1
    20   21   19 ar
    21   22   21 1
    22   23   21 ar
    23   24   23 1
    24   25   23 ar
    25   26   25 1
    26   27   18 ar
    27   28   27 1
    28   15   17 2
    29   25   27 ar
@<TRIPOS>SUBSTRUCTURE
     1 RES1 1

@<TRIPOS>CRYSIN
   6.1206   12.5920   14.0070  90.0000  90.0000  90.0000  19 1

