# MOL2 file generated by ConQuest
# Please check atom types

@<TRIPOS>MOLECULE
QAZYIC
    47    50     1
SMALL
USER_CHARGES
****
Generated from CSD

@<TRIPOS>ATOM
      1 O1         1.1106    4.1934    8.0860 O.2       1 RES1   -1.0000
      2 N1        -0.1698    4.2878    8.0503 N.pl3     1 RES1    1.0000
      3 N2        -1.0355    3.5053   11.4172 N.ar      1 RES1    0.0000
      4 C1         1.4157    2.3564   11.5715 C.ar      1 RES1    0.0000
      5 H1         2.2581    1.9665   11.6318 H         1 RES1    0.0000
      6 C2         0.0995    5.0774    5.7789 C.ar      1 RES1    0.0000
      7 C3        -0.7549    4.7558    6.9136 C.ar      1 RES1    0.0000
      8 C4         1.2307    5.8694    5.8814 C.ar      1 RES1    0.0000
      9 H2         1.4514    6.2616    6.6946 H         1 RES1    0.0000
     10 C5         2.0161    6.0731    4.7931 C.ar      1 RES1    0.0000
     11 H3         2.7669    6.6163    4.8735 H         1 RES1    0.0000
     12 C6        -0.9152    3.9209    9.1243 C.ar      1 RES1    0.0000
     13 C7        -0.6044    3.0384   12.5693 C.ar      1 RES1    0.0000
     14 C8        -0.2193    4.5552    4.5560 C.ar      1 RES1    0.0000
     15 H4        -0.9958    4.0531    4.4580 H         1 RES1    0.0000
     16 C9        -2.8827    4.5129    7.9363 C.ar      1 RES1    0.0000
     17 H5        -3.8087    4.5937    7.9008 H         1 RES1    0.0000
     18 C10       -1.5373    3.1239   13.7021 C.ar      1 RES1    0.0000
     19 C11       -2.1112    4.8698    6.8723 C.ar      1 RES1    0.0000
     20 H6        -2.5185    5.1970    6.1032 H         1 RES1    0.0000
     21 C12       -0.2697    3.4094   10.3284 C.ar      1 RES1    0.0000
     22 C13       -2.2738    4.0402    9.0422 C.ar      1 RES1    0.0000
     23 H7        -2.7933    3.7889    9.7705 H         1 RES1    0.0000
     24 C14        0.9697    2.8118   10.3803 C.ar      1 RES1    0.0000
     25 H8         1.4872    2.7236    9.6130 H         1 RES1    0.0000
     26 C15        0.6437    2.4655   12.6755 C.ar      1 RES1    0.0000
     27 H9         0.9521    2.1579   13.4981 H         1 RES1    0.0000
     28 C16        0.5945    4.7637    3.4746 C.ar      1 RES1    0.0000
     29 H10        0.3660    4.3959    2.6504 H         1 RES1    0.0000
     30 C17       -3.4217    3.1494   15.7631 C.ar      1 RES1    0.0000
     31 C18        1.7381    5.5069    3.5869 C.ar      1 RES1    0.0000
     32 C19       -1.2898    2.5214   14.9037 C.ar      1 RES1    0.0000
     33 H11       -0.4744    2.0971   15.0444 H         1 RES1    0.0000
     34 C20       -2.2228    2.5328   15.9022 C.ar      1 RES1    0.0000
     35 H12       -2.0290    2.1029   16.7030 H         1 RES1    0.0000
     36 C21       -2.7364    3.7638   13.5584 C.ar      1 RES1    0.0000
     37 H13       -2.9334    4.2021   12.7609 H         1 RES1    0.0000
     38 C22        2.6834    5.6795    2.4426 C.3       1 RES1    0.0000
     39 H14        2.6540    6.5898    2.1377 H         1 RES1    0.0000
     40 H15        2.4285    5.0944    1.7256 H         1 RES1    0.0000
     41 H16        3.5746    5.4663    2.7274 H         1 RES1    0.0000
     42 C23       -3.6400    3.7649   14.5686 C.ar      1 RES1    0.0000
     43 H17       -4.4479    4.2076   14.4396 H         1 RES1    0.0000
     44 C24       -4.4430    3.1238   16.8437 C.3       1 RES1    0.0000
     45 H18       -4.9998    2.3492   16.7398 H         1 RES1    0.0000
     46 H19       -4.9836    3.9158   16.7934 H         1 RES1    0.0000
     47 H20       -4.0045    3.0903   17.6981 H         1 RES1    0.0000
@<TRIPOS>BOND
     1    1    2 1
     2    2    7 ar
     3    3   13 ar
     4    4    5 1
     5    6    7 1
     6    7   19 ar
     7    8    6 ar
     8    9    8 1
     9   10    8 ar
    10   11   10 1
    11   12    2 ar
    12   13   18 1
    13   14    6 ar
    14   15   14 1
    15   16   17 1
    16   18   32 ar
    17   19   16 ar
    18   20   19 1
    19   21    3 ar
    20   22   12 ar
    21   23   22 1
    22   24    4 ar
    23   25   24 1
    24   26    4 ar
    25   27   26 1
    26   28   14 ar
    27   29   28 1
    28   30   34 ar
    29   31   10 ar
    30   32   33 1
    31   34   32 ar
    32   35   34 1
    33   36   18 ar
    34   37   36 1
    35   38   31 1
    36   39   38 1
    37   40   38 1
    38   41   38 1
    39   42   30 ar
    40   43   42 1
    41   44   30 1
    42   45   44 1
    43   46   44 1
    44   47   44 1
    45   12   21 1
    46   13   26 ar
    47   16   22 ar
    48   21   24 ar
    49   28   31 ar
    50   36   42 ar
@<TRIPOS>SUBSTRUCTURE
     1 RES1 1

@<TRIPOS>CRYSIN
   7.1130    7.5100   17.1720  98.7760  98.4440  93.9740   2 1

