# MOL2 file generated by ConQuest
# Please check atom types

@<TRIPOS>MOLECULE
QEBCUY
    31    31     1
SMALL
USER_CHARGES
****
Generated from CSD

@<TRIPOS>ATOM
      1 O1        -1.7680    8.4322   -1.2776 O.2       1 RES1    0.0000
      2 O2        -3.6682    7.5418   -1.8212 O.2       1 RES1    0.0000
      3 O3        -1.8995    2.4121    3.2966 O.2       1 RES1   -1.0000
      4 O4        -2.4671    1.1439    1.2438 O.3       1 RES1    0.0000
      5 O5         1.3328    2.1830    2.6011 O.2       1 RES1   -1.0000
      6 O6         2.2021    3.3983    4.5787 O.3       1 RES1    0.0000
      7 N1        -1.7955    5.6183    1.6577 N.3       1 RES1    0.0000
      8 N2        -2.9866    5.0179    1.3605 N.2       1 RES1    0.0000
      9 N3        -2.6745    7.6189   -1.1041 N.pl3     1 RES1    0.0000
     10 N4        -1.3389    2.6778    2.2046 N.pl3     1 RES1    1.0000
     11 N5        -1.5203    2.1162    1.0771 N.2       1 RES1    0.0000
     12 N6         0.7983    3.2551    2.9785 N.pl3     1 RES1    1.0000
     13 N7         1.1164    3.9755    3.9821 N.2       1 RES1    0.0000
     14 C1        -1.5061    6.6372    0.8427 C.2       1 RES1    0.0000
     15 H1        -0.7359    7.1936    0.8648 H         1 RES1    0.0000
     16 C2        -2.5565    6.7072   -0.0310 C.2       1 RES1    0.0000
     17 C3        -3.4538    5.6928    0.3235 C.2       1 RES1    0.0000
     18 H2        -4.2769    5.5157   -0.1164 H         1 RES1    0.0000
     19 C4        -0.9396    5.0577    2.6832 C.3       1 RES1    0.0000
     20 H3        -1.4672    4.8796    3.5013 H         1 RES1    0.0000
     21 H4        -0.2218    5.6995    2.9107 H         1 RES1    0.0000
     22 C5        -0.3301    3.7606    2.1666 C.3       1 RES1    0.0000
     23 H5        -0.0242    3.8929    1.2234 H         1 RES1    0.0000
     24 C6        -2.8242    0.6563   -0.0651 C.3       1 RES1    0.0000
     25 H6        -3.5287   -0.0198    0.0190 H         1 RES1    0.0000
     26 H7        -2.0370    0.2559   -0.4906 H         1 RES1    0.0000
     27 H8        -3.1490    1.4008   -0.6139 H         1 RES1    0.0000
     28 C7         2.5554    4.1690    5.7430 C.3       1 RES1    0.0000
     29 H9         3.3639    3.7940    6.1498 H         1 RES1    0.0000
     30 H10        1.8199    4.1389    6.3904 H         1 RES1    0.0000
     31 H11        2.7222    5.0987    5.4808 H         1 RES1    0.0000
@<TRIPOS>BOND
     1    1    9 2
     2    2    9 2
     3    3   10 1
     4    4   11 1
     5    5   12 1
     6    6   13 1
     7    7    8 1
     8    8   17 2
     9    9   16 1
    10   10   11 2
    11   12   13 2
    12   14    7 1
    13   15   14 1
    14   16   14 2
    15   17   16 1
    16   18   17 1
    17   19    7 1
    18   20   19 1
    19   21   19 1
    20   22   10 1
    21   23   22 1
    22   24    4 1
    23   25   24 1
    24   26   24 1
    25   27   24 1
    26   28    6 1
    27   29   28 1
    28   30   28 1
    29   31   28 1
    30   12   22 1
    31   19   22 1
@<TRIPOS>SUBSTRUCTURE
     1 RES1 1

@<TRIPOS>CRYSIN
   9.9434   14.1356    9.3125  90.0000 112.2080  90.0000  14 1

