# MOL2 file generated by ConQuest
# Please check atom types

@<TRIPOS>MOLECULE
QEBDEJ
    33    33     1
SMALL
USER_CHARGES
****
Generated from CSD

@<TRIPOS>ATOM
      1 O1         1.8583    5.3950    0.5489 O.2       1 RES1    0.0000
      2 O2         0.2339    6.5605    1.4493 O.2       1 RES1    0.0000
      3 O3         0.4198    7.6172    3.9725 O.2       1 RES1    0.0000
      4 O4         1.3378    9.5519    4.3526 O.2       1 RES1    0.0000
      5 O5         5.4295   11.2652    3.4144 O.2       1 RES1   -1.0000
      6 O6         3.3761   12.5019    2.6385 O.3       1 RES1    0.0000
      7 O7         7.0082   11.8402    0.3995 O.2       1 RES1   -1.0000
      8 O8         9.1202   10.7472    1.1615 O.3       1 RES1    0.0000
      9 N1         4.3196    8.2556    2.0499 N.3       1 RES1    0.0000
     10 N2         3.5203    8.7633    3.0241 N.2       1 RES1    0.0000
     11 N3         1.4232    6.3390    1.2252 N.pl3     1 RES1    0.0000
     12 N4         1.2967    8.4602    3.7908 N.pl3     1 RES1    0.0000
     13 N5         4.9670   11.1137    2.2427 N.pl3     1 RES1    1.0000
     14 N6         3.9262   11.6757    1.7113 N.2       1 RES1    0.0000
     15 N7         6.9762   10.7498    1.0434 N.pl3     1 RES1    1.0000
     16 N8         7.9762   10.0686    1.5028 N.2       1 RES1    0.0000
     17 C1         3.6888    7.3452    1.2805 C.2       1 RES1    0.0000
     18 H1         4.0526    6.8752    0.5397 H         1 RES1    0.0000
     19 C2         2.4213    7.2326    1.7796 C.2       1 RES1    0.0000
     20 C3         2.3628    8.1404    2.8470 C.2       1 RES1    0.0000
     21 C4         5.6801    8.7620    1.9189 C.3       1 RES1    0.0000
     22 H2         6.2072    8.1637    1.3331 H         1 RES1    0.0000
     23 H3         6.1161    8.7892    2.8083 H         1 RES1    0.0000
     24 C5         5.6371   10.1709    1.3193 C.3       1 RES1    0.0000
     25 H4         5.1206   10.1386    0.4640 H         1 RES1    0.0000
     26 C6         2.1726   13.0782    2.0545 C.3       1 RES1    0.0000
     27 H5         1.8294   13.7827    2.6431 H         1 RES1    0.0000
     28 H6         1.4936   12.3802    1.9494 H         1 RES1    0.0000
     29 H7         2.3865   13.4615    1.1781 H         1 RES1    0.0000
     30 C7        10.2622   10.0142    1.6837 C.3       1 RES1    0.0000
     31 H8        11.0810   10.5271    1.5213 H         1 RES1    0.0000
     32 H9        10.3249    9.1453    1.2362 H         1 RES1    0.0000
     33 H10       10.1486    9.8783    2.6477 H         1 RES1    0.0000
@<TRIPOS>BOND
     1    1   11 2
     2    2   11 2
     3    3   12 2
     4    4   12 2
     5    5   13 1
     6    6   14 1
     7    7   15 1
     8    8   16 1
     9    9   10 1
    10   10   20 2
    11   11   19 1
    12   12   20 1
    13   13   14 2
    14   15   16 2
    15   17    9 1
    16   18   17 1
    17   19   17 2
    18   20   19 1
    19   21    9 1
    20   22   21 1
    21   23   21 1
    22   24   13 1
    23   25   24 1
    24   26    6 1
    25   27   26 1
    26   28   26 1
    27   29   26 1
    28   30    8 1
    29   31   30 1
    30   32   30 1
    31   33   30 1
    32   15   24 1
    33   21   24 1
@<TRIPOS>SUBSTRUCTURE
     1 RES1 1

@<TRIPOS>CRYSIN
  11.3690   12.9500    9.3000  90.0000  97.2540  90.0000  14 1

