# MOL2 file generated by ConQuest
# Please check atom types

@<TRIPOS>MOLECULE
QEBRIB
    26    28     1
SMALL
NO_CHARGES
****
Generated from CSD

@<TRIPOS>ATOM
      1 C1         4.4411    4.3285    6.8003 C.ar      1 RES1    0.0000
      2 C2         3.3120    3.8164    7.4363 C.ar      1 RES1    0.0000
      3 H1         2.6900    4.3971    7.8106 H         1 RES1    0.0000
      4 C3         3.1124    2.4645    7.5129 C.ar      1 RES1    0.0000
      5 H2         2.3506    2.1411    7.9379 H         1 RES1    0.0000
      6 C4         4.0222    1.5637    6.9713 C.ar      1 RES1    0.0000
      7 C5         5.1443    2.0818    6.3478 C.ar      1 RES1    0.0000
      8 H3         5.7695    1.4980    5.9836 H         1 RES1    0.0000
      9 C6         5.3607    3.4423    6.2533 C.ar      1 RES1    0.0000
     10 H4         6.1205    3.7651    5.8245 H         1 RES1    0.0000
     11 C7         3.7797    0.0787    7.0296 C.3       1 RES1    0.0000
     12 H5         3.7215   -0.2006    7.9463 H         1 RES1    0.0000
     13 H6         4.5054   -0.3812    6.6015 H         1 RES1    0.0000
     14 H7         2.9582   -0.1293    6.5781 H         1 RES1    0.0000
     15 C8         4.6111    5.7728    6.7268 C.2       1 RES1    0.0000
     16 C9         5.3803    7.7925    6.2840 C.2       1 RES1    0.0000
     17 C10        6.8151    6.4184    5.3706 C.2       1 RES1    0.0000
     18 H8         7.2787    5.6700    5.0709 H         1 RES1    0.0000
     19 C11        7.1197    7.7298    5.1996 C.2       1 RES1    0.0000
     20 N1         3.7817    6.6106    7.2737 N.2       1 RES1    0.0000
     21 N2         5.6422    6.4747    6.1015 N.pl3     1 RES1    0.0000
     22 N3         6.2334    8.6210    5.7605 N.2       1 RES1    0.0000
     23 N4         8.2801    8.2006    4.4872 N.pl3     1 RES1    0.0000
     24 O1         4.2553    7.9375    6.9996 O.3       1 RES1    0.0000
     25 O2         8.4067    9.4027    4.3138 O.2       1 RES1    0.0000
     26 O3         9.0756    7.3474    4.0982 O.2       1 RES1    0.0000
@<TRIPOS>BOND
     1    1    2 ar
     2    2    3 1
     3    4    2 ar
     4    5    4 1
     5    6    4 ar
     6    7    6 ar
     7    8    7 1
     8    9    1 ar
     9   10    9 1
    10   11    6 1
    11   12   11 1
    12   13   11 1
    13   14   11 1
    14   15    1 1
    15   16   21 1
    16   17   18 1
    17   19   17 2
    18   20   15 2
    19   21   15 1
    20   22   16 2
    21   23   19 1
    22   24   16 1
    23   25   23 2
    24   26   23 2
    25    7    9 ar
    26   17   21 1
    27   19   22 1
    28   20   24 1
@<TRIPOS>SUBSTRUCTURE
     1 RES1 1

@<TRIPOS>CRYSIN
   5.8616   11.1460   16.8110  90.0000  95.0170  90.0000  14 1

