# MOL2 file generated by ConQuest
# Please check atom types

@<TRIPOS>MOLECULE
QECKIU
    29    30     1
SMALL
USER_CHARGES
****
Generated from CSD

@<TRIPOS>ATOM
      1 O1         1.8497   -1.5027    0.6662 O.2       1 RES1    0.0000
      2 O2         2.6993    0.2874   -0.1610 O.2       1 RES1    0.0000
      3 O3         6.9628    3.3902    5.2841 O.2       1 RES1   -1.0000
      4 O4         8.9620    7.5101    4.1040 O.3       1 RES1    0.0000
      5 N1         2.6092   -0.5448    0.7236 N.pl3     1 RES1    0.0000
      6 N2         5.6722    2.1149    3.4617 N.pl3     1 RES1    1.0000
      7 C1         4.9385    0.9444    3.1852 C.ar      1 RES1    0.0000
      8 C2         4.1611    0.7897    2.0521 C.ar      1 RES1    0.0000
      9 C3         3.4543   -0.3878    1.9207 C.ar      1 RES1    0.0000
     10 C4         3.4719   -1.3981    2.8462 C.ar      1 RES1    0.0000
     11 C5         4.2690   -1.2317    3.9534 C.ar      1 RES1    0.0000
     12 C6         5.0005   -0.0832    4.1154 C.ar      1 RES1    0.0000
     13 C7         5.8769    3.1597    2.6913 C.2       1 RES1    0.0000
     14 C8         6.6231    4.2642    3.0972 C.ar      1 RES1    0.0000
     15 C9         7.1855    4.3340    4.4239 C.ar      1 RES1    0.0000
     16 C10        7.9667    5.4495    4.7394 C.ar      1 RES1    0.0000
     17 C11        8.1935    6.4441    3.8284 C.ar      1 RES1    0.0000
     18 C12        7.6238    6.3947    2.5306 C.ar      1 RES1    0.0000
     19 C13        6.8598    5.3318    2.1966 C.ar      1 RES1    0.0000
     20 H1         4.1162    1.4545    1.4032 H         1 RES1    0.0000
     21 H2         6.0355    2.1506    4.2404 H         1 RES1    0.0000
     22 H3         2.9632   -2.1675    2.7296 H         1 RES1    0.0000
     23 H4         9.2469    7.4507    4.8706 H         1 RES1    0.0000
     24 H5         4.3125   -1.9015    4.5969 H         1 RES1    0.0000
     25 H6         5.5478    0.0087    4.8617 H         1 RES1    0.0000
     26 H7         5.5075    3.1620    1.8377 H         1 RES1    0.0000
     27 H8         8.3407    5.5167    5.5883 H         1 RES1    0.0000
     28 H9         7.7734    7.0809    1.9209 H         1 RES1    0.0000
     29 H10        6.4775    5.3002    1.3493 H         1 RES1    0.0000
@<TRIPOS>BOND
     1    1    5 2
     2    2    5 2
     3    3   15 1
     4    4   17 1
     5    5    9 1
     6    6    7 1
     7    7    8 ar
     8    8    9 ar
     9    9   10 ar
    10   10   11 ar
    11   11   12 ar
    12   12    7 ar
    13   13    6 2
    14   14   13 1
    15   15   14 ar
    16   16   15 ar
    17   17   16 ar
    18   18   17 ar
    19   19   14 ar
    20   20    8 1
    21   21    6 1
    22   22   10 1
    23   23    4 1
    24   24   11 1
    25   25   12 1
    26   26   13 1
    27   27   16 1
    28   28   18 1
    29   29   19 1
    30   18   19 ar
@<TRIPOS>SUBSTRUCTURE
     1 RES1 1

@<TRIPOS>CRYSIN
  12.8518    7.8501   24.1316  90.0000 101.5930  90.0000  15 1

