# MOL2 file generated by ConQuest
# Please check atom types

@<TRIPOS>MOLECULE
QECLES
    47    48     2
SMALL
NO_CHARGES
****
Generated from CSD

@<TRIPOS>ATOM
      1 C1         4.3000    7.5308    4.5997 C.3       1 RES1    0.0000
      2 H1         3.6988    7.0138    5.1755 H         1 RES1    0.0000
      3 C2         5.5625    6.8259    4.2269 C.ar      1 RES1    0.0000
      4 C3         6.6318    6.6081    5.0992 C.ar      1 RES1    0.0000
      5 N1         6.5555    7.0515    6.4963 N.pl3     1 RES1    0.0000
      6 O1         5.4698    7.1295    7.0338 O.2       1 RES1    0.0000
      7 O2         7.5991    7.3244    7.0664 O.2       1 RES1    0.0000
      8 C4         7.7887    5.9576    4.7154 C.ar      1 RES1    0.0000
      9 H2         8.4851    5.8406    5.3218 H         1 RES1    0.0000
     10 C5         7.9005    5.4860    3.4367 C.ar      1 RES1    0.0000
     11 H3         8.6722    5.0409    3.1694 H         1 RES1    0.0000
     12 C6         6.8715    5.6709    2.5504 C.ar      1 RES1    0.0000
     13 H4         6.9434    5.3477    1.6825 H         1 RES1    0.0000
     14 C7         5.7272    6.3384    2.9445 C.ar      1 RES1    0.0000
     15 H5         5.0442    6.4630    2.3254 H         1 RES1    0.0000
     16 C8         4.2418    9.0372    4.8103 C.3       1 RES1    0.0000
     17 H6         3.5997    9.3211    5.4934 H         1 RES1    0.0000
     18 C9         5.4473    9.9004    4.7166 C.ar      1 RES1    0.0000
     19 C10        5.9944   10.5477    5.8262 C.ar      1 RES1    0.0000
     20 N2         5.3585   10.4631    7.1427 N.pl3     1 RES1    0.0000
     21 O3         4.1629   10.6363    7.2300 O.2       1 RES1    0.0000
     22 O4         6.0711   10.2704    8.1031 O.2       1 RES1    0.0000
     23 C11        7.1498   11.3015    5.7811 C.ar      1 RES1    0.0000
     24 H7         7.4916   11.6913    6.5527 H         1 RES1    0.0000
     25 C12        7.7840   11.4637    4.5780 C.ar      1 RES1    0.0000
     26 H8         8.5556   11.9818    4.5227 H         1 RES1    0.0000
     27 C13        7.2794   10.8639    3.4610 C.ar      1 RES1    0.0000
     28 H9         7.7100   10.9746    2.6447 H         1 RES1    0.0000
     29 C14        6.1401   10.0963    3.5293 C.ar      1 RES1    0.0000
     30 H10        5.8227    9.6946    2.7530 H         1 RES1    0.0000
     31 C15        3.6046    8.4027    3.5874 C.3       1 RES1    0.0000
     32 H11        4.0933    8.5352    2.7488 H         1 RES1    0.0000
     33 C16        2.1225    8.4196    3.4612 C.ar      1 RES1    0.0000
     34 C17        1.4553    8.6429    2.2659 C.ar      1 RES1    0.0000
     35 N3         2.1955    8.8948    1.0216 N.pl3     1 RES1    0.0000
     36 O5         1.8465    8.2963    0.0132 O.2       1 RES1    0.0000
     37 O6         3.1057    9.7323    1.0224 O.2       1 RES1    0.0000
     38 C18        0.0789    8.6534    2.1519 C.ar      1 RES1    0.0000
     39 H12       -0.3234    8.8031    1.3266 H         1 RES1    0.0000
     40 C19       -0.6868    8.4422    3.2665 C.ar      1 RES1    0.0000
     41 H13       -1.6149    8.4485    3.2074 H         1 RES1    0.0000
     42 C20       -0.0662    8.2184    4.4748 C.ar      1 RES1    0.0000
     43 H14       -0.5806    8.0788    5.2374 H         1 RES1    0.0000
     44 C21        1.3051    8.1998    4.5689 C.ar      1 RES1    0.0000
     45 H15        1.6997    8.0360    5.3949 H         1 RES1    0.0000
     46 O7         2.9780    8.0260    0.7343 Du        2 SUP2    0.0000
     47 O8         1.6844    9.7071    0.3179 Du        2 SUP2    0.0000
@<TRIPOS>BOND
     1    1    2 1
     2    3    1 1
     3    4    3 ar
     4    5    4 1
     5    6    5 2
     6    7    5 2
     7    8    4 ar
     8    9    8 1
     9   10    8 ar
    10   11   10 1
    11   12   10 ar
    12   13   12 1
    13   14    3 ar
    14   15   14 1
    15   16    1 1
    16   17   16 1
    17   18   16 1
    18   19   18 ar
    19   20   19 1
    20   21   20 2
    21   22   20 2
    22   23   19 ar
    23   24   23 1
    24   25   23 ar
    25   26   25 1
    26   27   25 ar
    27   28   27 1
    28   29   18 ar
    29   30   29 1
    30   31    1 1
    31   32   31 1
    32   33   31 1
    33   34   33 ar
    34   35   34 1
    35   36   35 2
    36   37   35 2
    37   38   34 ar
    38   39   38 1
    39   40   38 ar
    40   41   40 1
    41   42   40 ar
    42   43   42 1
    43   44   33 ar
    44   45   44 1
    45   12   14 ar
    46   16   31 1
    47   27   29 ar
    48   42   44 ar
@<TRIPOS>SUBSTRUCTURE
     1 RES1 1
     2 SUP2 46

@<TRIPOS>CRYSIN
  10.6350   12.5740   14.4080  90.0000 102.4800  90.0000  14 1

