# MOL2 file generated by ConQuest
# Please check atom types

@<TRIPOS>MOLECULE
QECPAS
    19    20     1
SMALL
NO_CHARGES
****
Generated from CSD

@<TRIPOS>ATOM
      1 O1        -1.2165    3.2764    8.0790 O.3       1 RES1    0.0000
      2 H1        -1.6229    3.9350    8.3791 H         1 RES1    0.0000
      3 N1         3.2867    4.4639    4.9602 N.2       1 RES1    0.0000
      4 N2         2.6237    2.4752    3.8939 N.pl3     1 RES1    0.0000
      5 N3         1.5979    2.1737    4.7024 N.2       1 RES1    0.0000
      6 N4         4.3218    3.4812    3.0212 N.2       1 RES1    0.0000
      7 N5         2.0340    5.1511    6.7246 N.pl3     1 RES1    0.0000
      8 H2         2.5652    5.8353    6.8121 H         1 RES1    0.0000
      9 H3         1.3621    5.0496    7.2677 H         1 RES1    0.0000
     10 N6         2.9992    1.7194    2.8270 N.2       1 RES1    0.0000
     11 N7         4.0102    2.3511    2.3212 N.2       1 RES1    0.0000
     12 N8        -0.1292    3.7105    7.3116 N.2       1 RES1    0.0000
     13 N9        -0.3135    1.5385    6.4567 N.pl3     1 RES1    0.0000
     14 H4        -0.9811    1.3361    6.9757 H         1 RES1    0.0000
     15 H5        -0.0052    0.9499    5.8949 H         1 RES1    0.0000
     16 C1         2.2473    4.2717    5.7708 C.2       1 RES1    0.0000
     17 C2         1.3831    3.0711    5.6259 C.2       1 RES1    0.0000
     18 C3         3.4280    3.5505    3.9971 C.2       1 RES1    0.0000
     19 C4         0.2447    2.7660    6.5221 C.2       1 RES1    0.0000
@<TRIPOS>BOND
     1    1    2 1
     2    3   16 2
     3    4    5 1
     4    5   17 2
     5    6   11 1
     6    7    8 1
     7    9    7 1
     8   10    4 1
     9   11   10 2
    10   12    1 1
    11   13   14 1
    12   15   13 1
    13   16    7 1
    14   17   16 1
    15   18    3 1
    16   19   12 2
    17    4   18 1
    18    6   18 2
    19   13   19 1
    20   17   19 1
@<TRIPOS>SUBSTRUCTURE
     1 RES1 1

@<TRIPOS>CRYSIN
  10.6530    5.9702   12.2230  90.0000 105.5890  90.0000 231 1

