# MOL2 file generated by ConQuest
# Please check atom types

@<TRIPOS>MOLECULE
QECZAZ
    45    48     1
SMALL
NO_CHARGES
****
Generated from CSD

@<TRIPOS>ATOM
      1 C1         4.8442   -1.0150    4.1046 C.ar      1 RES1    0.0000
      2 N1         5.6775   -1.9306    4.9051 N.pl3     1 RES1    0.0000
      3 O1         5.8567   -1.6610    6.0818 O.2       1 RES1    0.0000
      4 O2         6.1206   -2.9239    4.3607 O.2       1 RES1    0.0000
      5 C2         4.3110    0.0960    4.7175 C.ar      1 RES1    0.0000
      6 H1         4.5146    0.2593    5.6409 H         1 RES1    0.0000
      7 C3         3.4968    0.9289    3.9793 C.ar      1 RES1    0.0000
      8 H2         3.1210    1.7130    4.3732 H         1 RES1    0.0000
      9 C4         3.2397    0.6650    2.6401 C.ar      1 RES1    0.0000
     10 C5         3.8255   -0.4439    2.0433 C.ar      1 RES1    0.0000
     11 H3         3.6603   -0.6429    1.1403 H         1 RES1    0.0000
     12 C6         4.6182   -1.3066    2.7781 C.ar      1 RES1    0.0000
     13 H4         5.0160   -2.0983    2.4069 H         1 RES1    0.0000
     14 C7         2.4547    1.6234    1.7756 C.2       1 RES1    0.0000
     15 O3         2.9825    1.9942    0.7295 O.2       1 RES1    0.0000
     16 N2         1.2479    2.0376    2.2332 N.am      1 RES1    0.0000
     17 C8         0.5331    1.2054    3.2191 C.3       1 RES1    0.0000
     18 H5         0.8559    0.3326    3.1589 H         1 RES1    0.0000
     19 H6         0.6555    1.5736    4.1513 H         1 RES1    0.0000
     20 H7        -0.4468    1.1860    3.0521 H         1 RES1    0.0000
     21 C9         0.5404    3.2719    1.7124 C.3       1 RES1    0.0000
     22 C10       -0.3764    2.9476    0.5424 C.3       1 RES1    0.0000
     23 H8        -0.8824    3.6966    0.3185 H         1 RES1    0.0000
     24 C11        0.0410    2.1227   -0.6298 C.3       1 RES1    0.0000
     25 H9        -0.2168    2.4004   -1.5122 H         1 RES1    0.0000
     26 H10        0.9509    1.6960   -0.5722 H         1 RES1    0.0000
     27 C12       -1.0164    1.6221    0.2876 C.3       1 RES1    0.0000
     28 H11       -1.9759    1.6303    0.0041 H         1 RES1    0.0000
     29 H12       -0.7490    0.9259    0.7910 H         1 RES1    0.0000
     30 C13        1.5801    4.2905    1.2384 C.3       1 RES1    0.0000
     31 H13        1.9425    4.0750    0.3750 H         1 RES1    0.0000
     32 C14        1.4963    5.7675    1.5128 C.3       1 RES1    0.0000
     33 H14        1.7502    6.3568    0.7849 H         1 RES1    0.0000
     34 H15        0.8062    6.0862    2.0608 H         1 RES1    0.0000
     35 C15        2.5520    4.9406    2.1658 C.3       1 RES1    0.0000
     36 H16        3.4851    5.0301    1.8923 H         1 RES1    0.0000
     37 H17        2.4731    4.7186    3.1261 H         1 RES1    0.0000
     38 C16       -0.2553    3.8343    2.8915 C.3       1 RES1    0.0000
     39 H18        0.2769    3.9493    3.6798 H         1 RES1    0.0000
     40 C17       -1.3501    4.8518    2.7296 C.3       1 RES1    0.0000
     41 H19       -1.3821    5.5491    3.3634 H         1 RES1    0.0000
     42 H20       -1.6149    5.0944    1.7988 H         1 RES1    0.0000
     43 C18       -1.6836    3.4698    3.1815 C.3       1 RES1    0.0000
     44 H21       -1.9189    3.3464    4.1051 H         1 RES1    0.0000
     45 H22       -2.0955    2.8829    2.5282 H         1 RES1    0.0000
@<TRIPOS>BOND
     1    1    2 1
     2    2    3 2
     3    4    2 2
     4    5    1 ar
     5    6    5 1
     6    7    5 ar
     7    8    7 1
     8    9    7 ar
     9   10    9 ar
    10   11   10 1
    11   12    1 ar
    12   13   12 1
    13   14    9 1
    14   15   14 2
    15   16   14 1
    16   17   16 1
    17   18   17 1
    18   19   17 1
    19   20   17 1
    20   21   16 1
    21   22   21 1
    22   23   22 1
    23   24   22 1
    24   25   24 1
    25   26   24 1
    26   27   22 1
    27   28   27 1
    28   29   27 1
    29   30   21 1
    30   31   30 1
    31   32   30 1
    32   33   32 1
    33   34   32 1
    34   35   30 1
    35   36   35 1
    36   37   35 1
    37   38   21 1
    38   39   38 1
    39   40   38 1
    40   41   40 1
    41   42   40 1
    42   43   38 1
    43   44   43 1
    44   45   43 1
    45   10   12 ar
    46   24   27 1
    47   32   35 1
    48   40   43 1
@<TRIPOS>SUBSTRUCTURE
     1 RES1 1

@<TRIPOS>CRYSIN
   7.6520   10.3350   10.9250 109.1600  92.0400  99.3200   2 1

