# MOL2 file generated by ConQuest
# Please check atom types

@<TRIPOS>MOLECULE
QEDFUD
    24    25     1
SMALL
NO_CHARGES
****
Generated from CSD

@<TRIPOS>ATOM
      1 C1        11.6108    3.4912    6.5159 C.2       1 RES1    0.0000
      2 C2        11.3771    3.5718    7.8778 C.2       1 RES1    0.0000
      3 H1        11.8522    4.0715    8.5319 H         1 RES1    0.0000
      4 C3        10.2860    2.7475    8.0487 C.2       1 RES1    0.0000
      5 H2         9.8543    2.5503    8.8718 H         1 RES1    0.0000
      6 C4         8.7725    1.4512    6.5068 C.3       1 RES1    0.0000
      7 H3         8.5181    0.9112    7.2969 H         1 RES1    0.0000
      8 H4         9.0044    0.8285    5.7729 H         1 RES1    0.0000
      9 C5         7.5984    2.3072    6.0862 C.ar      1 RES1    0.0000
     10 C6         6.6785    2.7429    7.0367 C.ar      1 RES1    0.0000
     11 H5         6.7866    2.5011    7.9500 H         1 RES1    0.0000
     12 C7         5.5999    3.5327    6.6501 C.ar      1 RES1    0.0000
     13 H6         4.9684    3.8220    7.2990 H         1 RES1    0.0000
     14 C8         5.4415    3.8971    5.3311 C.ar      1 RES1    0.0000
     15 H7         4.7083    4.4422    5.0720 H         1 RES1    0.0000
     16 C9         6.3527    3.4683    4.3849 C.ar      1 RES1    0.0000
     17 H8         6.2453    3.7185    3.4748 H         1 RES1    0.0000
     18 C10        7.4276    2.6686    4.7651 C.ar      1 RES1    0.0000
     19 H9         8.0466    2.3696    4.1109 H         1 RES1    0.0000
     20 N1        10.7513    2.7200    5.8546 N.2       1 RES1    0.0000
     21 N2         9.9460    2.2741    6.8360 N.pl3     1 RES1    0.0000
     22 N3        12.6655    4.1550    5.7928 N.pl3     1 RES1    0.0000
     23 O1        13.3598    4.9457    6.4294 O.2       1 RES1    0.0000
     24 O2        12.8095    3.9154    4.5988 O.2       1 RES1    0.0000
@<TRIPOS>BOND
     1    1    2 1
     2    2    3 1
     3    4    2 2
     4    5    4 1
     5    6    7 1
     6    8    6 1
     7    9    6 1
     8   10    9 ar
     9   11   10 1
    10   12   10 ar
    11   13   12 1
    12   14   12 ar
    13   15   14 1
    14   16   14 ar
    15   17   16 1
    16   18    9 ar
    17   19   18 1
    18   20    1 2
    19   21    4 1
    20   22    1 1
    21   23   22 2
    22   24   22 2
    23    6   21 1
    24   16   18 ar
    25   20   21 1
@<TRIPOS>SUBSTRUCTURE
     1 RES1 1

@<TRIPOS>CRYSIN
  21.1420    4.2420   10.6198  90.0000  90.0000  90.0000  33 1

