# MOL2 file generated by ConQuest
# Please check atom types

@<TRIPOS>MOLECULE
QEDGUE
    20    20     1
SMALL
NO_CHARGES
****
Generated from CSD

@<TRIPOS>ATOM
      1 C1        -3.2885   -3.3331   -4.4915 C.2       1 RES1    0.0000
      2 C2        -2.1782   -3.3331   -5.3355 C.2       1 RES1    0.0000
      3 H1        -2.1550   -3.3331   -6.2854 H         1 RES1    0.0000
      4 C3        -1.1249   -3.3331   -4.4490 C.2       1 RES1    0.0000
      5 H2        -0.2011   -3.3331   -4.6710 H         1 RES1    0.0000
      6 C4        -0.9282   -3.3331   -1.9070 C.3       1 RES1    0.0000
      7 H3         0.0535   -3.3331   -2.0973 H         1 RES1    0.0000
      8 C5        -1.2628   -2.0705   -1.1337 C.3       1 RES1    0.0000
      9 H4        -0.7698   -2.0665   -0.2861 H         1 RES1    0.0000
     10 H5        -2.2250   -2.0445   -0.9521 H         1 RES1    0.0000
     11 H6        -1.0082   -1.2866   -1.6627 H         1 RES1    0.0000
     12 N1        -2.9920   -3.3331   -3.2007 N.2       1 RES1    0.0000
     13 N2        -1.6519   -3.3331   -3.2007 N.pl3     1 RES1    0.0000
     14 N3        -4.6751   -3.3331   -4.8915 N.pl3     1 RES1    0.0000
     15 O1        -4.9175   -3.3331   -6.0959 O.2       1 RES1    0.0000
     16 O2        -5.5391   -3.3331   -4.0151 O.2       1 RES1    0.0000
     17 C5A       -1.2628   -4.5957   -1.1337 C.3       1 RES1    0.0000
     18 H4A       -0.7698   -4.5997   -0.2861 H         1 RES1    0.0000
     19 H5A       -2.2250   -4.6217   -0.9521 H         1 RES1    0.0000
     20 H6A       -1.0082   -5.3796   -1.6627 H         1 RES1    0.0000
@<TRIPOS>BOND
     1    1    2 1
     2    2    3 1
     3    4    2 2
     4    5    4 1
     5    6    7 1
     6    8    6 1
     7    9    8 1
     8   10    8 1
     9   11    8 1
    10   12    1 2
    11   13    4 1
    12   14    1 1
    13   15   14 2
    14   16   14 2
    15   17    6 1
    16   18   17 1
    17   19   17 1
    18   20   17 1
    19    6   13 1
    20   12   13 1
@<TRIPOS>SUBSTRUCTURE
     1 RES1 1

@<TRIPOS>CRYSIN
   7.6930    6.6662    7.3655  90.0000 101.9002  90.0000   8 1

