# MOL2 file generated by ConQuest
# Please check atom types

@<TRIPOS>MOLECULE
QEDHAL
    27    28     1
SMALL
NO_CHARGES
****
Generated from CSD

@<TRIPOS>ATOM
      1 C1         4.4457    2.0582    9.4577 C.2       1 RES1    0.0000
      2 C2         5.7188    2.6043    9.3754 C.2       1 RES1    0.0000
      3 H1         6.5056    2.3508    9.8437 H         1 RES1    0.0000
      4 C3         5.5549    3.6019    8.4475 C.2       1 RES1    0.0000
      5 H2         6.2292    4.1937    8.1360 H         1 RES1    0.0000
      6 C4         3.6280    4.5442    7.1392 C.3       1 RES1    0.0000
      7 H3         4.2952    4.8368    6.4694 H         1 RES1    0.0000
      8 H4         3.3415    5.3428    7.6495 H         1 RES1    0.0000
      9 C5         2.4259    3.9549    6.4205 C.3       1 RES1    0.0000
     10 H5         2.7005    3.1501    5.9145 H         1 RES1    0.0000
     11 H6         1.7401    3.6849    7.0809 H         1 RES1    0.0000
     12 C6         1.8461    4.9818    5.4731 C.ar      1 RES1    0.0000
     13 C7         0.7535    5.7596    5.8439 C.ar      1 RES1    0.0000
     14 H7         0.3458    5.6246    6.6902 H         1 RES1    0.0000
     15 C8         0.2541    6.7317    4.9867 C.ar      1 RES1    0.0000
     16 H8        -0.4934    7.2557    5.2501 H         1 RES1    0.0000
     17 C9         0.8427    6.9394    3.7489 C.ar      1 RES1    0.0000
     18 H9         0.5000    7.6035    3.1634 H         1 RES1    0.0000
     19 C10        1.9337    6.1740    3.3691 C.ar      1 RES1    0.0000
     20 H10        2.3426    6.3174    2.5225 H         1 RES1    0.0000
     21 C11        2.4307    5.1990    4.2222 C.ar      1 RES1    0.0000
     22 H11        3.1752    4.6739    3.9527 H         1 RES1    0.0000
     23 N1         3.5407    2.6409    8.6728 N.2       1 RES1    0.0000
     24 N2         4.2582    3.5886    8.0581 N.pl3     1 RES1    0.0000
     25 N3         4.0426    0.9432   10.2769 N.pl3     1 RES1    0.0000
     26 O1         4.8891    0.4856   11.0466 O.2       1 RES1    0.0000
     27 O2         2.9018    0.5058   10.1790 O.2       1 RES1    0.0000
@<TRIPOS>BOND
     1    1    2 1
     2    2    3 1
     3    4    2 2
     4    5    4 1
     5    6    7 1
     6    8    6 1
     7    9    6 1
     8   10    9 1
     9   11    9 1
    10   12    9 1
    11   13   12 ar
    12   14   13 1
    13   15   13 ar
    14   16   15 1
    15   17   15 ar
    16   18   17 1
    17   19   17 ar
    18   20   19 1
    19   21   12 ar
    20   22   21 1
    21   23    1 2
    22   24    4 1
    23   25    1 1
    24   26   25 2
    25   27   25 2
    26    6   24 1
    27   19   21 ar
    28   23   24 1
@<TRIPOS>SUBSTRUCTURE
     1 RES1 1

@<TRIPOS>CRYSIN
  11.0134    9.5835   19.5390  90.0000  90.0000  90.0000  61 1

