# MOL2 file generated by ConQuest
# Please check atom types

@<TRIPOS>MOLECULE
QEDJOB
    22    23     1
SMALL
NO_CHARGES
****
Generated from CSD

@<TRIPOS>ATOM
      1 C1         5.9804   15.2828    5.3396 C.2       1 RES1    0.0000
      2 C2         6.4506   14.8943    6.6010 C.2       1 RES1    0.0000
      3 H1         6.6968   15.4493    7.3328 H         1 RES1    0.0000
      4 C3         6.4718   13.5440    6.5314 C.2       1 RES1    0.0000
      5 H2         6.7359   12.9458    7.2215 H         1 RES1    0.0000
      6 C4         5.8630   11.8901    4.7715 C.ar      1 RES1    0.0000
      7 C5         6.2432   11.5245    3.4839 C.ar      1 RES1    0.0000
      8 C6         5.6299    9.3660    3.7614 C.ar      1 RES1    0.0000
      9 H3         5.5652    8.4799    3.4249 H         1 RES1    0.0000
     10 C7         5.2097    9.6192    5.0572 C.ar      1 RES1    0.0000
     11 H4         4.8579    8.9163    5.5917 H         1 RES1    0.0000
     12 C8         5.3065   10.9031    5.5672 C.ar      1 RES1    0.0000
     13 H5         4.9975   11.1009    6.4439 H         1 RES1    0.0000
     14 N1         5.7243   14.2768    4.5235 N.2       1 RES1    0.0000
     15 N2         6.0376   13.2009    5.2700 N.pl3     1 RES1    0.0000
     16 N3         6.1254   10.3253    2.9616 N.ar      1 RES1    0.0000
     17 N4         5.7368   16.6349    4.9180 N.pl3     1 RES1    0.0000
     18 N5         6.8800   12.5175    2.5916 N.pl3     1 RES1    0.0000
     19 O1         5.3357   16.8458    3.7802 O.2       1 RES1    0.0000
     20 O2         5.9562   17.5197    5.7473 O.2       1 RES1    0.0000
     21 O3         6.2959   12.8039    1.5496 O.2       1 RES1    0.0000
     22 O4         7.9565   12.9573    2.9420 O.2       1 RES1    0.0000
@<TRIPOS>BOND
     1    1    2 1
     2    2    3 1
     3    4    2 2
     4    5    4 1
     5    6    7 ar
     6    7   16 ar
     7    8    9 1
     8   10    8 ar
     9   11   10 1
    10   12    6 ar
    11   13   12 1
    12   14    1 2
    13   15    4 1
    14   16    8 ar
    15   17    1 1
    16   18    7 1
    17   19   17 2
    18   20   17 2
    19   21   18 2
    20   22   18 2
    21    6   15 1
    22   10   12 ar
    23   14   15 1
@<TRIPOS>SUBSTRUCTURE
     1 RES1 1

@<TRIPOS>CRYSIN
  18.6126   26.1321    8.1858  90.0000  90.0000  90.0000  43 1

