# MOL2 file generated by ConQuest
# Please check atom types

@<TRIPOS>MOLECULE
QEDJUH
    21    22     1
SMALL
NO_CHARGES
****
Generated from CSD

@<TRIPOS>ATOM
      1 C1         3.8380    6.7154    5.3750 C.2       1 RES1    0.0000
      2 C2         3.9872    5.7169    4.4083 C.2       1 RES1    0.0000
      3 H1         4.4226    5.7711    3.5660 H         1 RES1    0.0000
      4 C3         3.3569    4.6478    4.9695 C.2       1 RES1    0.0000
      5 H2         3.2556    3.7861    4.5825 H         1 RES1    0.0000
      6 C4         2.2218    4.2465    7.1421 C.ar      1 RES1    0.0000
      7 C5         1.9022    4.7423    8.3924 C.ar      1 RES1    0.0000
      8 H3         2.1109    5.6355    8.6398 H         1 RES1    0.0000
      9 C6         1.2656    3.8794    9.2671 C.ar      1 RES1    0.0000
     10 H4         1.0176    4.1702   10.1369 H         1 RES1    0.0000
     11 C7         0.9949    2.5787    8.8510 C.ar      1 RES1    0.0000
     12 C8         1.3504    2.1873    7.5652 C.ar      1 RES1    0.0000
     13 H5         1.1509    1.3028    7.2838 H         1 RES1    0.0000
     14 C9         0.3590    1.6418    9.7366 C.1       1 RES1    0.0000
     15 N1         3.1819    6.3474    6.4638 N.2       1 RES1    0.0000
     16 N2         2.8981    5.0472    6.1911 N.pl3     1 RES1    0.0000
     17 N3         1.9627    3.0115    6.7126 N.ar      1 RES1    0.0000
     18 N4         4.3551    8.0600    5.2759 N.pl3     1 RES1    0.0000
     19 N5        -0.1520    0.8864   10.4310 N.1       1 RES1    0.0000
     20 O1         3.9791    8.9085    6.0786 O.2       1 RES1    0.0000
     21 O2         5.1629    8.2573    4.3765 O.2       1 RES1    0.0000
@<TRIPOS>BOND
     1    1    2 1
     2    2    3 1
     3    4    2 2
     4    5    4 1
     5    6    7 ar
     6    7    8 1
     7    9    7 ar
     8   10    9 1
     9   11    9 ar
    10   12   11 ar
    11   13   12 1
    12   14   11 1
    13   15    1 2
    14   16    4 1
    15   17    6 ar
    16   18    1 1
    17   19   14 3
    18   20   18 2
    19   21   18 2
    20    6   16 1
    21   12   17 ar
    22   15   16 1
@<TRIPOS>SUBSTRUCTURE
     1 RES1 1

@<TRIPOS>CRYSIN
   3.8200   13.4306   17.8756  90.0000  91.9170  90.0000 231 1

