# MOL2 file generated by ConQuest
# Please check atom types

@<TRIPOS>MOLECULE
QEDJAN
    30    31     1
SMALL
NO_CHARGES
****
Generated from CSD

@<TRIPOS>ATOM
      1 C1         3.7663    3.8282   14.8544 C.2       1 RES1    0.0000
      2 C2         4.1200    5.1658   15.0316 C.2       1 RES1    0.0000
      3 H1         4.5883    5.7354   14.4321 H         1 RES1    0.0000
      4 C3         3.6320    5.4598   16.2707 C.2       1 RES1    0.0000
      5 H2         3.6919    6.2965   16.7170 H         1 RES1    0.0000
      6 C4         2.4225    4.1172   18.0196 C.ar      1 RES1    0.0000
      7 C5         2.3098    5.1745   18.9174 C.ar      1 RES1    0.0000
      8 H3         2.6140    6.0421   18.6792 H         1 RES1    0.0000
      9 C6         1.7476    4.9442   20.1630 C.ar      1 RES1    0.0000
     10 H4         1.6733    5.6593   20.7840 H         1 RES1    0.0000
     11 C7         1.2905    3.6765   20.5157 C.ar      1 RES1    0.0000
     12 C8         1.3955    2.6377   19.5886 C.ar      1 RES1    0.0000
     13 H5         1.0768    1.7729   19.8163 H         1 RES1    0.0000
     14 C9         1.9550    2.8498   18.3462 C.ar      1 RES1    0.0000
     15 H6         2.0199    2.1374   17.7196 H         1 RES1    0.0000
     16 C10        0.6950    3.3715   21.8423 C.2       1 RES1    0.0000
     17 C11       -0.0633    4.2058   23.9276 C.3       1 RES1    0.0000
     18 H7         0.6299    3.8036   24.5096 H         1 RES1    0.0000
     19 H8        -0.8280    3.5798   23.8725 H         1 RES1    0.0000
     20 C12       -0.5123    5.5245   24.4921 C.3       1 RES1    0.0000
     21 H9        -1.2281    5.8922   23.9344 H         1 RES1    0.0000
     22 H10        0.2438    6.1477   24.5069 H         1 RES1    0.0000
     23 H11       -0.8452    5.3924   25.4047 H         1 RES1    0.0000
     24 N1         3.1123    3.2953   15.8743 N.2       1 RES1    0.0000
     25 N2         3.0391    4.3224   16.7522 N.pl3     1 RES1    0.0000
     26 N3         4.0485    3.0031   13.6964 N.pl3     1 RES1    0.0000
     27 O1         3.5729    1.8793   13.6381 O.2       1 RES1    0.0000
     28 O2         4.7573    3.5136   12.8212 O.2       1 RES1    0.0000
     29 O3         0.4819    4.4567   22.5901 O.3       1 RES1    0.0000
     30 O4         0.4233    2.2456   22.2054 O.2       1 RES1    0.0000
@<TRIPOS>BOND
     1    1    2 1
     2    2    3 1
     3    4    2 2
     4    5    4 1
     5    6    7 ar
     6    7    8 1
     7    9    7 ar
     8   10    9 1
     9   11    9 ar
    10   12   11 ar
    11   13   12 1
    12   14    6 ar
    13   15   14 1
    14   16   11 1
    15   17   18 1
    16   19   17 1
    17   20   17 1
    18   21   20 1
    19   22   20 1
    20   23   20 1
    21   24    1 2
    22   25    4 1
    23   26    1 1
    24   27   26 2
    25   28   26 2
    26   29   16 1
    27   30   16 2
    28    6   25 1
    29   12   14 ar
    30   17   29 1
    31   24   25 1
@<TRIPOS>SUBSTRUCTURE
     1 RES1 1

@<TRIPOS>CRYSIN
   3.7973   11.3573   26.8872  90.0000  91.2826  90.0000 231 1

