# MOL2 file generated by ConQuest
# Please check atom types

@<TRIPOS>MOLECULE
QEDQEY
    38    41     1
SMALL
USER_CHARGES
****
Generated from CSD

@<TRIPOS>ATOM
      1 O1         4.0331   -0.7600    9.8689 O.2       1 RES1   -1.0000
      2 O2         5.6097   -2.6244   11.9831 O.2       1 RES1    0.0000
      3 N1         2.7280   -0.6870    9.9082 N.pl3     1 RES1    1.0000
      4 N2         2.9848   -1.9098   11.8021 N.3       1 RES1    0.0000
      5 C1         1.9989   -0.0195    8.9226 C.ar      1 RES1    0.0000
      6 C2         3.8955   -3.3682   13.4790 C.ar      1 RES1    0.0000
      7 C3         1.8445    1.3219    6.8729 C.ar      1 RES1    0.0000
      8 C4        -0.1128    0.9582    8.2097 C.ar      1 RES1    0.0000
      9 H1        -1.0227    1.0873    8.3492 H         1 RES1    0.0000
     10 C5         5.2433   -3.2959   12.9158 C.2       1 RES1    0.0000
     11 C6         2.6531    0.4969    7.7248 C.ar      1 RES1    0.0000
     12 C7         2.0901   -1.2903   10.9729 C.ar      1 RES1    0.0000
     13 C8         0.6126    0.1275    9.1060 C.ar      1 RES1    0.0000
     14 C9         2.8014   -2.6634   12.9402 C.ar      1 RES1    0.0000
     15 C10        2.4251    1.8473    5.7113 C.ar      1 RES1    0.0000
     16 H2         1.9210    2.4173    5.1777 H         1 RES1    0.0000
     17 C11        0.4762    1.5582    7.1744 C.ar      1 RES1    0.0000
     18 H3        -0.0165    2.1396    6.6391 H         1 RES1    0.0000
     19 C12        3.9593    0.2006    7.3103 C.ar      1 RES1    0.0000
     20 H4         4.4939   -0.3467    7.8400 H         1 RES1    0.0000
     21 C13        3.7151    1.5493    5.3314 C.ar      1 RES1    0.0000
     22 H5         4.0779    1.9066    4.5524 H         1 RES1    0.0000
     23 C14        0.7064   -1.2415   11.0638 C.ar      1 RES1    0.0000
     24 H6         0.2694   -1.7060   11.7410 H         1 RES1    0.0000
     25 C15       -0.0141   -0.5124   10.1630 C.ar      1 RES1    0.0000
     26 H7        -0.9367   -0.4442   10.2606 H         1 RES1    0.0000
     27 C16        1.6106   -2.7494   13.6548 C.ar      1 RES1    0.0000
     28 C17        3.7232   -4.1647   14.6105 C.ar      1 RES1    0.0000
     29 H8         4.4540   -4.6300   14.9480 H         1 RES1    0.0000
     30 C18        4.4629    0.7008    6.1419 C.ar      1 RES1    0.0000
     31 H9         5.3248    0.4685    5.8835 H         1 RES1    0.0000
     32 C19        2.5177   -4.2833   15.2417 C.ar      1 RES1    0.0000
     33 H10        2.4086   -4.8444   15.9736 H         1 RES1    0.0000
     34 C20        1.4961   -3.5574   14.7585 C.ar      1 RES1    0.0000
     35 H11        0.6742   -3.6037   15.1920 H         1 RES1    0.0000
     36 H12        5.8419   -3.8489   13.4061 H         1 RES1    0.0000
     37 H13        3.8127   -1.7945   11.4970 H         1 RES1    0.0000
     38 H14        0.8569   -2.3061   13.3990 H         1 RES1    0.0000
@<TRIPOS>BOND
     1    1    3 1
     2    2   10 2
     3    3    5 ar
     4    4   12 1
     5    5   11 ar
     6    6   10 1
     7    7   11 ar
     8    8    9 1
     9   10   36 1
    10   11   19 ar
    11   12    3 ar
    12   13    5 ar
    13   14    4 1
    14   15    7 ar
    15   16   15 1
    16   17    7 ar
    17   18   17 1
    18   19   20 1
    19   21   15 ar
    20   22   21 1
    21   23   12 ar
    22   24   23 1
    23   25   13 ar
    24   26   25 1
    25   27   14 ar
    26   28    6 ar
    27   29   28 1
    28   30   19 ar
    29   31   30 1
    30   32   28 ar
    31   33   32 1
    32   34   27 ar
    33   35   34 1
    34   37    4 1
    35   38   27 1
    36    6   14 ar
    37    8   13 ar
    38    8   17 ar
    39   21   30 ar
    40   23   25 ar
    41   32   34 ar
@<TRIPOS>SUBSTRUCTURE
     1 RES1 1

@<TRIPOS>CRYSIN
   7.5310    8.1200   23.7560  90.0000  94.4100  90.0000 231 1

