# MOL2 file generated by ConQuest
# Please check atom types

@<TRIPOS>MOLECULE
QEDVUT
    24    25     1
SMALL
NO_CHARGES
****
Generated from CSD

@<TRIPOS>ATOM
      1 C1        -0.0828    7.4661    7.4287 C.3       1 RES1    0.0000
      2 H1        -1.0499    7.6164    7.4804 H         1 RES1    0.0000
      3 H2         0.0942    6.6523    6.9122 H         1 RES1    0.0000
      4 H3         0.3431    8.2318    6.9881 H         1 RES1    0.0000
      5 C2         0.4724    7.3119    8.8071 C.2       1 RES1    0.0000
      6 C3         0.4990    8.2707    9.8479 C.2       1 RES1    0.0000
      7 H4         0.1391    9.1505    9.8270 H         1 RES1    0.0000
      8 C4         1.1425    7.6773   10.8789 C.2       1 RES1    0.0000
      9 H5         1.3301    8.0647   11.7258 H         1 RES1    0.0000
     10 C5         2.1178    5.4084   11.2052 C.ar      1 RES1    0.0000
     11 C6         2.6367    5.7000   12.4703 C.ar      1 RES1    0.0000
     12 H6         2.5617    6.5759   12.8269 H         1 RES1    0.0000
     13 C7         3.2607    4.7009   13.2004 C.ar      1 RES1    0.0000
     14 H7         3.6311    4.8875   14.0558 H         1 RES1    0.0000
     15 C8         3.3361    3.4272   12.6646 C.ar      1 RES1    0.0000
     16 C9         2.8344    3.1240   11.4108 C.ar      1 RES1    0.0000
     17 H8         2.9024    2.2429   11.0632 H         1 RES1    0.0000
     18 C10        2.2346    4.1230   10.6761 C.ar      1 RES1    0.0000
     19 H9         1.8998    3.9365    9.8066 H         1 RES1    0.0000
     20 N1         1.0554    6.1865    9.1859 N.2       1 RES1    0.0000
     21 N2         1.4711    6.4207   10.4729 N.pl3     1 RES1    0.0000
     22 N3         3.9953    2.3816   13.4399 N.pl3     1 RES1    0.0000
     23 O1         4.5717    2.6875   14.4820 O.2       1 RES1    0.0000
     24 O2         3.9355    1.2246   13.0209 O.2       1 RES1    0.0000
@<TRIPOS>BOND
     1    1    2 1
     2    3    1 1
     3    4    1 1
     4    5    1 1
     5    6    5 1
     6    7    6 1
     7    8    6 2
     8    9    8 1
     9   10   11 ar
    10   11   12 1
    11   13   11 ar
    12   14   13 1
    13   15   13 ar
    14   16   15 ar
    15   17   16 1
    16   18   10 ar
    17   19   18 1
    18   20    5 2
    19   21    8 1
    20   22   15 1
    21   23   22 2
    22   24   22 2
    23   10   21 1
    24   16   18 ar
    25   20   21 1
@<TRIPOS>SUBSTRUCTURE
     1 RES1 1

@<TRIPOS>CRYSIN
   3.9074   12.9574   18.5066  90.0000  90.0000  90.0000  19 1

