# MOL2 file generated by ConQuest
# Please check atom types

@<TRIPOS>MOLECULE
QEDWEE
    30    31     1
SMALL
NO_CHARGES
****
Generated from CSD

@<TRIPOS>ATOM
      1 C1         0.7750    7.1156    6.0193 C.2       1 RES1    0.0000
      2 H1         0.9460    7.5347    6.8546 H         1 RES1    0.0000
      3 C2         0.1980    5.8925    5.8229 C.2       1 RES1    0.0000
      4 H2        -0.1125    5.2867    6.4848 H         1 RES1    0.0000
      5 C3         0.1644    5.7268    4.4274 C.2       1 RES1    0.0000
      6 C4         1.5908    8.8924    4.4570 C.ar      1 RES1    0.0000
      7 C5         2.1875    9.0761    3.2170 C.ar      1 RES1    0.0000
      8 H3         2.2644    8.3497    2.6113 H         1 RES1    0.0000
      9 C6         2.6716   10.3291    2.8684 C.ar      1 RES1    0.0000
     10 H4         3.0819   10.4735    2.0242 H         1 RES1    0.0000
     11 C7         2.5423   11.3662    3.7837 C.ar      1 RES1    0.0000
     12 C8         1.9626   11.1946    5.0257 C.ar      1 RES1    0.0000
     13 H5         1.8967   11.9227    5.6336 H         1 RES1    0.0000
     14 C9         1.4786    9.9394    5.3688 C.ar      1 RES1    0.0000
     15 H6         1.0752    9.7961    6.2163 H         1 RES1    0.0000
     16 C10       -0.3763    4.5969    3.6432 C.2       1 RES1    0.0000
     17 C11       -1.4426    2.4825    3.7896 C.3       1 RES1    0.0000
     18 H7        -0.7400    2.0186    3.2697 H         1 RES1    0.0000
     19 H8        -2.1695    2.7472    3.1716 H         1 RES1    0.0000
     20 C12       -1.9745    1.5836    4.8706 C.3       1 RES1    0.0000
     21 H9        -2.4197    0.8123    4.4639 H         1 RES1    0.0000
     22 H10       -2.6173    2.0780    5.4198 H         1 RES1    0.0000
     23 H11       -1.2338    1.2738    5.4331 H         1 RES1    0.0000
     24 N1         1.0570    7.6178    4.7830 N.pl3     1 RES1    0.0000
     25 N2         0.6929    6.7734    3.7839 N.2       1 RES1    0.0000
     26 N3         3.0448   12.6915    3.4086 N.pl3     1 RES1    0.0000
     27 O1        -0.8878    3.6594    4.4553 O.3       1 RES1    0.0000
     28 O2        -0.3635    4.5105    2.4401 O.2       1 RES1    0.0000
     29 O3         3.7617   12.7817    2.4135 O.2       1 RES1    0.0000
     30 O4         2.7276   13.6576    4.1029 O.2       1 RES1    0.0000
@<TRIPOS>BOND
     1    1    2 1
     2    3    1 2
     3    4    3 1
     4    5    3 1
     5    6    7 ar
     6    7    8 1
     7    9    7 ar
     8   10    9 1
     9   11    9 ar
    10   12   11 ar
    11   13   12 1
    12   14    6 ar
    13   15   14 1
    14   16    5 1
    15   17   18 1
    16   19   17 1
    17   20   17 1
    18   21   20 1
    19   22   20 1
    20   23   20 1
    21   24    1 1
    22   25    5 2
    23   26   11 1
    24   27   16 1
    25   28   16 2
    26   29   26 2
    27   30   26 2
    28    6   24 1
    29   12   14 ar
    30   17   27 1
    31   24   25 1
@<TRIPOS>SUBSTRUCTURE
     1 RES1 1

@<TRIPOS>CRYSIN
   3.8100   26.9866   11.1734  90.0000  94.4120  90.0000  14 1

