# MOL2 file generated by ConQuest
# Please check atom types

@<TRIPOS>MOLECULE
QEGNUO
    52    56     1
SMALL
NO_CHARGES
****
Generated from CSD

@<TRIPOS>ATOM
      1 O1         4.2072    9.4716   12.5696 O.2       1 RES1    0.0000
      2 N1         4.5338    8.2335   12.7754 N.pl3     1 RES1    0.0000
      3 C1         5.6239    6.4093   13.9186 C.ar      1 RES1    0.0000
      4 C2         3.7983    7.2372   11.9810 C.3       1 RES1    0.0000
      5 H1         4.3254    6.4693   11.6757 H         1 RES1    0.0000
      6 C3         2.4184    4.4986   12.7294 C.ar      1 RES1    0.0000
      7 H2         3.0829    4.6714   13.3570 H         1 RES1    0.0000
      8 C4         1.9928    3.1633   12.5299 C.ar      1 RES1    0.0000
      9 C5         4.9899    5.8807   15.0362 C.ar      1 RES1    0.0000
     10 H3         4.4488    6.4269   15.5577 H         1 RES1    0.0000
     11 C6         1.8842    5.5397   12.0296 C.ar      1 RES1    0.0000
     12 C7         2.3317    6.9575   12.2420 C.3       1 RES1    0.0000
     13 C8         5.4803    7.8625   13.6155 C.2       1 RES1    0.0000
     14 C9         0.8633    5.2632   11.0982 C.ar      1 RES1    0.0000
     15 H4         0.4833    5.9621   10.6178 H         1 RES1    0.0000
     16 C10        6.4119    5.5742   13.1499 C.ar      1 RES1    0.0000
     17 H5         6.8645    5.9131   12.4114 H         1 RES1    0.0000
     18 C11        6.3768    8.8178   14.2861 C.ar      1 RES1    0.0000
     19 C12        2.7738    7.7232   11.0323 C.3       1 RES1    0.0000
     20 H6         2.7108    7.2796   10.1725 H         1 RES1    0.0000
     21 H7         2.5952    8.6762   11.0121 H         1 RES1    0.0000
     22 C13        0.9763    2.9036   11.5941 C.ar      1 RES1    0.0000
     23 C14        2.5514    2.0698   13.2357 C.ar      1 RES1    0.0000
     24 H8         3.2283    2.2237   13.8552 H         1 RES1    0.0000
     25 C15        0.4238    3.9915   10.8889 C.ar      1 RES1    0.0000
     26 H9        -0.2530    3.8388   10.2701 H         1 RES1    0.0000
     27 C16        1.6365    7.6898   13.3653 C.3       1 RES1    0.0000
     28 H10        1.7871    7.2239   14.1924 H         1 RES1    0.0000
     29 H11        0.6943    7.7288   13.1874 H         1 RES1    0.0000
     30 H12        1.9867    8.5803   13.4312 H         1 RES1    0.0000
     31 C17        7.2095    8.3362   15.3001 C.ar      1 RES1    0.0000
     32 H13        7.1552    7.4401   15.5408 H         1 RES1    0.0000
     33 C18        2.1189    0.8025   13.0252 C.ar      1 RES1    0.0000
     34 H14        2.5007    0.0970   13.4948 H         1 RES1    0.0000
     35 C19        5.9058    3.7418   14.5954 C.ar      1 RES1    0.0000
     36 H15        5.9986    2.8445   14.8178 H         1 RES1    0.0000
     37 C20        5.1537    4.5588   15.3807 C.ar      1 RES1    0.0000
     38 H16        4.7500    4.2233   16.1493 H         1 RES1    0.0000
     39 C21        6.4942   10.1676   13.9439 C.ar      1 RES1    0.0000
     40 H17        5.9557   10.5343   13.2807 H         1 RES1    0.0000
     41 C22        7.4363   10.9634   14.6143 C.ar      1 RES1    0.0000
     42 H18        7.5282   11.8584   14.3768 H         1 RES1    0.0000
     43 C23        8.2191   10.4529   15.6065 C.ar      1 RES1    0.0000
     44 H19        8.8293   11.0002   16.0475 H         1 RES1    0.0000
     45 C24        6.5283    4.2333   13.4776 C.ar      1 RES1    0.0000
     46 H20        7.0300    3.6660   12.9393 H         1 RES1    0.0000
     47 C25        0.5402    1.5683   11.4056 C.ar      1 RES1    0.0000
     48 H21       -0.1383    1.3855   10.7959 H         1 RES1    0.0000
     49 C26        1.1024    0.5584   12.1053 C.ar      1 RES1    0.0000
     50 H22        0.8064   -0.3132   11.9704 H         1 RES1    0.0000
     51 C27        8.1070    9.1488   15.9521 C.ar      1 RES1    0.0000
     52 H23        8.6385    8.8010   16.6327 H         1 RES1    0.0000
@<TRIPOS>BOND
     1    1    2 1
     2    2    4 1
     3    3    9 ar
     4    4    5 1
     5    6    7 1
     6    8    6 ar
     7    9   10 1
     8   11    6 ar
     9   12    4 1
    10   13    2 2
    11   14   11 ar
    12   15   14 1
    13   16    3 ar
    14   17   16 1
    15   18   13 1
    16   19    4 1
    17   20   19 1
    18   21   19 1
    19   22    8 ar
    20   23    8 ar
    21   24   23 1
    22   25   14 ar
    23   26   25 1
    24   27   12 1
    25   28   27 1
    26   29   27 1
    27   30   27 1
    28   31   18 ar
    29   32   31 1
    30   33   23 ar
    31   34   33 1
    32   35   36 1
    33   37    9 ar
    34   38   37 1
    35   39   18 ar
    36   40   39 1
    37   41   39 ar
    38   42   41 1
    39   43   41 ar
    40   44   43 1
    41   45   16 ar
    42   46   45 1
    43   47   22 ar
    44   48   47 1
    45   49   33 ar
    46   50   49 1
    47   51   31 ar
    48   52   51 1
    49    3   13 1
    50   11   12 1
    51   12   19 1
    52   22   25 ar
    53   35   37 ar
    54   35   45 ar
    55   43   51 ar
    56   47   49 ar
@<TRIPOS>SUBSTRUCTURE
     1 RES1 1

@<TRIPOS>CRYSIN
   8.7558   11.1462   21.2016  90.0000  90.0000  90.0000  19 1

