# MOL2 file generated by ConQuest
# Please check atom types

@<TRIPOS>MOLECULE
QEGZAG
    44    47     1
SMALL
NO_CHARGES
****
Generated from CSD

@<TRIPOS>ATOM
      1 O1         2.0805    1.6683    0.4521 O.3       1 RES1    0.0000
      2 O2         1.4803    0.7615    2.3975 O.2       1 RES1    0.0000
      3 O3        10.9012   -0.4508    4.6362 O.3       1 RES1    0.0000
      4 N1         3.3524   -0.4796    5.9321 N.pl3     1 RES1    0.0000
      5 N2         4.6919   -0.7275    6.1422 N.2       1 RES1    0.0000
      6 N3         3.3007    2.0217   -0.2354 N.2       1 RES1    0.0000
      7 C1         5.2889   -0.3453    5.0187 C.2       1 RES1    0.0000
      8 C2         4.3335    0.1542    4.0718 C.2       1 RES1    0.0000
      9 C3         3.1116    0.0214    4.7205 C.2       1 RES1    0.0000
     10 H1         2.2773    0.2413    4.3711 H         1 RES1    0.0000
     11 C4         2.4000   -0.7961    6.9479 C.ar      1 RES1    0.0000
     12 C5         2.8247   -1.3451    8.1250 C.ar      1 RES1    0.0000
     13 H2         3.7269   -1.5192    8.2654 H         1 RES1    0.0000
     14 C6         1.8923   -1.6395    9.1085 C.ar      1 RES1    0.0000
     15 H3         2.1764   -2.0188    9.9082 H         1 RES1    0.0000
     16 C7         0.5644   -1.3820    8.9200 C.ar      1 RES1    0.0000
     17 H4        -0.0524   -1.5768    9.5892 H         1 RES1    0.0000
     18 C8         0.1532   -0.8375    7.7414 C.ar      1 RES1    0.0000
     19 H5        -0.7517   -0.6700    7.6054 H         1 RES1    0.0000
     20 C9         1.0650   -0.5283    6.7451 C.ar      1 RES1    0.0000
     21 H6         0.7779   -0.1439    5.9479 H         1 RES1    0.0000
     22 C10        6.7552   -0.4280    4.8940 C.ar      1 RES1    0.0000
     23 C11        7.5728   -0.0708    5.9559 C.ar      1 RES1    0.0000
     24 H7         7.1880    0.1948    6.7583 H         1 RES1    0.0000
     25 C12        8.9383   -0.1011    5.8415 C.ar      1 RES1    0.0000
     26 H8         9.4666    0.1402    6.5676 H         1 RES1    0.0000
     27 C13        9.5355   -0.4848    4.6608 C.ar      1 RES1    0.0000
     28 C14        8.7500   -0.8744    3.5948 C.ar      1 RES1    0.0000
     29 H9         9.1405   -1.1547    2.7979 H         1 RES1    0.0000
     30 C15        7.3683   -0.8419    3.7268 C.ar      1 RES1    0.0000
     31 H10        6.8397   -1.1060    3.0069 H         1 RES1    0.0000
     32 C16        4.6319    0.7128    2.7976 C.2       1 RES1    0.0000
     33 H11        5.5406    0.8050    2.6219 H         1 RES1    0.0000
     34 C17        3.8257    1.1356    1.7924 C.2       1 RES1    0.0000
     35 C18        2.3769    1.1311    1.6707 C.2       1 RES1    0.0000
     36 C19        4.2654    1.7059    0.5442 C.2       1 RES1    0.0000
     37 C20        5.6714    1.9324    0.1247 C.3       1 RES1    0.0000
     38 H12        5.6847    2.3501   -0.7407 H         1 RES1    0.0000
     39 H13        6.1312    1.0905    0.0807 H         1 RES1    0.0000
     40 H14        6.1076    2.5020    0.7627 H         1 RES1    0.0000
     41 C21       11.5460   -0.7777    3.4103 C.3       1 RES1    0.0000
     42 H15       11.3667   -1.6948    3.1903 H         1 RES1    0.0000
     43 H16       12.4929   -0.6500    3.5020 H         1 RES1    0.0000
     44 H17       11.2135   -0.2088    2.7136 H         1 RES1    0.0000
@<TRIPOS>BOND
     1    1    6 1
     2    2   35 2
     3    3   27 1
     4    4    5 1
     5    5    7 2
     6    6   36 2
     7    7    8 1
     8    8    9 2
     9    9    4 1
    10   10    9 1
    11   11    4 1
    12   12   11 ar
    13   13   12 1
    14   14   12 ar
    15   15   14 1
    16   16   14 ar
    17   17   16 1
    18   18   16 ar
    19   19   18 1
    20   20   11 ar
    21   21   20 1
    22   22    7 1
    23   23   22 ar
    24   24   23 1
    25   25   23 ar
    26   26   25 1
    27   27   25 ar
    28   28   27 ar
    29   29   28 1
    30   30   22 ar
    31   31   30 1
    32   32    8 1
    33   33   32 1
    34   34   32 2
    35   35    1 1
    36   36   34 1
    37   37   36 1
    38   38   37 1
    39   39   37 1
    40   40   37 1
    41   41    3 1
    42   42   41 1
    43   43   41 1
    44   44   41 1
    45   18   20 ar
    46   28   30 ar
    47   34   35 1
@<TRIPOS>SUBSTRUCTURE
     1 RES1 1

@<TRIPOS>CRYSIN
  13.0953    7.3785   36.6700  90.0000  90.0000  90.0000  61 1

