# MOL2 file generated by ConQuest
# Please check atom types

@<TRIPOS>MOLECULE
QEGZEK
    41    44     1
SMALL
NO_CHARGES
****
Generated from CSD

@<TRIPOS>ATOM
      1 O1        16.1167    2.7481    5.2845 O.3       1 RES1    0.0000
      2 O2        17.0535    1.6328    3.5951 O.2       1 RES1    0.0000
      3 O3        25.8639    3.2301    7.4628 O.3       1 RES1    0.0000
      4 H1        26.4840    3.5854    7.0611 H         1 RES1    0.0000
      5 N1        20.8685    0.7809    2.1832 N.pl3     1 RES1    0.0000
      6 N2        22.0809    1.0266    2.7864 N.2       1 RES1    0.0000
      7 N3        16.5469    3.4060    6.4872 N.2       1 RES1    0.0000
      8 C1        21.7843    1.6060    3.9357 C.2       1 RES1    0.0000
      9 C2        20.3637    1.7539    4.0867 C.2       1 RES1    0.0000
     10 C3        19.8408    1.1934    2.9245 C.2       1 RES1    0.0000
     11 H2        18.9406    1.1209    2.7059 H         1 RES1    0.0000
     12 C4        20.8255    0.1688    0.8923 C.ar      1 RES1    0.0000
     13 C5        21.9586   -0.4255    0.3818 C.ar      1 RES1    0.0000
     14 H3        22.7362   -0.4658    0.8892 H         1 RES1    0.0000
     15 C6        21.9305   -0.9627   -0.8934 C.ar      1 RES1    0.0000
     16 H4        22.6983   -1.3504   -1.2448 H         1 RES1    0.0000
     17 C7        20.7861   -0.9304   -1.6417 C.ar      1 RES1    0.0000
     18 H5        20.7739   -1.2936   -2.4967 H         1 RES1    0.0000
     19 C8        19.6506   -0.3538   -1.1127 C.ar      1 RES1    0.0000
     20 H6        18.8660   -0.3388   -1.6145 H         1 RES1    0.0000
     21 C9        19.6650    0.2015    0.1482 C.ar      1 RES1    0.0000
     22 H7        18.8985    0.5951    0.4951 H         1 RES1    0.0000
     23 C10       22.8570    2.0303    4.8591 C.ar      1 RES1    0.0000
     24 C11       24.0009    2.6531    4.3653 C.ar      1 RES1    0.0000
     25 H8        24.0812    2.8041    3.4521 H         1 RES1    0.0000
     26 C12       25.0193    3.0502    5.2092 C.ar      1 RES1    0.0000
     27 H9        25.7779    3.4596    4.8608 H         1 RES1    0.0000
     28 C13       24.9102    2.8380    6.5712 C.ar      1 RES1    0.0000
     29 C14       23.7886    2.2062    7.0796 C.ar      1 RES1    0.0000
     30 H10       23.7184    2.0512    7.9921 H         1 RES1    0.0000
     31 C15       22.7744    1.8059    6.2316 C.ar      1 RES1    0.0000
     32 H11       22.0264    1.3800    6.5834 H         1 RES1    0.0000
     33 C16       19.7017    2.4133    5.1586 C.2       1 RES1    0.0000
     34 H12       20.2706    2.7627    5.8058 H         1 RES1    0.0000
     35 C17       18.3792    2.6199    5.3989 C.2       1 RES1    0.0000
     36 C18       17.2050    2.2464    4.6188 C.2       1 RES1    0.0000
     37 C19       17.8344    3.3137    6.5395 C.2       1 RES1    0.0000
     38 C20       18.5974    3.8532    7.6964 C.3       1 RES1    0.0000
     39 H13       17.9971    4.3024    8.2955 H         1 RES1    0.0000
     40 H14       19.2602    4.4736    7.3819 H         1 RES1    0.0000
     41 H15       19.0308    3.1315    8.1595 H         1 RES1    0.0000
@<TRIPOS>BOND
     1    1    7 1
     2    2   36 2
     3    3    4 1
     4    5    6 1
     5    6    8 2
     6    7   37 2
     7    8    9 1
     8    9   10 2
     9   10    5 1
    10   11   10 1
    11   12    5 1
    12   13   12 ar
    13   14   13 1
    14   15   13 ar
    15   16   15 1
    16   17   15 ar
    17   18   17 1
    18   19   17 ar
    19   20   19 1
    20   21   12 ar
    21   22   21 1
    22   23    8 1
    23   24   23 ar
    24   25   24 1
    25   26   24 ar
    26   27   26 1
    27   28    3 1
    28   29   28 ar
    29   30   29 1
    30   31   23 ar
    31   32   31 1
    32   33    9 1
    33   34   33 1
    34   35   33 2
    35   36    1 1
    36   37   35 1
    37   38   37 1
    38   39   38 1
    39   40   38 1
    40   41   38 1
    41   19   21 ar
    42   26   28 ar
    43   29   31 ar
    44   35   36 1
@<TRIPOS>SUBSTRUCTURE
     1 RES1 1

