# MOL2 file generated by ConQuest
# Please check atom types

@<TRIPOS>MOLECULE
QEHDIS
    13    12     1
SMALL
NO_CHARGES
****
Generated from CSD

@<TRIPOS>ATOM
      1 O1         0.1209    1.6331    2.0560 O.2       1 RES1    0.0000
      2 O2         0.4945   -0.5088    2.1415 O.2       1 RES1    0.0000
      3 N1         2.1064    0.7964    2.8107 N.2       1 RES1    0.0000
      4 N2         3.8768    2.0015    3.4606 N.pl3     1 RES1    0.0000
      5 N3         2.0606    3.2249    2.7722 N.3       1 RES1    0.0000
      6 N4         0.8681    0.6739    2.3237 N.pl3     1 RES1    0.0000
      7 N5         4.5803    3.2033    3.7077 N.3       1 RES1    0.0000
      8 C1         2.6255    2.0546    3.0000 C.2       1 RES1    0.0000
      9 H1         1.2499    3.2221    2.4063 H         1 RES1    0.0000
     10 H2         5.1499    3.0899    4.4353 H         1 RES1    0.0000
     11 H3         2.5135    3.9592    2.9046 H         1 RES1    0.0000
     12 H4         4.1800    1.2000    3.6664 H         1 RES1    0.0000
     13 H5         5.2045    3.2788    3.0399 H         1 RES1    0.0000
@<TRIPOS>BOND
     1    1    6 2
     2    2    6 2
     3    3    6 1
     4    4    7 1
     5    5    8 1
     6    7   10 1
     7    8    3 2
     8    9    5 1
     9   11    5 1
    10   12    4 1
    11   13    7 1
    12    4    8 1
@<TRIPOS>SUBSTRUCTURE
     1 RES1 1

@<TRIPOS>CRYSIN
   6.8301    9.4491    7.1192  90.0000  90.0000  90.0000  14 1

