# MOL2 file generated by ConQuest
# Please check atom types

@<TRIPOS>MOLECULE
QEHFIV
    40    43     1
SMALL
NO_CHARGES
****
Generated from CSD

@<TRIPOS>ATOM
      1 O1         7.4329    2.5053   20.2517 O.3       1 RES1    0.0000
      2 O2         8.0867    3.2564   18.2646 O.2       1 RES1    0.0000
      3 N1         7.4344    2.3713   14.2750 N.pl3     1 RES1    0.0000
      4 N2         7.1151    1.1455   13.7444 N.2       1 RES1    0.0000
      5 N3         6.6926    1.3651   20.7752 N.2       1 RES1    0.0000
      6 C1         6.8462    0.3778   14.7794 C.2       1 RES1    0.0000
      7 C2         6.9788    1.0963   16.0094 C.2       1 RES1    0.0000
      8 C3         7.3636    2.3613   15.6131 C.2       1 RES1    0.0000
      9 H1         7.5421    3.0794   16.1756 H         1 RES1    0.0000
     10 C4         7.8464    3.4417   13.4338 C.ar      1 RES1    0.0000
     11 C5         7.4939    3.4496   12.1202 C.ar      1 RES1    0.0000
     12 H2         6.9946    2.7526   11.7614 H         1 RES1    0.0000
     13 C6         7.8916    4.5188   11.3187 C.ar      1 RES1    0.0000
     14 H3         7.6619    4.5312   10.4184 H         1 RES1    0.0000
     15 C7         8.6101    5.5404   11.8465 C.ar      1 RES1    0.0000
     16 H4         8.8534    6.2580   11.3059 H         1 RES1    0.0000
     17 C8         8.9807    5.5280   13.1533 C.ar      1 RES1    0.0000
     18 H5         9.4830    6.2249   13.5088 H         1 RES1    0.0000
     19 C9         8.5996    4.4617   13.9493 C.ar      1 RES1    0.0000
     20 H6         8.8572    4.4381   14.8433 H         1 RES1    0.0000
     21 C10        6.5412   -1.0626   14.5489 C.ar      1 RES1    0.0000
     22 C11        5.8106   -1.4375   13.4296 C.ar      1 RES1    0.0000
     23 H7         5.4823   -0.7859   12.8532 H         1 RES1    0.0000
     24 C12        5.5681   -2.7731   13.1661 C.ar      1 RES1    0.0000
     25 H8         5.0673   -3.0173   12.4212 H         1 RES1    0.0000
     26 C13        6.0652   -3.7362   14.0047 C.ar      1 RES1    0.0000
     27 H9         5.8987   -4.6346   13.8323 H         1 RES1    0.0000
     28 C14        6.8153   -3.3714   15.1072 C.ar      1 RES1    0.0000
     29 H10        7.1626   -4.0286   15.6669 H         1 RES1    0.0000
     30 C15        7.0533   -2.0445   15.3853 C.ar      1 RES1    0.0000
     31 H11        7.5557   -1.8075   16.1309 H         1 RES1    0.0000
     32 C16        6.6293    0.6082   17.3068 C.2       1 RES1    0.0000
     33 H12        6.2015   -0.2171   17.3122 H         1 RES1    0.0000
     34 C17        6.8229    1.1590   18.5266 C.2       1 RES1    0.0000
     35 C18        7.5045    2.4000   18.9097 C.2       1 RES1    0.0000
     36 C19        6.3763    0.6287   19.7815 C.2       1 RES1    0.0000
     37 C20        5.6449   -0.6287   19.9939 C.3       1 RES1    0.0000
     38 H13        5.5478   -0.7879   20.9346 H         1 RES1    0.0000
     39 H14        6.1322   -1.3525   19.5938 H         1 RES1    0.0000
     40 H15        4.7765   -0.5667   19.5874 H         1 RES1    0.0000
@<TRIPOS>BOND
     1    1    5 1
     2    2   35 2
     3    3    4 1
     4    4    6 2
     5    5   36 2
     6    6    7 1
     7    7    8 2
     8    8    3 1
     9    9    8 1
    10   10    3 1
    11   11   10 ar
    12   12   11 1
    13   13   11 ar
    14   14   13 1
    15   15   13 ar
    16   16   15 1
    17   17   15 ar
    18   18   17 1
    19   19   10 ar
    20   20   19 1
    21   21    6 1
    22   22   21 ar
    23   23   22 1
    24   24   22 ar
    25   25   24 1
    26   26   24 ar
    27   27   26 1
    28   28   26 ar
    29   29   28 1
    30   30   21 ar
    31   31   30 1
    32   32    7 1
    33   33   32 1
    34   34   32 2
    35   35    1 1
    36   36   34 1
    37   37   36 1
    38   38   37 1
    39   39   37 1
    40   40   37 1
    41   17   19 ar
    42   28   30 ar
    43   34   35 1
@<TRIPOS>SUBSTRUCTURE
     1 RES1 1

@<TRIPOS>CRYSIN
   7.5316   20.6808   21.2837  90.0000  90.0000  90.0000  61 1

