# MOL2 file generated by ConQuest
# Please check atom types

@<TRIPOS>MOLECULE
QEHZUZ
    38    40     1
SMALL
NO_CHARGES
****
Generated from CSD

@<TRIPOS>ATOM
      1 O1         0.4354    6.3695    6.8389 O.2       1 RES1    0.0000
      2 O2        -1.6984    9.4089    4.6444 O.2       1 RES1    0.0000
      3 O3        -0.1936   10.9010    4.3028 O.2       1 RES1    0.0000
      4 O4         0.8371    8.6759   -1.2245 O.3       1 RES1    0.0000
      5 O5         2.4553    9.5555    0.1673 O.3       1 RES1    0.0000
      6 N1        -0.5398    9.7868    4.6532 N.pl3     1 RES1    0.0000
      7 C1         0.5128    8.8395    5.1035 C.3       1 RES1    0.0000
      8 H1         0.3838    8.6293    6.0429 H         1 RES1    0.0000
      9 H2         1.3864    9.2487    5.0034 H         1 RES1    0.0000
     10 C2         0.4472    7.5540    4.2736 C.3       1 RES1    0.0000
     11 H3        -0.4096    7.1177    4.4615 H         1 RES1    0.0000
     12 C3         0.5038    7.8438    2.7900 C.ar      1 RES1    0.0000
     13 C4        -0.4640    7.3430    1.9481 C.ar      1 RES1    0.0000
     14 H4        -1.1558    6.8389    2.3117 H         1 RES1    0.0000
     15 C5        -0.4455    7.5651    0.5604 C.ar      1 RES1    0.0000
     16 H5        -1.0992    7.2126    0.0000 H         1 RES1    0.0000
     17 C6         0.5684    8.3149    0.0810 C.ar      1 RES1    0.0000
     18 C7         1.9991    9.5114   -1.1856 C.3       1 RES1    0.0000
     19 H6         2.6915    9.1496   -1.7611 H         1 RES1    0.0000
     20 H7         1.7792   10.4045   -1.4931 H         1 RES1    0.0000
     21 C8         1.5469    8.8344    0.9023 C.ar      1 RES1    0.0000
     22 C9         1.5475    8.6149    2.2531 C.ar      1 RES1    0.0000
     23 H8         2.2157    8.9657    2.7977 H         1 RES1    0.0000
     24 C10        1.5705    6.6084    4.7336 C.3       1 RES1    0.0000
     25 H9         2.4216    7.0872    4.6500 H         1 RES1    0.0000
     26 C11        1.4302    6.1449    6.1716 C.2       1 RES1    0.0000
     27 C12        2.5552    5.2899    6.6702 C.3       1 RES1    0.0000
     28 H10        2.3902    5.0340    7.5920 H         1 RES1    0.0000
     29 H11        3.3867    5.7873    6.6378 H         1 RES1    0.0000
     30 C13        2.6623    4.0376    5.7941 C.3       1 RES1    0.0000
     31 H12        3.4450    3.5275    6.0547 H         1 RES1    0.0000
     32 H13        1.8807    3.4800    5.9310 H         1 RES1    0.0000
     33 C14        2.7672    4.4053    4.3325 C.3       1 RES1    0.0000
     34 H14        3.6223    4.8341    4.1759 H         1 RES1    0.0000
     35 H15        2.7386    3.5953    3.7989 H         1 RES1    0.0000
     36 C15        1.6608    5.3298    3.8843 C.3       1 RES1    0.0000
     37 H16        0.8147    4.8578    3.9344 H         1 RES1    0.0000
     38 H17        1.8095    5.5755    2.9567 H         1 RES1    0.0000
@<TRIPOS>BOND
     1    1   26 2
     2    2    6 2
     3    3    6 2
     4    4   17 1
     5    5   18 1
     6    6    7 1
     7    7    8 1
     8    9    7 1
     9   10    7 1
    10   11   10 1
    11   12   10 1
    12   13   12 ar
    13   14   13 1
    14   15   13 ar
    15   16   15 1
    16   17   15 ar
    17   18    4 1
    18   19   18 1
    19   20   18 1
    20   21    5 1
    21   22   12 ar
    22   23   22 1
    23   24   10 1
    24   25   24 1
    25   26   24 1
    26   27   26 1
    27   28   27 1
    28   29   27 1
    29   30   27 1
    30   31   30 1
    31   32   30 1
    32   33   30 1
    33   34   33 1
    34   35   33 1
    35   36   24 1
    36   37   36 1
    37   38   36 1
    38   17   21 ar
    39   21   22 ar
    40   33   36 1
@<TRIPOS>SUBSTRUCTURE
     1 RES1 1

@<TRIPOS>CRYSIN
   5.6108    8.4734   29.4490  90.0000  90.0000  90.0000  19 1

