# MOL2 file generated by ConQuest
# Please check atom types

@<TRIPOS>MOLECULE
QEJZAH01
    20    20     1
SMALL
NO_CHARGES
****
Generated from CSD

@<TRIPOS>ATOM
      1 O1         2.3321    7.3214   -1.2850 O.2       1 RES1    0.0000
      2 O2         1.2502    5.4754   -1.1999 O.2       1 RES1    0.0000
      3 O3         4.6214    8.1564    4.3589 O.2       1 RES1    0.0000
      4 O4         2.4003    3.6912    0.3303 O.3       1 RES1    0.0000
      5 N1         2.0186    6.2832   -0.7181 N.pl3     1 RES1    0.0000
      6 C1         2.6094    6.0331    0.5970 C.ar      1 RES1    0.0000
      7 C2         2.9946    7.1388    1.3320 C.ar      1 RES1    0.0000
      8 H1         2.9328    8.0008    1.0457 H         1 RES1    0.0000
      9 C3         3.5855    6.9835    2.5762 C.ar      1 RES1    0.0000
     10 C4         3.8028    5.6928    3.0575 C.ar      1 RES1    0.0000
     11 H2         4.2104    5.5490    3.8397 H         1 RES1    0.0000
     12 C5         3.4214    4.5927    2.3329 C.ar      1 RES1    0.0000
     13 H3         3.5572    3.7303    2.6528 H         1 RES1    0.0000
     14 C6         2.7969    4.7247    1.0803 C.ar      1 RES1    0.0000
     15 C7         3.9833    8.1815    3.3416 C.2       1 RES1    0.0000
     16 H4         3.6578    9.0777    2.9483 H         1 RES1    0.0000
     17 C8         2.6725    2.3603    0.7943 C.3       1 RES1    0.0000
     18 H5         2.3009    2.1554    1.7317 H         1 RES1    0.0000
     19 H6         3.6634    2.1905    0.8926 H         1 RES1    0.0000
     20 H7         2.2573    1.7906    0.1507 H         1 RES1    0.0000
@<TRIPOS>BOND
     1    1    5 2
     2    2    5 2
     3    3   15 2
     4    4   14 1
     5    5    6 1
     6    6    7 ar
     7    7    8 1
     8    9    7 ar
     9   10    9 ar
    10   11   10 1
    11   12   10 ar
    12   13   12 1
    13   14    6 ar
    14   15    9 1
    15   16   15 1
    16   17    4 1
    17   18   17 1
    18   19   17 1
    19   20   17 1
    20   12   14 ar
@<TRIPOS>SUBSTRUCTURE
     1 RES1 1

@<TRIPOS>CRYSIN
   3.9139   17.5380   11.8693  90.0000  90.0790  90.0000  14 1

