# MOL2 file generated by ConQuest
# Please check atom types

@<TRIPOS>MOLECULE
QEKPAY
    70    72     1
SMALL
NO_CHARGES
****
Generated from CSD

@<TRIPOS>ATOM
      1 O1        -1.0720    3.6810    5.9134 O.2       1 RES1    0.0000
      2 O2         1.3815    0.8326    3.2122 O.2       1 RES1    0.0000
      3 O3         1.4178    2.8074   -1.3102 O.2       1 RES1    0.0000
      4 N1         0.8542    1.9323    0.6735 N.am      1 RES1    0.0000
      5 N2        -1.7557    1.4935    2.4798 N.3       1 RES1    0.0000
      6 O4         4.9038    0.5839    3.4864 O.2       1 RES1    0.0000
      7 N3        -0.1813    0.3330    4.7575 N.am      1 RES1    0.0000
      8 N4         5.6444    0.7192    2.5264 N.pl3     1 RES1    0.0000
      9 C1         0.9528    0.9156    4.3724 C.2       1 RES1    0.0000
     10 N5         3.1271    5.7079    2.1170 N.pl3     1 RES1    0.0000
     11 C2         1.7621    2.3146   -0.2256 C.2       1 RES1    0.0000
     12 N6        -1.5666    4.1569    3.7559 N.am      1 RES1    0.0000
     13 O5         2.8378    4.8843    1.2613 O.2       1 RES1    0.0000
     14 O6         6.8195    0.3511    2.5148 O.2       1 RES1    0.0000
     15 C3         3.2307    2.1137    0.0563 C.ar      1 RES1    0.0000
     16 C4         3.7332    1.4931    1.1932 C.ar      1 RES1    0.0000
     17 H1         3.1629    1.1713    1.8534 H         1 RES1    0.0000
     18 O7         5.5985    4.2262    6.1905 O.2       1 RES1    0.0000
     19 C5         2.3929    5.6799    3.3957 C.ar      1 RES1    0.0000
     20 C6        -2.7915    3.3826    3.6957 C.3       1 RES1    0.0000
     21 H2        -3.5542    3.9822    3.6831 H         1 RES1    0.0000
     22 H3        -2.8611    2.8251    4.4875 H         1 RES1    0.0000
     23 C7         2.8663    2.3497    4.9497 C.ar      1 RES1    0.0000
     24 H4         3.1054    2.3209    4.0511 H         1 RES1    0.0000
     25 C8         3.6307    3.0548    5.8574 C.ar      1 RES1    0.0000
     26 C9         1.7336    1.6828    5.4018 C.ar      1 RES1    0.0000
     27 C10       -0.5643    2.0298    0.3391 C.3       1 RES1    0.0000
     28 H5        -0.6781    1.8628   -0.6099 H         1 RES1    0.0000
     29 H6        -0.8709    2.9329    0.5205 H         1 RES1    0.0000
     30 C11       -2.8136    2.5059    2.4530 C.3       1 RES1    0.0000
     31 H7        -3.6750    2.0659    2.3870 H         1 RES1    0.0000
     32 H8        -2.7031    3.0634    1.6667 H         1 RES1    0.0000
     33 C12        2.2083    6.3357    5.6673 C.ar      1 RES1    0.0000
     34 H9         2.5306    6.7956    6.4092 H         1 RES1    0.0000
     35 C13        1.2253    4.9450    3.4538 C.ar      1 RES1    0.0000
     36 H10        0.9127    4.4805    2.7104 H         1 RES1    0.0000
     37 C14        5.1087    1.3663    1.3179 C.ar      1 RES1    0.0000
     38 C15        1.3984    1.7624    6.7531 C.ar      1 RES1    0.0000
     39 H11        0.6401    1.3235    7.0664 H         1 RES1    0.0000
     40 C16        2.8991    6.3928    4.4638 C.ar      1 RES1    0.0000
     41 H12        3.6774    6.8951    4.3797 H         1 RES1    0.0000
     42 C17       -1.0040   -0.4483    3.8500 C.3       1 RES1    0.0000
     43 H13       -1.3419   -1.2274    4.3193 H         1 RES1    0.0000
     44 H14       -0.4547   -0.7600    3.1126 H         1 RES1    0.0000
     45 O8         5.0427    3.7606    4.1450 O.2       1 RES1    0.0000
     46 C18        1.0428    5.5987    5.7662 C.ar      1 RES1    0.0000
     47 H15        0.5962    5.5540    6.5801 H         1 RES1    0.0000
     48 C19        0.5307    4.9228    4.6644 C.ar      1 RES1    0.0000
     49 O9         3.9820    6.5731    1.9583 O.2       1 RES1    0.0000
     50 C20       -1.4227    1.0524    1.1189 C.3       1 RES1    0.0000
     51 H16       -2.2473    0.9038    0.6309 H         1 RES1    0.0000
     52 H17       -0.9567    0.2040    1.1725 H         1 RES1    0.0000
     53 N7         4.8463    3.7260    5.3571 N.pl3     1 RES1    0.0000
     54 C21        4.1211    2.5835   -0.9088 C.ar      1 RES1    0.0000
     55 H18        3.7881    3.0007   -1.6693 H         1 RES1    0.0000
     56 C22        2.1858    2.4915    7.6406 C.ar      1 RES1    0.0000
     57 H19        1.9467    2.5391    8.5386 H         1 RES1    0.0000
     58 C23       -2.1744    0.3449    3.2961 C.3       1 RES1    0.0000
     59 H20       -2.7251   -0.2425    2.7551 H         1 RES1    0.0000
     60 H21       -2.7166    0.6638    4.0353 H         1 RES1    0.0000
     61 C24        3.3164    3.1445    7.1992 C.ar      1 RES1    0.0000
     62 H22        3.8502    3.6294    7.7868 H         1 RES1    0.0000
     63 C25        6.0008    1.8176    0.3638 C.ar      1 RES1    0.0000
     64 H23        6.9171    1.7047    0.4732 H         1 RES1    0.0000
     65 C26        5.4870    2.4422   -0.7579 C.ar      1 RES1    0.0000
     66 H24        6.0625    2.7682   -1.4117 H         1 RES1    0.0000
     67 C27       -0.7720    4.1853    4.8264 C.2       1 RES1    0.0000
     68 H25       -0.4048    0.3511    5.5706 H         1 RES1    0.0000
     69 H26        1.0483    1.6136    1.3854 H         1 RES1    0.0000
     70 H27       -1.3716    4.5900    3.0889 H         1 RES1    0.0000
@<TRIPOS>BOND
     1    1   67 2
     2    2    9 2
     3    3   11 2
     4    4   11 1
     5    5   30 1
     6    6    8 2
     7    7    9 1
     8    8   14 2
     9    9   26 1
    10   10   13 2
    11   11   15 1
    12   12   20 1
    13   15   16 ar
    14   16   17 1
    15   18   53 2
    16   19   10 1
    17   20   21 1
    18   22   20 1
    19   23   24 1
    20   25   23 ar
    21   26   23 ar
    22   27    4 1
    23   28   27 1
    24   29   27 1
    25   30   20 1
    26   31   30 1
    27   32   30 1
    28   33   34 1
    29   35   19 ar
    30   36   35 1
    31   37    8 1
    32   38   26 ar
    33   39   38 1
    34   40   19 ar
    35   41   40 1
    36   42    7 1
    37   43   42 1
    38   44   42 1
    39   45   53 2
    40   46   33 ar
    41   47   46 1
    42   48   35 ar
    43   49   10 2
    44   50    5 1
    45   51   50 1
    46   52   50 1
    47   53   25 1
    48   54   15 ar
    49   55   54 1
    50   56   38 ar
    51   57   56 1
    52   58    5 1
    53   59   58 1
    54   60   58 1
    55   61   25 ar
    56   62   61 1
    57   63   37 ar
    58   64   63 1
    59   65   54 ar
    60   66   65 1
    61   67   12 1
    62   68    7 1
    63   69    4 1
    64   70   12 1
    65   16   37 ar
    66   27   50 1
    67   33   40 ar
    68   42   58 1
    69   46   48 ar
    70   48   67 1
    71   56   61 ar
    72   63   65 ar
@<TRIPOS>SUBSTRUCTURE
     1 RES1 1

@<TRIPOS>CRYSIN
  12.3801    8.3607   26.6980  90.0000 100.0440  90.0000  14 1

