# MOL2 file generated by ConQuest
# Please check atom types

@<TRIPOS>MOLECULE
QEKQIG
    29    32     1
SMALL
NO_CHARGES
****
Generated from CSD

@<TRIPOS>ATOM
      1 O1         3.8151    2.3146    6.5541 O.3       1 RES1    0.0000
      2 N1         5.0279    1.9102    7.2140 N.2       1 RES1    0.0000
      3 C1         5.3401    0.7648    6.7632 C.2       1 RES1    0.0000
      4 C2         3.6329    1.4591    5.3848 C.3       1 RES1    0.0000
      5 C3         4.4639    0.2264    5.6690 C.3       1 RES1    0.0000
      6 C4         5.5369   -0.2752    4.6914 C.3       1 RES1    0.0000
      7 C5         6.5651   -0.9230    5.6357 C.3       1 RES1    0.0000
      8 C6         6.5938   -0.0548    6.9427 C.3       1 RES1    0.0000
      9 H1         4.0096    2.0206    4.5915 H         1 RES1    0.0000
     10 H2         2.6950    1.2896    5.3876 H         1 RES1    0.0000
     11 H3         3.9367   -0.5382    6.0356 H         1 RES1    0.0000
     12 H4         5.9302    0.4874    4.2582 H         1 RES1    0.0000
     13 H5         5.1566   -0.8936    3.9620 H         1 RES1    0.0000
     14 H6         7.4512   -1.0256    5.2117 H         1 RES1    0.0000
     15 H7         6.2385   -1.8379    5.8597 H         1 RES1    0.0000
     16 C1A        7.8475    0.7648    7.1223 C.2       1 RES1    0.0000
     17 N1A        8.1597    1.9102    6.6715 N.2       1 RES1    0.0000
     18 O1A        9.3725    2.3146    7.3314 O.3       1 RES1    0.0000
     19 C2A        9.5548    1.4591    8.5007 C.3       1 RES1    0.0000
     20 C3A        8.7238    0.2264    8.2165 C.3       1 RES1    0.0000
     21 C4A        7.6507   -0.2752    9.1940 C.3       1 RES1    0.0000
     22 C5A        6.6225   -0.9230    8.2498 C.3       1 RES1    0.0000
     23 H6A        5.7364   -1.0256    8.6738 H         1 RES1    0.0000
     24 H7A        6.9491   -1.8379    8.0258 H         1 RES1    0.0000
     25 H4A        7.2574    0.4874    9.6273 H         1 RES1    0.0000
     26 H5A        8.0310   -0.8936    9.9235 H         1 RES1    0.0000
     27 H3A        9.2509   -0.5382    7.8499 H         1 RES1    0.0000
     28 H1A        9.1780    2.0206    9.2940 H         1 RES1    0.0000
     29 H2A       10.4926    1.2896    8.4979 H         1 RES1    0.0000
@<TRIPOS>BOND
     1    1    2 1
     2    2    3 2
     3    3    5 1
     4    4    1 1
     5    5    4 1
     6    6    5 1
     7    7    6 1
     8    8    3 1
     9    9    4 1
    10   10    4 1
    11   11    5 1
    12   12    6 1
    13   13    6 1
    14   14    7 1
    15   15    7 1
    16   16    8 1
    17   17   16 2
    18   18   17 1
    19   19   18 1
    20   20   16 1
    21   21   20 1
    22   22    8 1
    23   23   22 1
    24   24   22 1
    25   25   21 1
    26   26   21 1
    27   27   20 1
    28   28   19 1
    29   29   19 1
    30    7    8 1
    31   19   20 1
    32   21   22 1
@<TRIPOS>SUBSTRUCTURE
     1 RES1 1

@<TRIPOS>CRYSIN
  10.8600   10.1540   10.8650  90.0000 121.5700  90.0000  15 1

