# MOL2 file generated by ConQuest
# Please check atom types

@<TRIPOS>MOLECULE
QELJEZ
    33    35     1
SMALL
USER_CHARGES
****
Generated from CSD

@<TRIPOS>ATOM
      1 C1        12.1483    5.2597    3.7028 C.ar      1 RES1    0.0000
      2 H1        11.4990    4.5697    3.6242 H         1 RES1    0.0000
      3 C2        12.9998    5.2801    4.7948 C.ar      1 RES1    0.0000
      4 H2        12.9276    4.6092    5.4637 H         1 RES1    0.0000
      5 C3        13.9588    6.2768    4.9152 C.ar      1 RES1    0.0000
      6 H3        14.5374    6.2913    5.6686 H         1 RES1    0.0000
      7 C4        14.0714    7.2536    3.9310 C.ar      1 RES1    0.0000
      8 H4        14.7365    7.9278    4.0053 H         1 RES1    0.0000
      9 C5        13.2113    7.2432    2.8390 C.ar      1 RES1    0.0000
     10 H5        13.2865    7.9166    2.1737 H         1 RES1    0.0000
     11 C6        12.2355    6.2472    2.7129 C.ar      1 RES1    0.0000
     12 C7        11.2717    6.2648    1.5845 C.ar      1 RES1    0.0000
     13 C8        11.5486    6.8400    0.3436 C.ar      1 RES1    0.0000
     14 H6        12.3922    7.2403    0.1691 H         1 RES1    0.0000
     15 C9        10.5686    6.8117   -0.6184 C.ar      1 RES1    0.0000
     16 H7        10.7402    7.1886   -1.4734 H         1 RES1    0.0000
     17 C10        9.3235    6.2348   -0.3559 C.ar      1 RES1    0.0000
     18 C11        8.3541    7.0342   -2.4422 C.3       1 RES1    0.0000
     19 H8         9.1026    6.7405   -3.0204 H         1 RES1    0.0000
     20 H9         8.4633    7.9947   -2.2304 H         1 RES1    0.0000
     21 C12        7.0074    6.7592   -3.0962 C.3       1 RES1    0.0000
     22 H10        7.0329    6.9554   -4.0659 H         1 RES1    0.0000
     23 H11        6.2879    7.2941   -2.6751 H         1 RES1    0.0000
     24 C13        6.8118    5.2663   -2.8369 C.3       1 RES1    0.0000
     25 H12        7.2988    4.7248   -3.5068 H         1 RES1    0.0000
     26 H13        5.8520    5.0260   -2.8662 H         1 RES1    0.0000
     27 C14        7.3874    5.0478   -1.4353 C.3       1 RES1    0.0000
     28 H14        6.6660    5.0189   -0.7571 H         1 RES1    0.0000
     29 H15        7.9032    4.2037   -1.3928 H         1 RES1    0.0000
     30 N1        10.0803    5.7087    1.8553 N.ar      1 RES1    0.0000
     31 N2         9.1277    5.7207    0.9169 N.pl3     1 RES1    1.0000
     32 N3         8.2713    6.2230   -1.2208 N.3       1 RES1    0.0000
     33 O1         7.9773    5.2622    1.2558 O.2       1 RES1   -1.0000
@<TRIPOS>BOND
     1    1    2 1
     2    3    1 ar
     3    4    3 1
     4    5    3 ar
     5    6    5 1
     6    7    5 ar
     7    8    7 1
     8    9    7 ar
     9   10    9 1
    10   11    1 ar
    11   12   11 1
    12   13   12 ar
    13   14   13 1
    14   15   13 ar
    15   16   15 1
    16   17   15 ar
    17   18   19 1
    18   20   18 1
    19   21   18 1
    20   22   21 1
    21   23   21 1
    22   24   21 1
    23   25   24 1
    24   26   24 1
    25   27   24 1
    26   28   27 1
    27   29   27 1
    28   30   12 ar
    29   31   17 ar
    30   32   17 1
    31   33   31 1
    32    9   11 ar
    33   18   32 1
    34   27   32 1
    35   30   31 ar
@<TRIPOS>SUBSTRUCTURE
     1 RES1 1

@<TRIPOS>CRYSIN
  11.7980   10.1391   10.0913  90.0000  99.6512  90.0000  14 1

