# MOL2 file generated by ConQuest
# Please check atom types

@<TRIPOS>MOLECULE
QELQEG
    38    40     1
SMALL
NO_CHARGES
****
Generated from CSD

@<TRIPOS>ATOM
      1 O1         4.3257    4.2471    1.2423 O.2       1 RES1    0.0000
      2 O2         5.1337    6.0918    1.9847 O.2       1 RES1    0.0000
      3 O3         4.2283    8.2417    4.0431 O.2       1 RES1    0.0000
      4 N1         4.1886    5.3559    1.7497 N.pl3     1 RES1    0.0000
      5 N2         0.5084    5.8481    1.5719 N.ar      1 RES1    0.0000
      6 N3         4.2910    6.1287    4.8783 N.am      1 RES1    0.0000
      7 H1         3.9076    5.3589    4.8754 H         1 RES1    0.0000
      8 N4         1.8476    4.6085    0.2107 N.pl3     1 RES1    0.0000
      9 H2         1.1547    4.4048   -0.2562 H         1 RES1    0.0000
     10 H3         2.6200    4.3015   -0.0083 H         1 RES1    0.0000
     11 C1         2.8471    5.8169    2.0908 C.ar      1 RES1    0.0000
     12 C2         1.7227    5.4052    1.2818 C.ar      1 RES1    0.0000
     13 C3         0.3211    6.6847    2.6315 C.ar      1 RES1    0.0000
     14 C4         1.3801    7.1078    3.4774 C.ar      1 RES1    0.0000
     15 C5         2.6831    6.6433    3.1718 C.ar      1 RES1    0.0000
     16 C6         3.8331    7.0767    4.0665 C.2       1 RES1    0.0000
     17 C7         5.4241    6.3500    5.7771 C.3       1 RES1    0.0000
     18 H4         5.5224    7.3011    5.9380 H         1 RES1    0.0000
     19 H5         6.2355    6.0352    5.3497 H         1 RES1    0.0000
     20 C8         5.2518    5.6411    7.0942 C.ar      1 RES1    0.0000
     21 C9         4.3267    6.0797    8.0177 C.ar      1 RES1    0.0000
     22 H6         3.7847    6.8070    7.8122 H         1 RES1    0.0000
     23 C10        4.1905    5.4573    9.2440 C.ar      1 RES1    0.0000
     24 H7         3.5681    5.7711    9.8598 H         1 RES1    0.0000
     25 C11        4.9675    4.3883    9.5433 C.ar      1 RES1    0.0000
     26 H8         4.8797    3.9702   10.3688 H         1 RES1    0.0000
     27 C12        5.8739    3.9215    8.6467 C.ar      1 RES1    0.0000
     28 H9         6.3857    3.1730    8.8533 H         1 RES1    0.0000
     29 C13        6.0417    4.5598    7.4178 C.ar      1 RES1    0.0000
     30 H10        6.6848    4.2567    6.8189 H         1 RES1    0.0000
     31 C14        1.0920    7.9766    4.5628 C.ar      1 RES1    0.0000
     32 H11        1.7754    8.2425    5.1348 H         1 RES1    0.0000
     33 C15       -0.1731    8.4231    4.7726 C.ar      1 RES1    0.0000
     34 H12       -0.3494    8.9958    5.4835 H         1 RES1    0.0000
     35 C16       -1.2153    8.0237    3.9211 C.ar      1 RES1    0.0000
     36 H13       -2.0757    8.3448    4.0672 H         1 RES1    0.0000
     37 C17       -0.9831    7.1717    2.8824 C.ar      1 RES1    0.0000
     38 H14       -1.6875    6.9084    2.3352 H         1 RES1    0.0000
@<TRIPOS>BOND
     1    1    4 2
     2    2    4 2
     3    3   16 2
     4    4   11 1
     5    5   12 ar
     6    6    7 1
     7    8    9 1
     8   10    8 1
     9   11   12 ar
    10   12    8 1
    11   13    5 ar
    12   14   13 ar
    13   15   11 ar
    14   16    6 1
    15   17    6 1
    16   18   17 1
    17   19   17 1
    18   20   17 1
    19   21   20 ar
    20   22   21 1
    21   23   21 ar
    22   24   23 1
    23   25   23 ar
    24   26   25 1
    25   27   25 ar
    26   28   27 1
    27   29   20 ar
    28   30   29 1
    29   31   14 ar
    30   32   31 1
    31   33   31 ar
    32   34   33 1
    33   35   33 ar
    34   36   35 1
    35   37   13 ar
    36   38   37 1
    37   14   15 ar
    38   15   16 1
    39   27   29 ar
    40   35   37 ar
@<TRIPOS>SUBSTRUCTURE
     1 RES1 1

@<TRIPOS>CRYSIN
   9.4009    9.7452   16.9270  90.0000 102.4860  90.0000  14 1

