# MOL2 file generated by ConQuest
# Please check atom types

@<TRIPOS>MOLECULE
QENNEF
    49    51     1
SMALL
NO_CHARGES
****
Generated from CSD

@<TRIPOS>ATOM
      1 O1         2.3418    0.9616   11.6875 O.3       1 RES1    0.0000
      2 O2        -0.7631    1.2742   11.9587 O.3       1 RES1    0.0000
      3 O3         0.2628   -0.3200   14.3870 O.3       1 RES1    0.0000
      4 O4         3.3746   -0.6333   14.1530 O.2       1 RES1    0.0000
      5 O5        -1.3832   -2.3065   11.9891 O.3       1 RES1    0.0000
      6 O6         0.9051    2.5695   10.9907 O.3       1 RES1    0.0000
      7 N1         2.6265   -1.5709   13.9144 N.pl3     1 RES1    0.0000
      8 O7        -3.4729   -1.8129   11.2193 O.3       1 RES1    0.0000
      9 C1        -1.6324   -0.9135   12.2592 C.3       1 RES1    0.0000
     10 C2        -0.3837   -0.1190   11.9940 C.3       1 RES1    0.0000
     11 O8         2.6850   -2.6470   14.4705 O.2       1 RES1    0.0000
     12 C3         0.7457   -0.1823   13.0481 C.3       1 RES1    0.0000
     13 C4         1.6044   -1.4087   12.8279 C.3       1 RES1    0.0000
     14 C5        -2.7675   -0.5757   11.3049 C.3       1 RES1    0.0000
     15 C6         2.4246    1.6064    9.4098 C.3       1 RES1    0.0000
     16 C7        -2.0329   -3.1849    9.8563 C.3       1 RES1    0.0000
     17 C8         0.3717    2.0781   12.2009 C.3       1 RES1    0.0000
     18 C9        -0.4405    0.7986   14.9654 C.3       1 RES1    0.0000
     19 C10        1.4610    1.1613   12.7784 C.3       1 RES1    0.0000
     20 C11       -3.0694   -4.0276   11.9807 C.3       1 RES1    0.0000
     21 C12        2.2428    2.0916   10.8176 C.3       1 RES1    0.0000
     22 C13       -2.4967   -2.8425   11.2488 C.3       1 RES1    0.0000
     23 C14        3.2224    3.1582   11.2135 C.3       1 RES1    0.0000
     24 C15       -0.8547    0.3784   16.3395 C.3       1 RES1    0.0000
     25 H1        -0.0180   -0.3128   11.1229 H         1 RES1    0.0000
     26 H2        -1.8924   -0.8568   13.2004 H         1 RES1    0.0000
     27 H3         1.0604   -2.1737   12.9001 H         1 RES1    0.0000
     28 H4         2.0312   -1.3113   12.0157 H         1 RES1    0.0000
     29 H5         1.9576    1.4456   13.5602 H         1 RES1    0.0000
     30 H6        -1.3240    1.0971   16.7694 H         1 RES1    0.0000
     31 H7        -0.0817    0.1450   16.8587 H         1 RES1    0.0000
     32 H8        -1.4339   -0.3840   16.2675 H         1 RES1    0.0000
     33 H9         0.1101    2.9024   12.7549 H         1 RES1    0.0000
     34 H10       -1.2194    1.0429   14.3345 H         1 RES1    0.0000
     35 H11        0.0974    1.6323   14.9545 H         1 RES1    0.0000
     36 H12       -3.8063   -4.3835   11.4793 H         1 RES1    0.0000
     37 H13       -3.3761   -3.7490   12.8468 H         1 RES1    0.0000
     38 H14       -2.3947   -4.7028   12.0820 H         1 RES1    0.0000
     39 H15        2.3526    2.2632    8.7771 H         1 RES1    0.0000
     40 H16       -2.3803   -0.3425   10.3934 H         1 RES1    0.0000
     41 H17       -3.3567    0.1882   11.6717 H         1 RES1    0.0000
     42 H18        1.7482    1.0269    9.1510 H         1 RES1    0.0000
     43 H19        3.2129    1.1779    9.2117 H         1 RES1    0.0000
     44 H20        3.1398    3.9090   10.6205 H         1 RES1    0.0000
     45 H21        4.1151    2.8084   11.1638 H         1 RES1    0.0000
     46 H22        3.0387    3.4395   12.1128 H         1 RES1    0.0000
     47 H23       -2.7669   -3.5491    9.3565 H         1 RES1    0.0000
     48 H24       -1.3272   -3.8342    9.9075 H         1 RES1    0.0000
     49 H25       -1.7086   -2.3942    9.4191 H         1 RES1    0.0000
@<TRIPOS>BOND
     1    1   19 1
     2    2   10 1
     3    3   12 1
     4    4    7 2
     5    5    9 1
     6    6   17 1
     7    7   11 2
     8    8   14 1
     9    9   10 1
    10   10   12 1
    11   12   13 1
    12   13    7 1
    13   14    9 1
    14   15   21 1
    15   16   22 1
    16   17    2 1
    17   18    3 1
    18   19   12 1
    19   20   22 1
    20   21    1 1
    21   22    5 1
    22   23   21 1
    23   24   18 1
    24   25   10 1
    25   26    9 1
    26   27   13 1
    27   28   13 1
    28   29   19 1
    29   30   24 1
    30   31   24 1
    31   32   24 1
    32   33   17 1
    33   34   18 1
    34   35   18 1
    35   36   20 1
    36   37   20 1
    37   38   20 1
    38   39   15 1
    39   40   14 1
    40   41   14 1
    41   42   15 1
    42   43   15 1
    43   44   23 1
    44   45   23 1
    45   46   23 1
    46   47   16 1
    47   48   16 1
    48   49   16 1
    49    6   21 1
    50    8   22 1
    51   17   19 1
@<TRIPOS>SUBSTRUCTURE
     1 RES1 1

@<TRIPOS>CRYSIN
   8.0100   11.6069   18.9782  90.0000  90.0000  90.0000  19 1

