# MOL2 file generated by ConQuest
# Please check atom types

@<TRIPOS>MOLECULE
QEPBUK
    36    39     1
SMALL
NO_CHARGES
****
Generated from CSD

@<TRIPOS>ATOM
      1 O1        -1.8083    2.4837   11.3185 O.3       1 RES1    0.0000
      2 N1        -1.2685    1.6927   10.2861 N.2       1 RES1    0.0000
      3 C1        -2.5570    3.5942   10.7450 C.3       1 RES1    0.0000
      4 H1        -2.1163    4.4351   10.9884 H         1 RES1    0.0000
      5 C2        -2.4526    3.3978    9.2368 C.3       1 RES1    0.0000
      6 H2        -3.3244    3.2522    8.8363 H         1 RES1    0.0000
      7 H3        -2.0248    4.1561    8.8084 H         1 RES1    0.0000
      8 C3        -1.6075    2.1805    9.1564 C.2       1 RES1    0.0000
      9 C4        -1.1966    1.5536    7.8886 C.ar      1 RES1    0.0000
     10 N2        -1.6586    2.1506    6.7845 N.ar      1 RES1    0.0000
     11 C5        -1.2966    1.6211    5.6162 C.ar      1 RES1    0.0000
     12 H4        -1.6203    2.0163    4.8393 H         1 RES1    0.0000
     13 C6        -0.4721    0.5240    5.4885 C.ar      1 RES1    0.0000
     14 H5        -0.2285    0.2066    4.6497 H         1 RES1    0.0000
     15 C7        -0.0230   -0.0840    6.6242 C.ar      1 RES1    0.0000
     16 H6         0.5263   -0.8325    6.5740 H         1 RES1    0.0000
     17 C8        -0.3957    0.4295    7.8489 C.ar      1 RES1    0.0000
     18 H7        -0.1113    0.0247    8.6364 H         1 RES1    0.0000
     19 O1B       -4.7036    2.4837   10.7319 O.3       1 RES1    0.0000
     20 N1B       -5.2435    1.6927   11.7643 N.2       1 RES1    0.0000
     21 C1B       -3.9550    3.5942   11.3054 C.3       1 RES1    0.0000
     22 H1B       -4.3956    4.4351   11.0619 H         1 RES1    0.0000
     23 C2B       -4.0593    3.3978   12.8136 C.3       1 RES1    0.0000
     24 H2B       -3.1875    3.2522   13.2141 H         1 RES1    0.0000
     25 H3B       -4.4872    4.1561   13.2420 H         1 RES1    0.0000
     26 C3B       -4.9045    2.1805   12.8940 C.2       1 RES1    0.0000
     27 C4B       -5.3154    1.5536   14.1618 C.ar      1 RES1    0.0000
     28 N2B       -4.8533    2.1506   15.2659 N.ar      1 RES1    0.0000
     29 C5B       -5.2153    1.6211   16.4342 C.ar      1 RES1    0.0000
     30 H4B       -4.8917    2.0163   17.2111 H         1 RES1    0.0000
     31 C6B       -6.0398    0.5240   16.5619 C.ar      1 RES1    0.0000
     32 H5B       -6.2834    0.2066   17.4007 H         1 RES1    0.0000
     33 C7B       -6.4890   -0.0840   15.4262 C.ar      1 RES1    0.0000
     34 H6B       -7.0382   -0.8325   15.4764 H         1 RES1    0.0000
     35 C8B       -6.1162    0.4295   14.2015 C.ar      1 RES1    0.0000
     36 H7B       -6.4006    0.0247   13.4140 H         1 RES1    0.0000
@<TRIPOS>BOND
     1    1    2 1
     2    2    8 2
     3    3    1 1
     4    4    3 1
     5    5    3 1
     6    6    5 1
     7    7    5 1
     8    8    5 1
     9    9    8 1
    10   10    9 ar
    11   11   10 ar
    12   12   11 1
    13   13   11 ar
    14   14   13 1
    15   15   13 ar
    16   16   15 1
    17   17    9 ar
    18   18   17 1
    19   19   20 1
    20   20   26 2
    21   21    3 1
    22   22   21 1
    23   23   21 1
    24   24   23 1
    25   25   23 1
    26   26   23 1
    27   27   26 1
    28   28   27 ar
    29   29   28 ar
    30   30   29 1
    31   31   29 ar
    32   32   31 1
    33   33   31 ar
    34   34   33 1
    35   35   27 ar
    36   36   35 1
    37   15   17 ar
    38   19   21 1
    39   33   35 ar
@<TRIPOS>SUBSTRUCTURE
     1 RES1 1

@<TRIPOS>CRYSIN
  10.5593    8.8278   15.3279  90.0000 106.4530  90.0000  15 1

