# MOL2 file generated by ConQuest
# Please check atom types

@<TRIPOS>MOLECULE
QEPJIG
    29    29     1
SMALL
NO_CHARGES
****
Generated from CSD

@<TRIPOS>ATOM
      1 O1         5.5428    5.1448    1.8042 O.2       1 RES1    0.0000
      2 O2         4.0361    5.0091    3.3300 O.2       1 RES1    0.0000
      3 O3         2.9143    1.0290    3.8639 O.3       1 RES1    0.0000
      4 O4         5.0517    1.5300    3.4339 O.2       1 RES1    0.0000
      5 N1         2.7129    3.0066    1.8499 N.3       1 RES1    0.0000
      6 N2         4.5084    4.6664    2.2597 N.pl3     1 RES1    0.0000
      7 N3         3.3896    2.2257   -0.1234 N.2       1 RES1    0.0000
      8 C1         2.4788    2.1340    0.8370 C.2       1 RES1    0.0000
      9 C2         4.2512    3.1835    0.2817 C.2       1 RES1    0.0000
     10 H1         4.9993    3.4631   -0.1935 H         1 RES1    0.0000
     11 C3         3.8663    3.6759    1.4818 C.2       1 RES1    0.0000
     12 C4         1.9479    3.0854    3.0994 C.3       1 RES1    0.0000
     13 H2         1.0773    2.6790    2.9639 H         1 RES1    0.0000
     14 H3         1.8075    4.0180    3.3265 H         1 RES1    0.0000
     15 C5         2.6373    2.3958    4.2546 C.3       1 RES1    0.0000
     16 H4         3.4743    2.8579    4.4673 H         1 RES1    0.0000
     17 C6         1.7474    2.3597    5.4689 C.3       1 RES1    0.0000
     18 H5         2.2052    1.9191    6.1886 H         1 RES1    0.0000
     19 H6         0.9418    1.8813    5.2617 H         1 RES1    0.0000
     20 H7         1.5286    3.2572    5.7323 H         1 RES1    0.0000
     21 C7         4.1641    0.7275    3.4691 C.2       1 RES1    0.0000
     22 C8         4.2732   -0.7014    3.0817 C.3       1 RES1    0.0000
     23 H8         5.1730   -0.8894    2.8050 H         1 RES1    0.0000
     24 H9         3.6703   -0.8831    2.3569 H         1 RES1    0.0000
     25 H10        4.0473   -1.2545    3.8338 H         1 RES1    0.0000
     26 C9         1.3446    1.1772    0.8046 C.3       1 RES1    0.0000
     27 H11        1.3819    0.6637   -0.0061 H         1 RES1    0.0000
     28 H12        0.5163    1.6619    0.8372 H         1 RES1    0.0000
     29 H13        1.4015    0.5881    1.5604 H         1 RES1    0.0000
@<TRIPOS>BOND
     1    1    6 2
     2    2    6 2
     3    3   15 1
     4    4   21 2
     5    5    8 1
     6    6   11 1
     7    7    8 2
     8    8   26 1
     9    9    7 1
    10   10    9 1
    11   11    5 1
    12   12    5 1
    13   13   12 1
    14   14   12 1
    15   15   12 1
    16   16   15 1
    17   17   15 1
    18   18   17 1
    19   19   17 1
    20   20   17 1
    21   21    3 1
    22   22   21 1
    23   23   22 1
    24   24   22 1
    25   25   22 1
    26   26   27 1
    27   28   26 1
    28   29   26 1
    29    9   11 2
@<TRIPOS>SUBSTRUCTURE
     1 RES1 1

@<TRIPOS>CRYSIN
   6.1771    8.9928   20.3736  90.0000  90.9780  90.0000 231 1

