# MOL2 file generated by ConQuest
# Please check atom types

@<TRIPOS>MOLECULE
QEPPIN
    51    54     1
SMALL
NO_CHARGES
****
Generated from CSD

@<TRIPOS>ATOM
      1 O1         3.4876   -0.7662    4.8974 O.3       1 RES1    0.0000
      2 O2         5.0329   -2.2987    5.4390 O.2       1 RES1    0.0000
      3 O3         0.9693   -4.7039   10.4003 O.2       1 RES1    0.0000
      4 O4        -0.5828   -3.3072    9.8587 O.2       1 RES1    0.0000
      5 N1         0.5204   -3.7979    9.6988 N.pl3     1 RES1    0.0000
      6 C1         4.3652   -0.3214    3.7972 C.3       1 RES1    0.0000
      7 C2         5.5656    0.4518    4.3181 C.3       1 RES1    0.0000
      8 C3         5.3235    1.4798    5.4164 C.3       1 RES1    0.0000
      9 C4         4.0265    2.2663    5.3581 C.3       1 RES1    0.0000
     10 C5         3.5516    2.7568    3.9927 C.3       1 RES1    0.0000
     11 C6         2.7964    1.6947    3.1728 C.3       1 RES1    0.0000
     12 C7         2.2117    2.3570    1.9146 C.3       1 RES1    0.0000
     13 C8         1.4682    1.3832    1.0476 C.2       1 RES1    0.0000
     14 C9         1.5874    0.0663    1.1679 C.2       1 RES1    0.0000
     15 C10        2.5001   -0.5761    2.1497 C.3       1 RES1    0.0000
     16 C11        3.5183    0.3960    2.7609 C.3       1 RES1    0.0000
     17 C12        4.6103    3.5103    3.1803 C.3       1 RES1    0.0000
     18 C13        4.0125    4.1398    1.9409 C.3       1 RES1    0.0000
     19 C14        3.2839    3.0922    1.1002 C.3       1 RES1    0.0000
     20 C15        3.9564   -1.7890    5.6139 C.2       1 RES1    0.0000
     21 C16        3.0104   -2.2707    6.6652 C.ar      1 RES1    0.0000
     22 C17        3.3783   -3.4064    7.3837 C.ar      1 RES1    0.0000
     23 C18        2.5584   -3.9127    8.3635 C.ar      1 RES1    0.0000
     24 C19        1.3777   -3.2683    8.6231 C.ar      1 RES1    0.0000
     25 C20        0.9735   -2.1520    7.9310 C.ar      1 RES1    0.0000
     26 C21        1.8004   -1.6554    6.9398 C.ar      1 RES1    0.0000
     27 H1         4.7213   -1.1467    3.3590 H         1 RES1    0.0000
     28 H2         5.9823    0.9190    3.5527 H         1 RES1    0.0000
     29 H3         6.2261   -0.2039    4.6566 H         1 RES1    0.0000
     30 H4         5.3575    1.0100    6.2872 H         1 RES1    0.0000
     31 H5         6.0742    2.1251    5.4014 H         1 RES1    0.0000
     32 H6         4.1243    3.0562    5.9468 H         1 RES1    0.0000
     33 H7         3.3106    1.7015    5.7437 H         1 RES1    0.0000
     34 H8         2.8593    3.4480    4.2034 H         1 RES1    0.0000
     35 H9         2.0150    1.4149    3.7313 H         1 RES1    0.0000
     36 H10        1.5519    3.0427    2.2211 H         1 RES1    0.0000
     37 H11        0.8843    1.7256    0.3818 H         1 RES1    0.0000
     38 H12        1.0654   -0.4901    0.6018 H         1 RES1    0.0000
     39 H13        2.9880   -1.3109    1.7002 H         1 RES1    0.0000
     40 H14        1.9599   -0.9738    2.8775 H         1 RES1    0.0000
     41 H15        4.1408    0.6477    2.0199 H         1 RES1    0.0000
     42 H16        5.0158    4.2164    3.7426 H         1 RES1    0.0000
     43 H17        5.3280    2.8816    2.9151 H         1 RES1    0.0000
     44 H18        4.7316    4.5543    1.4011 H         1 RES1    0.0000
     45 H19        3.3777    4.8515    2.2061 H         1 RES1    0.0000
     46 H20        3.9397    2.4357    0.7560 H         1 RES1    0.0000
     47 H21        2.8582    3.5348    0.3254 H         1 RES1    0.0000
     48 H22        4.2038   -3.8359    7.1937 H         1 RES1    0.0000
     49 H23        2.8039   -4.6904    8.8506 H         1 RES1    0.0000
     50 H24        0.1445   -1.7309    8.1284 H         1 RES1    0.0000
     51 H25        1.5374   -0.8884    6.4433 H         1 RES1    0.0000
@<TRIPOS>BOND
     1    1    6 1
     2    2   20 2
     3    3    5 2
     4    4    5 2
     5    5   24 1
     6    6    7 1
     7    7    8 1
     8    8    9 1
     9    9   10 1
    10   10   11 1
    11   11   12 1
    12   12   13 1
    13   13   14 2
    14   14   15 1
    15   15   16 1
    16   16    6 1
    17   17   10 1
    18   18   17 1
    19   19   12 1
    20   20    1 1
    21   21   20 1
    22   22   21 ar
    23   23   22 ar
    24   24   23 ar
    25   25   24 ar
    26   26   21 ar
    27   27    6 1
    28   28    7 1
    29   29    7 1
    30   30    8 1
    31   31    8 1
    32   32    9 1
    33   33    9 1
    34   34   10 1
    35   35   11 1
    36   36   12 1
    37   37   13 1
    38   38   14 1
    39   39   15 1
    40   40   15 1
    41   41   16 1
    42   42   17 1
    43   43   17 1
    44   44   18 1
    45   45   18 1
    46   46   19 1
    47   47   19 1
    48   48   22 1
    49   49   23 1
    50   50   25 1
    51   51   26 1
    52   11   16 1
    53   18   19 1
    54   25   26 ar
@<TRIPOS>SUBSTRUCTURE
     1 RES1 1

@<TRIPOS>CRYSIN
   6.1817    8.2004   19.2300  97.3750  96.5550 108.8290   1 1

