# MOL2 file generated by ConQuest
# Please check atom types

@<TRIPOS>MOLECULE
QEPROU
    48    51     1
SMALL
NO_CHARGES
****
Generated from CSD

@<TRIPOS>ATOM
      1 O1         2.3007    1.1147    4.8125 O.3       1 RES1    0.0000
      2 C1         2.5510    2.3204    5.4263 C.ar      1 RES1    0.0000
      3 C2         1.1596    0.9359    3.9029 C.3       1 RES1    0.0000
      4 C3         1.1362    2.1163    2.9069 C.ar      1 RES1    0.0000
      5 C4        -0.1243    0.7081    4.7291 C.ar      1 RES1    0.0000
      6 C5         2.3506    2.4571    2.2940 C.ar      1 RES1    0.0000
      7 H1         3.1173    1.9695    2.4924 H         1 RES1    0.0000
      8 C6         2.0449    4.5424    6.1726 C.ar      1 RES1    0.0000
      9 H2         1.4468    5.2497    6.2598 H         1 RES1    0.0000
     10 C7         3.3279    4.6533    6.6633 C.ar      1 RES1    0.0000
     11 C8         1.4851   -0.3866    3.1738 C.ar      1 RES1    0.0000
     12 C9         1.2263   -0.5549    1.8242 C.ar      1 RES1    0.0000
     13 H3         0.9008    0.1600    1.3276 H         1 RES1    0.0000
     14 C10       -1.3214    0.3779    4.0890 C.ar      1 RES1    0.0000
     15 H4        -1.3512    0.3404    3.1604 H         1 RES1    0.0000
     16 C11        1.6534    3.3761    5.5524 C.ar      1 RES1    0.0000
     17 H5         0.7890    3.2947    5.2187 H         1 RES1    0.0000
     18 C12        3.8225    2.4286    5.9895 C.ar      1 RES1    0.0000
     19 H6         4.4069    1.7062    5.9512 H         1 RES1    0.0000
     20 N1         3.7504    5.9189    7.2778 N.pl3     1 RES1    0.0000
     21 C13       -1.2744    0.4693    6.8427 C.ar      1 RES1    0.0000
     22 H7        -1.2540    0.5062    7.7722 H         1 RES1    0.0000
     23 C14        1.9870   -1.4693    3.8849 C.ar      1 RES1    0.0000
     24 H8         2.1630   -1.3819    4.7932 H         1 RES1    0.0000
     25 C15       -0.1131    0.7279    6.1192 C.ar      1 RES1    0.0000
     26 H9         0.6772    0.9164    6.5701 H         1 RES1    0.0000
     27 C16        2.4212    3.5085    1.3991 C.ar      1 RES1    0.0000
     28 H10        3.2339    3.7252    1.0037 H         1 RES1    0.0000
     29 C17        0.0159    2.8682    2.6028 C.ar      1 RES1    0.0000
     30 H11       -0.7971    2.6692    3.0078 H         1 RES1    0.0000
     31 O2         2.9293    6.8119    7.4205 O.2       1 RES1    0.0000
     32 C18       -2.4668    0.1056    4.8225 C.ar      1 RES1    0.0000
     33 H12       -3.2550   -0.1164    4.3795 H         1 RES1    0.0000
     34 C19        1.2932    4.2390    1.0895 C.ar      1 RES1    0.0000
     35 H13        1.3399    4.9384    0.4781 H         1 RES1    0.0000
     36 C20        4.2179    3.5934    6.5999 C.ar      1 RES1    0.0000
     37 H14        5.0696    3.6700    6.9651 H         1 RES1    0.0000
     38 C21       -2.4504    0.1600    6.2001 C.ar      1 RES1    0.0000
     39 H15       -3.2242   -0.0102    6.6887 H         1 RES1    0.0000
     40 C22        2.2284   -2.6779    3.2547 C.ar      1 RES1    0.0000
     41 H16        2.5826   -3.3878    3.7386 H         1 RES1    0.0000
     42 O3         4.9217    6.0251    7.6109 O.2       1 RES1    0.0000
     43 C23        1.9452   -2.8360    1.9091 C.ar      1 RES1    0.0000
     44 H17        2.0933   -3.6540    1.4920 H         1 RES1    0.0000
     45 C24        1.4473   -1.7823    1.2004 C.ar      1 RES1    0.0000
     46 H18        1.2540   -1.8823    0.2967 H         1 RES1    0.0000
     47 C25        0.0967    3.9239    1.6936 C.ar      1 RES1    0.0000
     48 H19       -0.6643    4.4191    1.4937 H         1 RES1    0.0000
@<TRIPOS>BOND
     1    1    2 1
     2    2   16 ar
     3    3    1 1
     4    4    3 1
     5    5    3 1
     6    6    4 ar
     7    7    6 1
     8    8    9 1
     9   10    8 ar
    10   11    3 1
    11   12   11 ar
    12   13   12 1
    13   14    5 ar
    14   15   14 1
    15   16    8 ar
    16   17   16 1
    17   18    2 ar
    18   19   18 1
    19   20   10 1
    20   21   22 1
    21   23   11 ar
    22   24   23 1
    23   25    5 ar
    24   26   25 1
    25   27    6 ar
    26   28   27 1
    27   29    4 ar
    28   30   29 1
    29   31   20 2
    30   32   14 ar
    31   33   32 1
    32   34   27 ar
    33   35   34 1
    34   36   10 ar
    35   37   36 1
    36   38   21 ar
    37   39   38 1
    38   40   23 ar
    39   41   40 1
    40   42   20 2
    41   43   40 ar
    42   44   43 1
    43   45   12 ar
    44   46   45 1
    45   47   29 ar
    46   48   47 1
    47   18   36 ar
    48   21   25 ar
    49   32   38 ar
    50   34   47 ar
    51   43   45 ar
@<TRIPOS>SUBSTRUCTURE
     1 RES1 1

@<TRIPOS>CRYSIN
  16.2020   14.5460   16.9550  90.0000  90.0000  90.0000  61 1

