# MOL2 file generated by ConQuest
# Please check atom types

@<TRIPOS>MOLECULE
QEPVEN
    30    31     1
SMALL
NO_CHARGES
****
Generated from CSD

@<TRIPOS>ATOM
      1 C1         3.8809    6.4869   12.2101 C.ar      1 RES1    0.0000
      2 C2         2.7697    5.7754   12.6452 C.ar      1 RES1    0.0000
      3 H1         2.6182    5.6682   13.5564 H         1 RES1    0.0000
      4 C3         1.8905    5.2277   11.7398 C.ar      1 RES1    0.0000
      5 H2         1.1441    4.7486   12.0175 H         1 RES1    0.0000
      6 C4         2.1651    5.4212   10.3963 C.ar      1 RES1    0.0000
      7 C5         3.2666    6.1486    9.9664 C.ar      1 RES1    0.0000
      8 C6         4.1593    6.6945   10.8748 C.ar      1 RES1    0.0000
      9 H3         4.9064    7.1746   10.5999 H         1 RES1    0.0000
     10 C7         3.2280    6.1376    8.5000 C.2       1 RES1    0.0000
     11 C8         1.9324    5.4062    8.1259 C.3       1 RES1    0.0000
     12 C9         0.9269    6.3904    7.5577 C.3       1 RES1    0.0000
     13 H4         0.0812    5.9518    7.4403 H         1 RES1    0.0000
     14 H5         1.2395    6.7123    6.7093 H         1 RES1    0.0000
     15 H6         0.8244    7.1287    8.1619 H         1 RES1    0.0000
     16 C10        2.1451    4.2259    7.2009 C.3       1 RES1    0.0000
     17 H7         1.3188    3.7209    7.1484 H         1 RES1    0.0000
     18 H8         2.3423    4.5601    6.3123 H         1 RES1    0.0000
     19 C11        3.2479    3.2998    7.6215 C.2       1 RES1    0.0000
     20 C12        4.3482    1.2830    7.1322 C.3       1 RES1    0.0000
     21 H9         5.2267    1.6687    7.1343 H         1 RES1    0.0000
     22 H10        4.3140    0.5704    6.4898 H         1 RES1    0.0000
     23 H11        4.1484    0.9376    8.0054 H         1 RES1    0.0000
     24 N1         4.7807    7.0424   13.2215 N.pl3     1 RES1    0.0000
     25 O1         5.7836    7.6063   12.8572 O.2       1 RES1    0.0000
     26 O2         4.4739    6.9239   14.3953 O.2       1 RES1    0.0000
     27 O3         1.4062    4.9153    9.3991 O.3       1 RES1    0.0000
     28 O4         3.9885    6.6238    7.7018 O.2       1 RES1    0.0000
     29 O5         3.9254    3.4540    8.5883 O.2       1 RES1    0.0000
     30 O6         3.3775    2.2953    6.7810 O.3       1 RES1    0.0000
@<TRIPOS>BOND
     1    1    2 ar
     2    2    3 1
     3    4    2 ar
     4    5    4 1
     5    6    4 ar
     6    7    6 ar
     7    8    1 ar
     8    9    8 1
     9   10    7 1
    10   11   10 1
    11   12   11 1
    12   13   12 1
    13   14   12 1
    14   15   12 1
    15   16   11 1
    16   17   16 1
    17   18   16 1
    18   19   16 1
    19   20   21 1
    20   22   20 1
    21   23   20 1
    22   24    1 1
    23   25   24 2
    24   26   24 2
    25   27    6 1
    26   28   10 2
    27   29   19 2
    28   30   19 1
    29    7    8 ar
    30   11   27 1
    31   20   30 1
@<TRIPOS>SUBSTRUCTURE
     1 RES1 1

@<TRIPOS>CRYSIN
   6.4456   16.3915   23.3530  90.0000  90.0000  90.0000  61 1

