# MOL2 file generated by ConQuest
# Please check atom types

@<TRIPOS>MOLECULE
QEPZAO
    60    63     1
SMALL
NO_CHARGES
****
Generated from CSD

@<TRIPOS>ATOM
      1 O1         9.5992    2.8914    3.4854 O.2       1 RES1    0.0000
      2 N1         7.4207    0.7614    6.7013 N.pl3     1 RES1    0.0000
      3 O2         7.0337    3.3133    8.0167 O.2       1 RES1    0.0000
      4 O3         4.8103    1.7139    6.5419 O.2       1 RES1    0.0000
      5 O4         4.0264    2.3712    8.4558 O.2       1 RES1    0.0000
      6 N2         7.7666   -0.2347    5.8383 N.2       1 RES1    0.0000
      7 N3         4.7733    1.6905    7.7743 N.pl3     1 RES1    0.0000
      8 C1         6.8871    0.3381    7.9625 C.ar      1 RES1    0.0000
      9 O5         7.7714    4.2656    6.1546 O.3       1 RES1    0.0000
     10 C2         7.3853    3.6719    3.2496 C.ar      1 RES1    0.0000
     11 O6         6.1896   -1.9756   12.2216 O.2       1 RES1    0.0000
     12 O7         4.2944   -0.9887   11.9146 O.2       1 RES1    0.0000
     13 C3         8.1383    0.3753    4.7205 C.2       1 RES1    0.0000
     14 C4         5.6691    0.7589    8.4838 C.ar      1 RES1    0.0000
     15 N4         5.4421   -1.2555   11.5922 N.pl3     1 RES1    0.0000
     16 C5         8.3083   -0.0446    2.2617 C.ar      1 RES1    0.0000
     17 H1         7.8793    0.7639    2.0977 H         1 RES1    0.0000
     18 C6         7.5885    1.9980    6.1343 C.2       1 RES1    0.0000
     19 C7         8.5719   -0.4390    3.5674 C.ar      1 RES1    0.0000
     20 C8         7.1628   -1.1253    9.8441 C.ar      1 RES1    0.0000
     21 H2         7.6557   -1.7681   10.3018 H         1 RES1    0.0000
     22 C9         7.7399    4.7627    2.4830 C.ar      1 RES1    0.0000
     23 H3         8.6403    4.9410    2.3329 H         1 RES1    0.0000
     24 C10        7.4108    3.2436    6.8946 C.2       1 RES1    0.0000
     25 C11        9.2262   -1.6443    3.7759 C.ar      1 RES1    0.0000
     26 H4         9.4151   -1.9285    4.6405 H         1 RES1    0.0000
     27 C12        8.4389    2.8169    3.8382 C.2       1 RES1    0.0000
     28 C13        7.4882    5.6027    6.6810 C.3       1 RES1    0.0000
     29 H5         6.7777    6.0066    6.1585 H         1 RES1    0.0000
     30 H6         7.1759    5.5244    7.5964 H         1 RES1    0.0000
     31 C14        7.6246   -0.5999    8.6503 C.ar      1 RES1    0.0000
     32 H7         8.4415   -0.8821    8.3083 H         1 RES1    0.0000
     33 C15        8.0475    1.7827    4.8579 C.2       1 RES1    0.0000
     34 C16        5.1993    0.2623    9.6852 C.ar      1 RES1    0.0000
     35 H8         4.3919    0.5548   10.0424 H         1 RES1    0.0000
     36 C17        5.0802    4.2534    2.8860 C.ar      1 RES1    0.0000
     37 H9         4.1791    4.0658    3.0220 H         1 RES1    0.0000
     38 C18        5.9661   -0.6820   10.3387 C.ar      1 RES1    0.0000
     39 C19        5.4385    5.3555    2.1244 C.ar      1 RES1    0.0000
     40 C20        6.0378    3.4311    3.4466 C.ar      1 RES1    0.0000
     41 H10        5.7730    2.7043    3.9628 H         1 RES1    0.0000
     42 C21        6.7877    5.5923    1.9350 C.ar      1 RES1    0.0000
     43 H11        7.0558    6.3243    1.4290 H         1 RES1    0.0000
     44 C22        8.6833   -0.8524    1.2078 C.ar      1 RES1    0.0000
     45 H12        8.4889   -0.5806    0.3395 H         1 RES1    0.0000
     46 C23        9.3351   -2.0485    1.4023 C.ar      1 RES1    0.0000
     47 C24        9.5986   -2.4244    2.6927 C.ar      1 RES1    0.0000
     48 H13       10.0414   -3.2279    2.8466 H         1 RES1    0.0000
     49 C25        4.3770    6.2589    1.5358 C.3       1 RES1    0.0000
     50 H14        4.0954    6.8942    2.1969 H         1 RES1    0.0000
     51 H15        3.6251    5.7302    1.2586 H         1 RES1    0.0000
     52 H16        4.7374    6.7246    0.7781 H         1 RES1    0.0000
     53 C26        9.7353   -2.9184    0.2314 C.3       1 RES1    0.0000
     54 H17        9.0620   -2.8669   -0.4501 H         1 RES1    0.0000
     55 H18        9.8253   -3.8282    0.5251 H         1 RES1    0.0000
     56 H19       10.5743   -2.6125   -0.1233 H         1 RES1    0.0000
     57 C27        8.5031    6.3542    6.6517 C.3       1 RES1    0.0000
     58 H20        9.0842    6.1363    7.3840 H         1 RES1    0.0000
     59 H21        8.2257    7.2698    6.7255 H         1 RES1    0.0000
     60 H22        8.9708    6.2272    5.8228 H         1 RES1    0.0000
@<TRIPOS>BOND
     1    1   27 2
     2    2    6 1
     3    3   24 2
     4    4    7 2
     5    5    7 2
     6    6   13 2
     7    7   14 1
     8    8    2 1
     9    9   24 1
    10   10   22 ar
    11   11   15 2
    12   12   15 2
    13   13   19 1
    14   14    8 ar
    15   15   38 1
    16   16   17 1
    17   18    2 1
    18   19   16 ar
    19   20   21 1
    20   22   23 1
    21   24   18 1
    22   25   19 ar
    23   26   25 1
    24   27   10 1
    25   28    9 1
    26   29   28 1
    27   30   28 1
    28   31    8 ar
    29   32   31 1
    30   33   13 1
    31   34   14 ar
    32   35   34 1
    33   36   37 1
    34   38   20 ar
    35   39   36 ar
    36   40   10 ar
    37   41   40 1
    38   42   22 ar
    39   43   42 1
    40   44   16 ar
    41   45   44 1
    42   46   44 ar
    43   47   25 ar
    44   48   47 1
    45   49   39 1
    46   50   49 1
    47   51   49 1
    48   52   49 1
    49   53   46 1
    50   54   53 1
    51   55   53 1
    52   56   53 1
    53   57   28 1
    54   58   57 1
    55   59   57 1
    56   60   57 1
    57   18   33 2
    58   20   31 ar
    59   27   33 1
    60   34   38 ar
    61   36   40 ar
    62   39   42 ar
    63   46   47 ar
@<TRIPOS>SUBSTRUCTURE
     1 RES1 1

@<TRIPOS>CRYSIN
   9.6716   10.3003   12.7144  89.7160  89.3950  86.7080   2 1

