# MOL2 file generated by ConQuest
# Please check atom types

@<TRIPOS>MOLECULE
QERZAR
    30    32     1
SMALL
NO_CHARGES
****
Generated from CSD

@<TRIPOS>ATOM
      1 O1         3.1054    3.7758    9.7345 O.2       1 RES1    0.0000
      2 N1         7.5915    8.5102   12.1194 N.pl3     1 RES1    0.0000
      3 H1         7.5222    8.3149   11.2843 H         1 RES1    0.0000
      4 O2         3.3033    2.6512   11.5162 O.2       1 RES1    0.0000
      5 O3         7.7509    9.3767   16.0084 O.2       1 RES1    0.0000
      6 C1         8.4435    9.5226   12.4856 C.ar      1 RES1    0.0000
      7 C2         8.5544    9.8526   13.8390 C.ar      1 RES1    0.0000
      8 N2         3.5428    3.6277   10.8357 N.pl3     1 RES1    0.0000
      9 C3         4.3626    4.6839   11.4161 C.ar      1 RES1    0.0000
     10 C4         4.5731    5.8310   10.6976 C.ar      1 RES1    0.0000
     11 H2         4.1888    5.9365    9.8575 H         1 RES1    0.0000
     12 C5         5.3577    6.8254   11.2311 C.ar      1 RES1    0.0000
     13 H3         5.4947    7.6055   10.7445 H         1 RES1    0.0000
     14 C6         5.9401    6.6919   12.4552 C.ar      1 RES1    0.0000
     15 C7         6.8529    7.8042   13.0115 C.2       1 RES1    0.0000
     16 C8         9.4259   10.8706   14.2217 C.ar      1 RES1    0.0000
     17 H4         9.5030   11.0985   15.1201 H         1 RES1    0.0000
     18 C9        10.1707   11.5407   13.2852 C.ar      1 RES1    0.0000
     19 H5        10.7557   12.2142   13.5475 H         1 RES1    0.0000
     20 C10        5.7149    5.5638   13.1737 C.ar      1 RES1    0.0000
     21 H6         6.1044    5.4774   14.0138 H         1 RES1    0.0000
     22 C11        4.9078    4.5189   12.6820 C.ar      1 RES1    0.0000
     23 H7         4.7470    3.7523   13.1838 H         1 RES1    0.0000
     24 C12        7.7283    9.0995   14.7830 C.2       1 RES1    0.0000
     25 C13        6.8893    8.0870   14.3002 C.2       1 RES1    0.0000
     26 H8         6.3538    7.6100   14.8920 H         1 RES1    0.0000
     27 C14       10.0490   11.2085   11.9483 C.ar      1 RES1    0.0000
     28 H9        10.5512   11.6743   11.3185 H         1 RES1    0.0000
     29 C15        9.2124   10.2174   11.5301 C.ar      1 RES1    0.0000
     30 H10        9.1495   10.0019   10.6279 H         1 RES1    0.0000
@<TRIPOS>BOND
     1    1    8 2
     2    2    3 1
     3    4    8 2
     4    5   24 2
     5    6    2 1
     6    7    6 ar
     7    8    9 1
     8    9   10 ar
     9   10   11 1
    10   12   10 ar
    11   13   12 1
    12   14   12 ar
    13   15    2 1
    14   16    7 ar
    15   17   16 1
    16   18   16 ar
    17   19   18 1
    18   20   14 ar
    19   21   20 1
    20   22    9 ar
    21   23   22 1
    22   24    7 1
    23   25   15 2
    24   26   25 1
    25   27   18 ar
    26   28   27 1
    27   29    6 ar
    28   30   29 1
    29   14   15 1
    30   20   22 ar
    31   24   25 1
    32   27   29 ar
@<TRIPOS>SUBSTRUCTURE
     1 RES1 1

@<TRIPOS>CRYSIN
   8.6648   11.2242   12.7144  90.0000  94.6870  90.0000  14 1

