# MOL2 file generated by ConQuest
# Please check atom types

@<TRIPOS>MOLECULE
QETTEO01
    36    37     1
SMALL
NO_CHARGES
****
Generated from CSD

@<TRIPOS>ATOM
      1 O1        -4.9147    2.6291    4.8891 O.2       1 RES1    0.0000
      2 O2        -6.3517    2.8070    3.3208 O.2       1 RES1    0.0000
      3 N1        -5.2130    2.7538    3.7266 N.pl3     1 RES1    0.0000
      4 C1        -4.1097    2.8398    2.7346 C.ar      1 RES1    0.0000
      5 C2        -2.8126    2.7181    3.1553 C.ar      1 RES1    0.0000
      6 H1        -2.6125    2.5792    4.0728 H         1 RES1    0.0000
      7 C3        -1.8042    2.8013    2.2221 C.ar      1 RES1    0.0000
      8 H2        -0.9004    2.7064    2.4983 H         1 RES1    0.0000
      9 C4        -2.0925    3.0202    0.8834 C.ar      1 RES1    0.0000
     10 C5        -3.4109    3.1413    0.4923 C.ar      1 RES1    0.0000
     11 H3        -3.6169    3.2878   -0.4232 H         1 RES1    0.0000
     12 C6        -4.4388    3.0514    1.4185 C.ar      1 RES1    0.0000
     13 H4        -5.3454    3.1327    1.1493 H         1 RES1    0.0000
     14 C7        -0.9802    3.0823   -0.1013 C.2       1 RES1    0.0000
     15 C8        -1.2499    3.5168   -1.5235 C.3       1 RES1    0.0000
     16 H5        -1.5496    2.7877   -2.0331 H         1 RES1    0.0000
     17 H6        -0.4660    3.8590   -1.9191 H         1 RES1    0.0000
     18 H7        -1.9094    4.1872   -1.5396 H         1 RES1    0.0000
     19 N2         0.1663    2.7187    0.3137 N.2       1 RES1    0.0000
     20 N3         1.2022    2.7986   -0.6212 N.2       1 RES1    0.0000
     21 C9         1.9834    1.7844   -0.6660 C.2       1 RES1    0.0000
     22 C10        1.7862    0.5556    0.1572 C.3       1 RES1    0.0000
     23 H8         1.3477   -0.1144   -0.3548 H         1 RES1    0.0000
     24 H9         1.2556    0.7564    0.9200 H         1 RES1    0.0000
     25 H10        2.6267    0.2195    0.4470 H         1 RES1    0.0000
     26 C11        3.0947    1.8563   -1.6342 C.ar      1 RES1    0.0000
     27 C12        3.9973    0.8110   -1.8030 C.ar      1 RES1    0.0000
     28 H11        3.9002    0.0267   -1.2765 H         1 RES1    0.0000
     29 C13        5.0284    0.8824   -2.7128 C.ar      1 RES1    0.0000
     30 H12        5.6291    0.1526   -2.8037 H         1 RES1    0.0000
     31 C14        5.1911    1.9955   -3.4879 C.ar      1 RES1    0.0000
     32 H13        5.9047    2.0460   -4.1132 H         1 RES1    0.0000
     33 C15        4.3100    3.0377   -3.3520 C.ar      1 RES1    0.0000
     34 H14        4.4141    3.8125   -3.8905 H         1 RES1    0.0000
     35 C16        3.2723    2.9759   -2.4382 C.ar      1 RES1    0.0000
     36 H15        2.6724    3.7088   -2.3596 H         1 RES1    0.0000
@<TRIPOS>BOND
     1    1    3 2
     2    2    3 2
     3    3    4 1
     4    4    5 ar
     5    5    6 1
     6    7    5 ar
     7    8    7 1
     8    9    7 ar
     9   10    9 ar
    10   11   10 1
    11   12    4 ar
    12   13   12 1
    13   14    9 1
    14   15   14 1
    15   16   15 1
    16   17   15 1
    17   18   15 1
    18   19   14 2
    19   20   19 1
    20   21   20 2
    21   22   21 1
    22   23   22 1
    23   24   22 1
    24   25   22 1
    25   26   21 1
    26   27   26 ar
    27   28   27 1
    28   29   27 ar
    29   30   29 1
    30   31   29 ar
    31   32   31 1
    32   33   31 ar
    33   34   33 1
    34   35   26 ar
    35   36   35 1
    36   10   12 ar
    37   33   35 ar
@<TRIPOS>SUBSTRUCTURE
     1 RES1 1

@<TRIPOS>CRYSIN
   9.2694    9.4267    9.6076  76.0000  62.8900  89.8700   2 1

