# MOL2 file generated by ConQuest
# Please check atom types

@<TRIPOS>MOLECULE
QETTOB
    18    19     1
SMALL
NO_CHARGES
****
Generated from CSD

@<TRIPOS>ATOM
      1 C1         7.6704    2.5057    5.6288 C.2       1 RES1    0.0000
      2 C2         8.7587    3.2085    6.1572 C.2       1 RES1    0.0000
      3 C3        10.6932    6.0978    5.9634 C.2       1 RES1    0.0000
      4 C4         9.4571    4.4440    5.8323 C.2       1 RES1    0.0000
      5 N1         9.1591    2.5294    7.2506 N.2       1 RES1    0.0000
      6 N2         8.3273    1.5028    7.3084 N.pl3     1 RES1    0.0000
      7 H1         8.3182    0.9701    7.9351 H         1 RES1    0.0000
      8 N3         7.4060    1.4231    6.3548 N.2       1 RES1    0.0000
      9 N4         6.8502    2.8269    4.4969 N.pl3     1 RES1    0.0000
     10 N5         9.4791    5.0852    4.6550 N.pl3     1 RES1    0.0000
     11 H2         9.1215    4.9214    3.9145 H         1 RES1    0.0000
     12 N6        10.2811    6.1697    4.7283 N.2       1 RES1    0.0000
     13 N7        10.2228    5.0814    6.7068 N.2       1 RES1    0.0000
     14 N8        11.6118    7.0737    6.5188 N.pl3     1 RES1    0.0000
     15 O1         5.7541    2.2911    4.3947 O.2       1 RES1    0.0000
     16 O2         7.3102    3.6416    3.6976 O.2       1 RES1    0.0000
     17 O3        12.0951    7.8800    5.7493 O.2       1 RES1    0.0000
     18 O4        11.8502    6.9947    7.7172 O.2       1 RES1    0.0000
@<TRIPOS>BOND
     1    1    2 1
     2    2    4 1
     3    3   12 2
     4    4   10 1
     5    5    2 2
     6    6    5 1
     7    7    6 1
     8    8    1 2
     9    9    1 1
    10   10   11 1
    11   12   10 1
    12   13    3 1
    13   14    3 1
    14   15    9 2
    15   16    9 2
    16   17   14 2
    17   18   14 2
    18    4   13 2
    19    6    8 1
@<TRIPOS>SUBSTRUCTURE
     1 RES1 1

@<TRIPOS>CRYSIN
  12.9567    6.4248    9.6417  90.0000  90.0000  90.0000  29 1

