# MOL2 file generated by ConQuest
# Please check atom types

@<TRIPOS>MOLECULE
QEVFEC
    33    35     1
SMALL
NO_CHARGES
****
Generated from CSD

@<TRIPOS>ATOM
      1 O1        -0.2443    1.6171    6.4087 O.2       1 RES1    0.0000
      2 O2         0.6763    6.5158    6.3809 O.2       1 RES1    0.0000
      3 O3         2.6675    5.8238    6.9567 O.3       1 RES1    0.0000
      4 O4         7.1894    2.1538    9.0684 O.2       1 RES1    0.0000
      5 O5         5.8391    0.6674    8.4163 O.2       1 RES1    0.0000
      6 N1         1.7906    3.2098    6.9596 N.3       1 RES1    0.0000
      7 N2         6.1578    1.8292    8.5667 N.pl3     1 RES1    0.0000
      8 C1         0.9186    4.1711    6.5738 C.2       1 RES1    0.0000
      9 C2         1.3827    5.5845    6.6149 C.2       1 RES1    0.0000
     10 C3         3.0902    3.4957    7.3500 C.ar      1 RES1    0.0000
     11 C4         3.9686    2.5193    7.7675 C.ar      1 RES1    0.0000
     12 C5         5.2282    2.8826    8.1506 C.ar      1 RES1    0.0000
     13 C6         5.6683    4.1865    8.1355 C.ar      1 RES1    0.0000
     14 C7         4.7980    5.1657    7.7351 C.ar      1 RES1    0.0000
     15 C8         3.5191    4.8088    7.3430 C.ar      1 RES1    0.0000
     16 C9        -0.3472    3.9234    6.1563 C.2       1 RES1    0.0000
     17 C10       -0.8858    2.5925    6.0564 C.2       1 RES1    0.0000
     18 C11       -2.2581    2.3663    5.5043 C.ar      1 RES1    0.0000
     19 C12       -3.1076    3.4010    5.1878 C.ar      1 RES1    0.0000
     20 C13       -4.3725    3.1315    4.6756 C.ar      1 RES1    0.0000
     21 C14       -4.7784    1.8584    4.4869 C.ar      1 RES1    0.0000
     22 C15       -3.9367    0.8169    4.7839 C.ar      1 RES1    0.0000
     23 C16       -2.6720    1.0674    5.2971 C.ar      1 RES1    0.0000
     24 H1         1.4709    2.3740    6.9488 H         1 RES1    0.0000
     25 H2         3.8020    1.6403    7.7552 H         1 RES1    0.0000
     26 H3         6.4792    4.3799    8.3944 H         1 RES1    0.0000
     27 H4         4.9806    6.1665    7.7109 H         1 RES1    0.0000
     28 H5        -0.8780    4.6698    5.9510 H         1 RES1    0.0000
     29 H6        -2.8463    4.3104    5.2607 H         1 RES1    0.0000
     30 H7        -4.9520    3.8433    4.4836 H         1 RES1    0.0000
     31 H8        -5.7000    1.6863    4.0931 H         1 RES1    0.0000
     32 H9        -4.1777   -0.1269    4.7063 H         1 RES1    0.0000
     33 H10       -2.0849    0.3789    5.4238 H         1 RES1    0.0000
@<TRIPOS>BOND
     1    1   17 2
     2    2    9 2
     3    3    9 1
     4    4    7 2
     5    5    7 2
     6    6    8 1
     7    7   12 1
     8    8    9 1
     9   10    6 1
    10   11   10 ar
    11   12   11 ar
    12   13   12 ar
    13   14   13 ar
    14   15    3 1
    15   16    8 2
    16   17   16 1
    17   18   17 1
    18   19   18 ar
    19   20   19 ar
    20   21   20 ar
    21   22   21 ar
    22   23   18 ar
    23   24    6 1
    24   25   11 1
    25   26   13 1
    26   27   14 1
    27   28   16 1
    28   29   19 1
    29   30   20 1
    30   31   21 1
    31   32   22 1
    32   33   23 1
    33   10   15 ar
    34   14   15 ar
    35   22   23 ar
@<TRIPOS>SUBSTRUCTURE
     1 RES1 1

@<TRIPOS>CRYSIN
  10.1930   12.8340   10.5890  90.0000  96.7100  90.0000 231 1

