# MOL2 file generated by ConQuest
# Please check atom types

@<TRIPOS>MOLECULE
QEVVAP
    49    50     1
SMALL
NO_CHARGES
****
Generated from CSD

@<TRIPOS>ATOM
      1 O1         1.1117    0.2303   -4.1279 O.2       1 RES1    0.0000
      2 O2         2.2660   -0.5645   -5.7627 O.2       1 RES1    0.0000
      3 O3        -0.8985  -15.2271    3.6352 O.3       1 RES1    0.0000
      4 N1         1.6853   -0.6934   -4.6935 N.pl3     1 RES1    0.0000
      5 C1         0.8220   -3.4572   -2.3667 C.ar      1 RES1    0.0000
      6 H1         0.3177   -3.5877   -1.5724 H         1 RES1    0.0000
      7 C2         0.9049   -2.1959   -2.9192 C.ar      1 RES1    0.0000
      8 H2         0.4689   -1.4596   -2.5066 H         1 RES1    0.0000
      9 C3         1.6318   -2.0203   -4.0822 C.ar      1 RES1    0.0000
     10 C4         2.2947   -3.0682   -4.6985 C.ar      1 RES1    0.0000
     11 H3         2.7920   -2.9302   -5.4961 H         1 RES1    0.0000
     12 C5         2.2125   -4.3171   -4.1215 C.ar      1 RES1    0.0000
     13 H4         2.6740   -5.0422   -4.5264 H         1 RES1    0.0000
     14 C6         1.4716   -4.5502   -2.9608 C.ar      1 RES1    0.0000
     15 C7         1.4105   -5.9053   -2.4270 C.2       1 RES1    0.0000
     16 H5         1.9635   -6.5500   -2.8530 H         1 RES1    0.0000
     17 C8         0.6639   -6.3484   -1.4036 C.2       1 RES1    0.0000
     18 H6         0.1052   -5.7271   -0.9519 H         1 RES1    0.0000
     19 C9         0.6656   -7.7123   -0.9544 C.2       1 RES1    0.0000
     20 H7         1.2159   -8.3298   -1.4211 H         1 RES1    0.0000
     21 C10       -0.0563   -8.1767    0.0802 C.2       1 RES1    0.0000
     22 H8        -0.6028   -7.5568    0.5482 H         1 RES1    0.0000
     23 C11       -0.0625   -9.5402    0.5290 C.2       1 RES1    0.0000
     24 H9         0.4773  -10.1667    0.0600 H         1 RES1    0.0000
     25 C12       -0.7845   -9.9854    1.5714 C.2       1 RES1    0.0000
     26 H10       -1.3155   -9.3409    2.0239 H         1 RES1    0.0000
     27 C13       -0.8427  -11.3472    2.0836 C.ar      1 RES1    0.0000
     28 C14       -1.4444  -11.5981    3.3139 C.ar      1 RES1    0.0000
     29 H11       -1.8400  -10.8744    3.7859 H         1 RES1    0.0000
     30 C15       -1.4876  -12.8654    3.8763 C.ar      1 RES1    0.0000
     31 H12       -1.8947  -13.0007    4.7242 H         1 RES1    0.0000
     32 C16       -0.9278  -13.9364    3.1866 C.ar      1 RES1    0.0000
     33 C17       -0.3572  -13.7183    1.9389 C.ar      1 RES1    0.0000
     34 H13        0.0012  -14.4502    1.4511 H         1 RES1    0.0000
     35 C18       -0.3056  -12.4509    1.4032 C.ar      1 RES1    0.0000
     36 H14        0.1020  -12.3210    0.5551 H         1 RES1    0.0000
     37 C19       -1.4820  -15.4946    4.9169 C.3       1 RES1    0.0000
     38 H15       -2.4379  -15.2362    4.9151 H         1 RES1    0.0000
     39 H16       -1.0178  -14.9695    5.6161 H         1 RES1    0.0000
     40 C20       -1.3463  -16.9698    5.2026 C.3       1 RES1    0.0000
     41 H17       -0.3878  -17.2011    5.2901 H         1 RES1    0.0000
     42 H18       -1.7176  -17.4874    4.4446 H         1 RES1    0.0000
     43 C21       -2.0789  -17.3513    6.4833 C.3       1 RES1    0.0000
     44 H19       -1.7649  -16.7688    7.2199 H         1 RES1    0.0000
     45 H20       -3.0474  -17.1874    6.3607 H         1 RES1    0.0000
     46 C22       -1.8692  -18.8028    6.8778 C.3       1 RES1    0.0000
     47 H21       -2.2191  -19.3869    6.1725 H         1 RES1    0.0000
     48 H22       -2.3413  -18.9848    7.7177 H         1 RES1    0.0000
     49 H23       -0.9117  -18.9734    6.9976 H         1 RES1    0.0000
@<TRIPOS>BOND
     1    1    4 2
     2    2    4 2
     3    3   32 1
     4    4    9 1
     5    5    6 1
     6    7    5 ar
     7    8    7 1
     8    9    7 ar
     9   10    9 ar
    10   11   10 1
    11   12   10 ar
    12   13   12 1
    13   14    5 ar
    14   15   14 1
    15   16   15 1
    16   17   15 2
    17   18   17 1
    18   19   17 1
    19   20   19 1
    20   21   19 2
    21   22   21 1
    22   23   21 1
    23   24   23 1
    24   25   23 2
    25   26   25 1
    26   27   25 1
    27   28   27 ar
    28   29   28 1
    29   30   28 ar
    30   31   30 1
    31   32   30 ar
    32   33   32 ar
    33   34   33 1
    34   35   27 ar
    35   36   35 1
    36   37    3 1
    37   38   37 1
    38   39   37 1
    39   40   37 1
    40   41   40 1
    41   42   40 1
    42   43   40 1
    43   44   43 1
    44   45   43 1
    45   46   43 1
    46   47   46 1
    47   48   46 1
    48   49   46 1
    49   12   14 ar
    50   33   35 ar
@<TRIPOS>SUBSTRUCTURE
     1 RES1 1

@<TRIPOS>CRYSIN
   8.0445    8.5236   14.1707  74.9500  82.2640  77.3740   2 1

