# MOL2 file generated by ConQuest
# Please check atom types

@<TRIPOS>MOLECULE
QEVVIX
    18    18     1
SMALL
NO_CHARGES
****
Generated from CSD

@<TRIPOS>ATOM
      1 O1         8.2776    3.3130    2.8791 O.2       1 RES1    0.0000
      2 O2         3.5297   -0.3040    5.9143 O.2       1 RES1    0.0000
      3 O3         3.0514    1.8029    5.7952 O.2       1 RES1    0.0000
      4 N1         6.6071    2.1576    3.8922 N.am      1 RES1    0.0000
      5 N2         4.8537    3.3130    4.8156 N.pl3     1 RES1    0.0000
      6 N3         4.9416    0.9229    4.7961 N.2       1 RES1    0.0000
      7 N4         3.7821    0.8354    5.5426 N.pl3     1 RES1    0.0000
      8 C1         7.2468    3.3130    3.4944 C.2       1 RES1    0.0000
      9 C2         5.4155    2.1171    4.5225 C.2       1 RES1    0.0000
     10 H1         6.9542    1.4842    3.6880 H         1 RES1    0.0000
     11 H2         4.0896    3.3130    5.1668 H         1 RES1    0.0000
     12 O2F        3.5297    6.9300    5.9143 O.2       1 RES1    0.0000
     13 O3F        3.0514    4.8231    5.7952 O.2       1 RES1    0.0000
     14 N1F        6.6071    4.4684    3.8922 N.am      1 RES1    0.0000
     15 N3F        4.9416    5.7031    4.7961 N.2       1 RES1    0.0000
     16 N4F        3.7821    5.7906    5.5426 N.pl3     1 RES1    0.0000
     17 C2F        5.4155    4.5089    4.5225 C.2       1 RES1    0.0000
     18 H1F        6.9542    5.1418    3.6880 H         1 RES1    0.0000
@<TRIPOS>BOND
     1    1    8 2
     2    2    7 2
     3    3    7 2
     4    4    8 1
     5    5    9 1
     6    6    7 1
     7    8   14 1
     8    9    4 1
     9   10    4 1
    10   11    5 1
    11   12   16 2
    12   13   16 2
    13   14   17 1
    14   15   16 1
    15   17    5 1
    16   18   14 1
    17    6    9 2
    18   15   17 2
@<TRIPOS>SUBSTRUCTURE
     1 RES1 1

@<TRIPOS>CRYSIN
   6.1870   13.2520    8.8020  90.0000  90.0000  90.0000  62 1

