# MOL2 file generated by ConQuest
# Please check atom types

@<TRIPOS>MOLECULE
QEWWOF
    57    60     1
SMALL
NO_CHARGES
****
Generated from CSD

@<TRIPOS>ATOM
      1 O1        21.7462    5.2375   12.4669 O.2       1 RES1    0.0000
      2 O2        16.7411    5.4349    9.2191 O.3       1 RES1    0.0000
      3 O3        15.7606    3.9429    7.8560 O.2       1 RES1    0.0000
      4 O4        11.0166    4.3800    7.0012 O.2       1 RES1    0.0000
      5 O5         9.8876    5.9935    7.8882 O.2       1 RES1    0.0000
      6 O6        12.2088    9.6516    9.9718 O.2       1 RES1    0.0000
      7 O7        14.3066    9.4601   10.4595 O.2       1 RES1    0.0000
      8 N1        10.9354    5.4207    7.6309 N.pl3     1 RES1    0.0000
      9 N2        13.2735    9.0590    9.9477 N.pl3     1 RES1    0.0000
     10 C1        20.7341    5.5371   13.0402 C.2       1 RES1    0.0000
     11 C2        20.4629    5.2851   14.5168 C.3       1 RES1    0.0000
     12 C3        19.1816    6.0449   14.8210 C.3       1 RES1    0.0000
     13 C4        17.6945    4.7548   13.2573 C.3       1 RES1    0.0000
     14 C5        17.2554    4.5427   11.8075 C.3       1 RES1    0.0000
     15 C6        17.9027    4.5305    9.3635 C.3       1 RES1    0.0000
     16 C7        18.9202    4.8879    8.2969 C.3       1 RES1    0.0000
     17 C8        19.5891    6.2358    8.5474 C.3       1 RES1    0.0000
     18 C9        20.1886    6.2994    9.9504 C.3       1 RES1    0.0000
     19 C10       19.5379    6.2834   12.4480 C.3       1 RES1    0.0000
     20 C11       18.4085    6.0976   13.4878 C.3       1 RES1    0.0000
     21 C12       18.4213    4.6552   10.8066 C.3       1 RES1    0.0000
     22 C13       19.1083    6.0307   10.9955 C.3       1 RES1    0.0000
     23 C14       17.4337    7.2585   13.4905 C.3       1 RES1    0.0000
     24 C15       19.3807    3.4692   11.0089 C.3       1 RES1    0.0000
     25 C16       15.7445    4.9682    8.4791 C.2       1 RES1    0.0000
     26 C17       14.5218    5.8424    8.5448 C.ar      1 RES1    0.0000
     27 C18       13.3557    5.3134    8.0048 C.ar      1 RES1    0.0000
     28 C19       14.5149    7.0798    9.1692 C.ar      1 RES1    0.0000
     29 C20       12.1813    6.0250    8.1401 C.ar      1 RES1    0.0000
     30 C21       13.3133    7.7592    9.2455 C.ar      1 RES1    0.0000
     31 C22       12.1279    7.2604    8.7484 C.ar      1 RES1    0.0000
     32 H1        20.3974    4.3100   14.7192 H         1 RES1    0.0000
     33 H2        21.2651    5.7306   15.0140 H         1 RES1    0.0000
     34 H3        18.6414    5.6136   15.5272 H         1 RES1    0.0000
     35 H4        19.4820    6.9120   15.0850 H         1 RES1    0.0000
     36 H5        16.8987    4.7451   13.8951 H         1 RES1    0.0000
     37 H6        18.3961    4.0509   13.5467 H         1 RES1    0.0000
     38 H7        16.6399    5.1508   11.4953 H         1 RES1    0.0000
     39 H8        16.7079    3.6980   11.6963 H         1 RES1    0.0000
     40 H9        17.4605    3.6395    9.1638 H         1 RES1    0.0000
     41 H10       18.4375    4.9373    7.4742 H         1 RES1    0.0000
     42 H11       19.5573    4.2367    8.3317 H         1 RES1    0.0000
     43 H12       18.8603    6.9152    8.3545 H         1 RES1    0.0000
     44 H13       20.3272    6.3946    7.9391 H         1 RES1    0.0000
     45 H14       20.5945    7.2199   10.1178 H         1 RES1    0.0000
     46 H15       20.9461    5.6708    9.9704 H         1 RES1    0.0000
     47 H16       19.8626    7.1730   12.5967 H         1 RES1    0.0000
     48 H17       18.2793    6.6787   10.8240 H         1 RES1    0.0000
     49 H18       17.9129    8.1398   13.6874 H         1 RES1    0.0000
     50 H19       16.7548    7.1434   14.1430 H         1 RES1    0.0000
     51 H20       17.0027    7.4520   12.6423 H         1 RES1    0.0000
     52 H21       19.7350    3.3914   11.9428 H         1 RES1    0.0000
     53 H22       20.2677    3.5457   10.4823 H         1 RES1    0.0000
     54 H23       18.8268    2.6265   10.7771 H         1 RES1    0.0000
     55 H24       13.4133    4.5748    7.5210 H         1 RES1    0.0000
     56 H25       15.2907    7.4687    9.5377 H         1 RES1    0.0000
     57 H26       11.2729    7.7727    8.8154 H         1 RES1    0.0000
@<TRIPOS>BOND
     1    1   10 2
     2    2   15 1
     3    3   25 2
     4    4    8 2
     5    5    8 2
     6    6    9 2
     7    7    9 2
     8    8   29 1
     9    9   30 1
    10   10   11 1
    11   11   12 1
    12   12   20 1
    13   13   14 1
    14   14   21 1
    15   15   16 1
    16   16   17 1
    17   17   18 1
    18   18   22 1
    19   19   10 1
    20   20   13 1
    21   21   15 1
    22   22   19 1
    23   23   20 1
    24   24   21 1
    25   25    2 1
    26   26   25 1
    27   27   26 ar
    28   28   26 ar
    29   29   27 ar
    30   30   28 ar
    31   31   29 ar
    32   32   11 1
    33   33   11 1
    34   34   12 1
    35   35   12 1
    36   36   13 1
    37   37   13 1
    38   38   14 1
    39   39   14 1
    40   40   15 1
    41   41   16 1
    42   42   16 1
    43   43   17 1
    44   44   17 1
    45   45   18 1
    46   46   18 1
    47   47   19 1
    48   48   22 1
    49   49   23 1
    50   50   23 1
    51   51   23 1
    52   52   24 1
    53   53   24 1
    54   54   24 1
    55   55   27 1
    56   56   28 1
    57   57   31 1
    58   19   20 1
    59   21   22 1
    60   30   31 ar
@<TRIPOS>SUBSTRUCTURE
     1 RES1 1

@<TRIPOS>CRYSIN
  23.8000    6.4280   15.6900  90.0000 121.3500  90.0000   5 1

