# MOL2 file generated by ConQuest
# Please check atom types

@<TRIPOS>MOLECULE
QEXYOI
    60    65     1
SMALL
NO_CHARGES
****
Generated from CSD

@<TRIPOS>ATOM
      1 N1        12.8406    2.4417   10.6549 N.2       1 RES1    0.0000
      2 N2        13.3568    2.6106    7.8760 N.3       1 RES1    0.0000
      3 N3        18.9042   -2.1843    6.9935 N.pl3     1 RES1    0.0000
      4 N4        11.8920    4.2113    1.7637 N.pl3     1 RES1    0.0000
      5 O1        13.1948    0.3377    8.0907 O.3       1 RES1    0.0000
      6 O2        19.2148   -2.8997    6.1006 O.2       1 RES1    0.0000
      7 O3        19.5957   -1.9194    7.9710 O.2       1 RES1    0.0000
      8 O4        12.2700    3.7491    0.7146 O.2       1 RES1    0.0000
      9 O5        11.1454    5.1779    1.8235 O.2       1 RES1    0.0000
     10 C1        15.0442    4.3105    8.3185 C.ar      1 RES1    0.0000
     11 H1        15.2132    4.3770    7.4061 H         1 RES1    0.0000
     12 C2        15.7520    5.0977    9.1893 C.ar      1 RES1    0.0000
     13 C3        15.4650    5.0154   10.5482 C.ar      1 RES1    0.0000
     14 H2        15.9125    5.5630   11.1508 H         1 RES1    0.0000
     15 C4        14.5220    4.1311   10.9959 C.ar      1 RES1    0.0000
     16 H3        14.3667    4.0752   11.9109 H         1 RES1    0.0000
     17 C5        13.7861    3.3059   10.1356 C.ar      1 RES1    0.0000
     18 C6        12.2267    1.6440    9.8844 C.2       1 RES1    0.0000
     19 C7        12.4967    1.5533    8.3927 C.3       1 RES1    0.0000
     20 H4        11.6446    1.5649    7.9098 H         1 RES1    0.0000
     21 C8        14.0861    3.4220    8.7650 C.ar      1 RES1    0.0000
     22 C9        13.8320    0.5318    6.8360 C.3       1 RES1    0.0000
     23 H5        13.2651    0.1741    6.1201 H         1 RES1    0.0000
     24 C10       13.9795    2.0893    6.6629 C.3       1 RES1    0.0000
     25 H6        14.9322    2.3193    6.6746 H         1 RES1    0.0000
     26 C11       16.7150    6.0811    8.7272 C.3       1 RES1    0.0000
     27 H7        16.5781    6.2468    7.7914 H         1 RES1    0.0000
     28 H8        17.6025    5.7487    8.8678 H         1 RES1    0.0000
     29 H9        16.5966    6.8978    9.2179 H         1 RES1    0.0000
     30 C12       11.2079    0.7355   10.4636 C.ar      1 RES1    0.0000
     31 C13       10.7830    0.9360   11.7600 C.ar      1 RES1    0.0000
     32 H10       11.1302    1.6398   12.2598 H         1 RES1    0.0000
     33 C14        9.8422    0.0929   12.3183 C.ar      1 RES1    0.0000
     34 H11        9.5471    0.2490   13.1865 H         1 RES1    0.0000
     35 C15        9.3411   -0.9592   11.6272 C.ar      1 RES1    0.0000
     36 H12        8.7199   -1.5237   12.0307 H         1 RES1    0.0000
     37 C16        9.7398   -1.1966   10.3308 C.ar      1 RES1    0.0000
     38 H13        9.3870   -1.9089    9.8479 H         1 RES1    0.0000
     39 C17       10.7009   -0.3324    9.7503 C.ar      1 RES1    0.0000
     40 H14       10.9927   -0.4864    8.8808 H         1 RES1    0.0000
     41 C18       15.1600   -0.2037    6.8477 C.ar      1 RES1    0.0000
     42 C19       16.0123   -0.0084    7.9463 C.ar      1 RES1    0.0000
     43 H15       15.7498    0.5445    8.6478 H         1 RES1    0.0000
     44 C20       17.2475   -0.6416    7.9840 C.ar      1 RES1    0.0000
     45 H16       17.8244   -0.4970    8.6973 H         1 RES1    0.0000
     46 C21       17.5951   -1.4498    7.0000 C.ar      1 RES1    0.0000
     47 C22       16.8185   -1.6714    5.9366 C.ar      1 RES1    0.0000
     48 H17       17.0996   -2.2423    5.2585 H         1 RES1    0.0000
     49 C23       15.5390   -1.0130    5.8559 C.ar      1 RES1    0.0000
     50 H18       14.9843   -1.1502    5.1218 H         1 RES1    0.0000
     51 C24       13.3694    2.6000    5.3743 C.ar      1 RES1    0.0000
     52 C25       13.8727    2.1748    4.1612 C.ar      1 RES1    0.0000
     53 H19       14.5431    1.5311    4.1391 H         1 RES1    0.0000
     54 C26       13.3905    2.6981    2.9859 C.ar      1 RES1    0.0000
     55 H20       13.7307    2.4090    2.1698 H         1 RES1    0.0000
     56 C27       12.4027    3.6489    3.0197 C.ar      1 RES1    0.0000
     57 C28       11.9035    4.1079    4.2172 C.ar      1 RES1    0.0000
     58 H21       11.2545    4.7737    4.2367 H         1 RES1    0.0000
     59 C29       12.3798    3.5676    5.3756 C.ar      1 RES1    0.0000
     60 H22       12.0303    3.8578    6.1878 H         1 RES1    0.0000
@<TRIPOS>BOND
     1    1   17 1
     2    2   19 1
     3    3    6 2
     4    4    8 2
     5    5   19 1
     6    7    3 2
     7    9    4 2
     8   10   11 1
     9   12   10 ar
    10   13   12 ar
    11   14   13 1
    12   15   13 ar
    13   16   15 1
    14   17   15 ar
    15   18    1 2
    16   19   18 1
    17   20   19 1
    18   21    2 1
    19   22    5 1
    20   23   22 1
    21   24    2 1
    22   25   24 1
    23   26   12 1
    24   27   26 1
    25   28   26 1
    26   29   26 1
    27   30   18 1
    28   31   30 ar
    29   32   31 1
    30   33   31 ar
    31   34   33 1
    32   35   33 ar
    33   36   35 1
    34   37   35 ar
    35   38   37 1
    36   39   30 ar
    37   40   39 1
    38   41   22 1
    39   42   41 ar
    40   43   42 1
    41   44   42 ar
    42   45   44 1
    43   46    3 1
    44   47   46 ar
    45   48   47 1
    46   49   41 ar
    47   50   49 1
    48   51   24 1
    49   52   51 ar
    50   53   52 1
    51   54   52 ar
    52   55   54 1
    53   56    4 1
    54   57   56 ar
    55   58   57 1
    56   59   51 ar
    57   60   59 1
    58   10   21 ar
    59   17   21 ar
    60   22   24 1
    61   37   39 ar
    62   44   46 ar
    63   47   49 ar
    64   54   56 ar
    65   57   59 ar
@<TRIPOS>SUBSTRUCTURE
     1 RES1 1

@<TRIPOS>CRYSIN
  36.9800   10.5520   13.0160  90.0000  90.0000  90.0000  60 1

