# MOL2 file generated by ConQuest
# Please check atom types

@<TRIPOS>MOLECULE
QEYHAF
    39    41     1
SMALL
NO_CHARGES
****
Generated from CSD

@<TRIPOS>ATOM
      1 C1        13.6654    0.1853    2.3956 C.ar      1 RES1    0.0000
      2 H1        12.7869    0.4214    2.5855 H         1 RES1    0.0000
      3 C2        13.9506   -0.6661    1.3489 C.ar      1 RES1    0.0000
      4 H2        13.2578   -0.9957    0.8222 H         1 RES1    0.0000
      5 C3        15.2499   -1.0349    1.0748 C.ar      1 RES1    0.0000
      6 H3        15.4182   -1.6300    0.3797 H         1 RES1    0.0000
      7 C4        16.3141   -0.5333    1.8178 C.ar      1 RES1    0.0000
      8 H4        17.1906   -0.7821    1.6345 H         1 RES1    0.0000
      9 C5        16.0155    0.3481    2.8348 C.ar      1 RES1    0.0000
     10 C6        14.7059    0.6817    3.1567 C.ar      1 RES1    0.0000
     11 C7        14.7497    1.6052    4.3471 C.3       1 RES1    0.0000
     12 C8        13.9885    2.9108    4.1424 C.3       1 RES1    0.0000
     13 H5        14.0568    3.4488    4.9349 H         1 RES1    0.0000
     14 H6        13.0649    2.7186    3.9641 H         1 RES1    0.0000
     15 H7        14.3660    3.3870    3.3978 H         1 RES1    0.0000
     16 C9        14.2491    0.8912    5.6151 C.3       1 RES1    0.0000
     17 H8        14.2822    1.4978    6.3580 H         1 RES1    0.0000
     18 H9        14.8078    0.1322    5.7967 H         1 RES1    0.0000
     19 H10       13.3446    0.5986    5.4813 H         1 RES1    0.0000
     20 C10       16.2544    1.8141    4.4627 C.2       1 RES1    0.0000
     21 C11       16.8413    2.7954    5.3509 C.2       1 RES1    0.0000
     22 H11       16.3004    3.1850    5.9997 H         1 RES1    0.0000
     23 C12       18.1182    3.1665    5.2832 C.2       1 RES1    0.0000
     24 H12       18.6499    2.6846    4.6922 H         1 RES1    0.0000
     25 C13       18.7900    4.2349    6.0212 C.ar      1 RES1    0.0000
     26 C14       20.1821    4.3856    5.8545 C.ar      1 RES1    0.0000
     27 C15       20.8557    5.4447    6.4835 C.ar      1 RES1    0.0000
     28 H13       21.7717    5.5452    6.3630 H         1 RES1    0.0000
     29 C16       20.1697    6.3371    7.2776 C.ar      1 RES1    0.0000
     30 H14       20.6150    7.0384    7.6970 H         1 RES1    0.0000
     31 C17       18.8072    6.1680    7.4378 C.ar      1 RES1    0.0000
     32 C18       18.1165    5.1411    6.8286 C.ar      1 RES1    0.0000
     33 H15       17.2000    5.0557    6.9606 H         1 RES1    0.0000
     34 O1        16.8610    7.0366    8.3293 O.2       1 RES1    0.0000
     35 O2        18.7126    7.9706    8.8774 O.2       1 RES1    0.0000
     36 O3        20.8135    3.4961    5.0785 O.3       1 RES1    0.0000
     37 H16       21.6115    3.6808    5.0455 H         1 RES1    0.0000
     38 N1        18.0757    7.1192    8.2666 N.pl3     1 RES1    0.0000
     39 N2        16.9398    1.0667    3.6454 N.2       1 RES1    0.0000
@<TRIPOS>BOND
     1    1    2 1
     2    3    1 ar
     3    4    3 1
     4    5    3 ar
     5    6    5 1
     6    7    5 ar
     7    8    7 1
     8    9    7 ar
     9   10    1 ar
    10   11   10 1
    11   12   11 1
    12   13   12 1
    13   14   12 1
    14   15   12 1
    15   16   11 1
    16   17   16 1
    17   18   16 1
    18   19   16 1
    19   20   11 1
    20   21   20 1
    21   22   21 1
    22   23   21 2
    23   24   23 1
    24   25   23 1
    25   26   25 ar
    26   27   26 ar
    27   28   27 1
    28   29   27 ar
    29   30   29 1
    30   31   29 ar
    31   32   25 ar
    32   33   32 1
    33   34   38 2
    34   35   38 2
    35   36   26 1
    36   37   36 1
    37   38   31 1
    38   39    9 1
    39    9   10 ar
    40   20   39 2
    41   31   32 ar
@<TRIPOS>SUBSTRUCTURE
     1 RES1 1

@<TRIPOS>CRYSIN
  16.2890    5.7720   16.5270  90.0000  92.5960  90.0000 231 1

