# MOL2 file generated by ConQuest
# Please check atom types

@<TRIPOS>MOLECULE
QEYHAF01
    39    41     1
SMALL
NO_CHARGES
****
Generated from CSD

@<TRIPOS>ATOM
      1 O1        13.5052    0.6897   -0.6241 O.2       1 RES1    0.0000
      2 O2        15.3552    1.6221   -0.0775 O.2       1 RES1    0.0000
      3 O3        11.3944    5.1517    3.1766 O.3       1 RES1    0.0000
      4 H1        10.6246    4.9043    3.3087 H         1 RES1    0.0000
      5 N1        14.1356    1.5419   -0.0172 N.pl3     1 RES1    0.0000
      6 N2        15.2657    7.5822    4.6130 N.2       1 RES1    0.0000
      7 C1        18.2502    9.3133    6.9106 C.ar      1 RES1    0.0000
      8 H2        18.9400    9.6414    7.4417 H         1 RES1    0.0000
      9 C2        18.5429    8.4605    5.8584 C.ar      1 RES1    0.0000
     10 H3        19.4212    8.2252    5.6659 H         1 RES1    0.0000
     11 C3        17.4994    7.9680    5.1040 C.ar      1 RES1    0.0000
     12 C4        17.4571    7.0454    3.9054 C.3       1 RES1    0.0000
     13 C5        15.9574    6.8349    3.7947 C.2       1 RES1    0.0000
     14 C6        15.3658    5.8523    2.9065 C.2       1 RES1    0.0000
     15 H4        15.9059    5.4591    2.2598 H         1 RES1    0.0000
     16 C7        14.0902    5.4856    2.9707 C.2       1 RES1    0.0000
     17 H5        13.5580    5.9700    3.5598 H         1 RES1    0.0000
     18 C8        13.4212    4.4199    2.2360 C.ar      1 RES1    0.0000
     19 C9        14.0967    3.5106    1.4244 C.ar      1 RES1    0.0000
     20 H6        15.0141    3.5954    1.2951 H         1 RES1    0.0000
     21 C10       13.4075    2.4876    0.8131 C.ar      1 RES1    0.0000
     22 C11       12.0375    2.3216    0.9807 C.ar      1 RES1    0.0000
     23 H7        11.5914    1.6198    0.5633 H         1 RES1    0.0000
     24 C12       11.3531    3.2119    1.7743 C.ar      1 RES1    0.0000
     25 H8        10.4369    3.1133    1.8930 H         1 RES1    0.0000
     26 C13       12.0219    4.2608    2.4003 C.ar      1 RES1    0.0000
     27 C14       16.1867    8.2978    5.4182 C.ar      1 RES1    0.0000
     28 C15       16.9516    9.6806    7.1802 C.ar      1 RES1    0.0000
     29 H9        16.7813   10.2798    7.8712 H         1 RES1    0.0000
     30 C16       15.8894    9.1761    6.4418 C.ar      1 RES1    0.0000
     31 H10       15.0110    9.4200    6.6290 H         1 RES1    0.0000
     32 C17       17.9669    7.7558    2.6372 C.3       1 RES1    0.0000
     33 H11       17.4847    8.5769    2.5142 H         1 RES1    0.0000
     34 H12       17.8310    7.1878    1.8749 H         1 RES1    0.0000
     35 H13       18.9040    7.9455    2.7305 H         1 RES1    0.0000
     36 C18       18.2231    5.7399    4.1181 C.3       1 RES1    0.0000
     37 H14       19.1364    5.9371    4.3395 H         1 RES1    0.0000
     38 H15       18.1952    5.2174    3.3137 H         1 RES1    0.0000
     39 H16       17.8189    5.2457    4.8350 H         1 RES1    0.0000
@<TRIPOS>BOND
     1    1    5 2
     2    2    5 2
     3    3    4 1
     4    5   21 1
     5    6   13 2
     6    7    8 1
     7    9    7 ar
     8   10    9 1
     9   11    9 ar
    10   12   11 1
    11   13   12 1
    12   14   13 1
    13   15   14 1
    14   16   14 2
    15   17   16 1
    16   18   16 1
    17   19   18 ar
    18   20   19 1
    19   21   19 ar
    20   22   21 ar
    21   23   22 1
    22   24   22 ar
    23   25   24 1
    24   26    3 1
    25   27    6 1
    26   28    7 ar
    27   29   28 1
    28   30   27 ar
    29   31   30 1
    30   32   12 1
    31   33   32 1
    32   34   32 1
    33   35   32 1
    34   36   12 1
    35   37   36 1
    36   38   36 1
    37   39   36 1
    38   11   27 ar
    39   18   26 ar
    40   24   26 ar
    41   28   30 ar
@<TRIPOS>SUBSTRUCTURE
     1 RES1 1

@<TRIPOS>CRYSIN
  16.2990    5.7664   16.5370  90.0000  92.6920  90.0000 231 1

