# MOL2 file generated by ConQuest
# Please check atom types

@<TRIPOS>MOLECULE
QEYZOJ
    53    58     1
SMALL
NO_CHARGES
****
Generated from CSD

@<TRIPOS>ATOM
      1 N1         2.9136    0.7792    8.4589 N.3       1 RES1    0.0000
      2 O1         3.8868    1.6070    7.7160 O.3       1 RES1    0.0000
      3 C1         3.0536    2.2543    6.7401 C.3       1 RES1    0.0000
      4 H1         2.5018    2.9891    7.2106 H         1 RES1    0.0000
      5 C2         2.0934    1.1493    6.2697 C.3       1 RES1    0.0000
      6 H2         2.3579    0.7766    5.3993 H         1 RES1    0.0000
      7 C3         0.6069    1.5544    6.2406 C.3       1 RES1    0.0000
      8 H3         0.2248    1.5114    5.3332 H         1 RES1    0.0000
      9 H4         0.4833    2.4415    6.7149 H         1 RES1    0.0000
     10 N2        -0.0167    0.5023    7.0232 N.pl3     1 RES1    0.0000
     11 C4        -1.3143    0.1128    7.2338 C.ar      1 RES1    0.0000
     12 C5        -2.5153    0.6778    6.8245 C.ar      1 RES1    0.0000
     13 H5        -2.4838    1.4998    6.3184 H         1 RES1    0.0000
     14 C6        -3.6830    0.0465    7.2191 C.ar      1 RES1    0.0000
     15 H6        -4.5068    0.4651    6.9494 H         1 RES1    0.0000
     16 C7        -3.6448   -1.1219    7.9744 C.ar      1 RES1    0.0000
     17 H7        -4.5181   -1.5230    8.2068 H         1 RES1    0.0000
     18 C8        -2.4703   -1.6847    8.3681 C.ar      1 RES1    0.0000
     19 H8        -2.4389   -2.4764    8.9212 H         1 RES1    0.0000
     20 C9        -1.2531   -1.0745    8.0057 C.ar      1 RES1    0.0000
     21 C10        0.1248   -1.3574    8.2474 C.2       1 RES1    0.0000
     22 H9         0.4743   -2.0695    8.6962 H         1 RES1    0.0000
     23 C11        0.8439   -0.3751    7.6326 C.2       1 RES1    0.0000
     24 C12        2.2525    0.0456    7.3452 C.3       1 RES1    0.0000
     25 H10        2.8232   -0.6871    7.0470 H         1 RES1    0.0000
     26 C13        3.7651   -0.0256    9.3468 C.3       1 RES1    0.0000
     27 H11        4.5035   -0.3999    8.8394 H         1 RES1    0.0000
     28 C14        2.9750   -1.1684    9.9555 C.3       1 RES1    0.0000
     29 H12        2.6636   -1.8660    9.2926 H         1 RES1    0.0000
     30 H13        3.5066   -1.6044   10.6366 H         1 RES1    0.0000
     31 H14        2.1466   -0.8348   10.3281 H         1 RES1    0.0000
     32 C15        4.3281    0.8577   10.4440 C.ar      1 RES1    0.0000
     33 C16        5.6116    0.6790   10.9239 C.ar      1 RES1    0.0000
     34 H15        6.1365    0.0186   10.4902 H         1 RES1    0.0000
     35 C17        6.0713    1.4184   12.0117 C.ar      1 RES1    0.0000
     36 H16        6.9794    1.2673   12.3267 H         1 RES1    0.0000
     37 C18        5.2576    2.3322   12.6049 C.ar      1 RES1    0.0000
     38 H17        5.5858    2.8484   13.3528 H         1 RES1    0.0000
     39 C19        3.9966    2.5415   12.1248 C.ar      1 RES1    0.0000
     40 H18        3.4391    3.2554   12.5455 H         1 RES1    0.0000
     41 C20        3.5257    1.8114   11.0520 C.ar      1 RES1    0.0000
     42 H19        2.5625    1.9346   10.7467 H         1 RES1    0.0000
     43 C21        3.9381    2.8524    5.6771 C.ar      1 RES1    0.0000
     44 C22        4.8766    2.1044    5.0015 C.ar      1 RES1    0.0000
     45 H20        4.9789    1.0998    5.2168 H         1 RES1    0.0000
     46 C23        5.6330    2.6554    3.9811 C.ar      1 RES1    0.0000
     47 H21        6.2826    2.1044    3.5660 H         1 RES1    0.0000
     48 C24        5.4622    3.9518    3.6311 C.ar      1 RES1    0.0000
     49 H22        5.9904    4.4412    2.9428 H         1 RES1    0.0000
     50 C25        4.5495    4.7075    4.2852 C.ar      1 RES1    0.0000
     51 H23        4.3944    5.6388    4.0444 H         1 RES1    0.0000
     52 C26        3.7977    4.1738    5.3271 C.ar      1 RES1    0.0000
     53 H24        3.1357    4.7017    5.8227 H         1 RES1    0.0000
@<TRIPOS>BOND
     1    1    2 1
     2    2    3 1
     3    3    4 1
     4    5    3 1
     5    6    5 1
     6    7    5 1
     7    8    7 1
     8    9    7 1
     9   10    7 1
    10   11   10 1
    11   12   11 ar
    12   13   12 1
    13   14   12 ar
    14   15   14 1
    15   16   14 ar
    16   17   16 1
    17   18   16 ar
    18   19   18 1
    19   20   11 ar
    20   21   20 1
    21   22   21 1
    22   23   10 1
    23   24    1 1
    24   25   24 1
    25   26    1 1
    26   27   26 1
    27   28   26 1
    28   29   28 1
    29   30   28 1
    30   31   28 1
    31   32   26 1
    32   33   32 ar
    33   34   33 1
    34   35   33 ar
    35   36   35 1
    36   37   35 ar
    37   38   37 1
    38   39   37 ar
    39   40   39 1
    40   41   32 ar
    41   42   41 1
    42   43    3 1
    43   44   43 ar
    44   45   44 1
    45   46   44 ar
    46   47   46 1
    47   48   46 ar
    48   49   48 1
    49   50   48 ar
    50   51   50 1
    51   52   43 ar
    52   53   52 1
    53    5   24 1
    54   18   20 ar
    55   21   23 2
    56   23   24 1
    57   39   41 ar
    58   50   52 ar
@<TRIPOS>SUBSTRUCTURE
     1 RES1 1

@<TRIPOS>CRYSIN
  11.2390   11.6263   15.7369  90.0000  90.0000  90.0000  19 1

