# MOL2 file generated by ConQuest
# Please check atom types

@<TRIPOS>MOLECULE
QEZFAC
    67    71     1
SMALL
NO_CHARGES
****
Generated from CSD

@<TRIPOS>ATOM
      1 C1        12.1862    4.0383   20.6862 C.3       1 RES1    0.0000
      2 H1        12.8101    4.0753   19.9313 H         1 RES1    0.0000
      3 C2        10.8529    3.4115   20.3738 C.3       1 RES1    0.0000
      4 H2        10.6741    2.7179   21.0293 H         1 RES1    0.0000
      5 H3        10.9022    2.9890   19.5030 H         1 RES1    0.0000
      6 C3         9.6872    4.4014   20.3767 C.3       1 RES1    0.0000
      7 C4         9.6704    5.1648   21.7011 C.2       1 RES1    0.0000
      8 C5        10.9451    5.7599   22.1959 C.3       1 RES1    0.0000
      9 H4        10.9842    5.6296   23.1566 H         1 RES1    0.0000
     10 H5        10.9097    6.7170   22.0374 H         1 RES1    0.0000
     11 C6        12.2235    5.2389   21.6043 C.3       1 RES1    0.0000
     12 H6        12.8687    5.9314   21.3488 H         1 RES1    0.0000
     13 C7        12.8334    3.9472   22.0397 C.3       1 RES1    0.0000
     14 C8        12.1909    3.1372   23.1093 C.3       1 RES1    0.0000
     15 H7        12.7077    2.3442   23.2631 H         1 RES1    0.0000
     16 H8        11.3036    2.8926   22.8348 H         1 RES1    0.0000
     17 H9        12.1453    3.6539   23.9162 H         1 RES1    0.0000
     18 C9        14.3669    3.9049   22.0468 C.3       1 RES1    0.0000
     19 H10       14.7049    4.4491   21.3298 H         1 RES1    0.0000
     20 H11       14.6630    2.9996   21.9261 H         1 RES1    0.0000
     21 H12       14.6928    4.2416   22.8845 H         1 RES1    0.0000
     22 C10        8.3892    3.6391   20.1277 C.3       1 RES1    0.0000
     23 H13        8.4451    3.1775   19.2877 H         1 RES1    0.0000
     24 H14        7.6546    4.2564   20.1041 H         1 RES1    0.0000
     25 H15        8.2505    3.0038   20.8329 H         1 RES1    0.0000
     26 C11        8.9367    6.4216   19.0747 C.3       1 RES1    0.0000
     27 H16        8.1779    6.2522   19.6521 H         1 RES1    0.0000
     28 H17        8.6164    6.3877   18.1590 H         1 RES1    0.0000
     29 C12        7.4004    6.7022   23.7198 C.3       1 RES1    0.0000
     30 H18        7.5009    7.3438   24.4391 H         1 RES1    0.0000
     31 H19        6.8687    5.9632   24.0534 H         1 RES1    0.0000
     32 N1         9.9106    5.3416   19.2629 N.3       1 RES1    0.0000
     33 H20       10.6974    5.6847   19.3563 H         1 RES1    0.0000
     34 N2         8.5279    5.3501   22.2293 N.2       1 RES1    0.0000
     35 O1         8.6713    6.2236   23.3521 O.3       1 RES1    0.0000
     36 C13        5.8864   10.1825   18.7198 C.3       1 RES1    0.0000
     37 H21        5.9711   10.3000   17.7520 H         1 RES1    0.0000
     38 C14        7.0317   10.7320   19.5149 C.3       1 RES1    0.0000
     39 H22        6.6797   11.2910   20.2248 H         1 RES1    0.0000
     40 H23        7.5717   11.2932   18.9375 H         1 RES1    0.0000
     41 C15        7.9339    9.6446   20.1396 C.3       1 RES1    0.0000
     42 C16        7.0717    8.7076   20.9560 C.2       1 RES1    0.0000
     43 C17        5.7952    8.1686   20.3738 C.3       1 RES1    0.0000
     44 H24        5.1080    8.2078   21.0553 H         1 RES1    0.0000
     45 H25        5.9320    7.2337   20.1514 H         1 RES1    0.0000
     46 C18        5.2784    8.8759   19.1386 C.3       1 RES1    0.0000
     47 H26        5.0326    8.2819   18.4003 H         1 RES1    0.0000
     48 C19        4.4711   10.1444   19.2238 C.3       1 RES1    0.0000
     49 C20        4.1071   10.7341   20.5466 C.3       1 RES1    0.0000
     50 H27        3.1667   10.6176   20.7004 H         1 RES1    0.0000
     51 H28        4.3175   11.6701   20.5489 H         1 RES1    0.0000
     52 H29        4.6015   10.2926   21.2399 H         1 RES1    0.0000
     53 C21        3.3957   10.3318   18.1897 C.3       1 RES1    0.0000
     54 H30        3.6769    9.9368   17.3592 H         1 RES1    0.0000
     55 H31        3.2374   11.2699   18.0572 H         1 RES1    0.0000
     56 H32        2.5875    9.9083   18.4855 H         1 RES1    0.0000
     57 C22        9.0261   10.3244   20.9536 C.3       1 RES1    0.0000
     58 H33        9.5373   10.9035   20.3833 H         1 RES1    0.0000
     59 H34        9.6034    9.6573   21.3322 H         1 RES1    0.0000
     60 H35        8.6257   10.8400   21.6587 H         1 RES1    0.0000
     61 C23        9.4348    7.7981   19.3445 C.3       1 RES1    0.0000
     62 H36        9.6713    7.8690   20.2816 H         1 RES1    0.0000
     63 H37       10.2393    7.9505   18.8239 H         1 RES1    0.0000
     64 N3         8.4628    8.8325   19.0234 N.3       1 RES1    0.0000
     65 H38        8.7160    9.3492   18.3365 H         1 RES1    0.0000
     66 N4         7.5438    8.3349   22.0792 N.2       1 RES1    0.0000
     67 O2         6.7114    7.3174   22.6462 O.3       1 RES1    0.0000
@<TRIPOS>BOND
     1    1    2 1
     2    3    1 1
     3    4    3 1
     4    5    3 1
     5    6    3 1
     6    7    6 1
     7    8    7 1
     8    9    8 1
     9   10    8 1
    10   11    1 1
    11   12   11 1
    12   13    1 1
    13   14   13 1
    14   15   14 1
    15   16   14 1
    16   17   14 1
    17   18   13 1
    18   19   18 1
    19   20   18 1
    20   21   18 1
    21   22    6 1
    22   23   22 1
    23   24   22 1
    24   25   22 1
    25   26   27 1
    26   28   26 1
    27   29   30 1
    28   31   29 1
    29   32    6 1
    30   33   32 1
    31   34    7 2
    32   35   29 1
    33   36   37 1
    34   38   36 1
    35   39   38 1
    36   40   38 1
    37   41   38 1
    38   42   41 1
    39   43   42 1
    40   44   43 1
    41   45   43 1
    42   46   36 1
    43   47   46 1
    44   48   36 1
    45   49   48 1
    46   50   49 1
    47   51   49 1
    48   52   49 1
    49   53   48 1
    50   54   53 1
    51   55   53 1
    52   56   53 1
    53   57   41 1
    54   58   57 1
    55   59   57 1
    56   60   57 1
    57   61   26 1
    58   62   61 1
    59   63   61 1
    60   64   41 1
    61   65   64 1
    62   66   42 2
    63   67   29 1
    64    8   11 1
    65   11   13 1
    66   26   32 1
    67   34   35 1
    68   43   46 1
    69   46   48 1
    70   61   64 1
    71   66   67 1
@<TRIPOS>SUBSTRUCTURE
     1 RES1 1

@<TRIPOS>CRYSIN
   9.3110   10.5880   23.6630  90.0000  90.0000  90.0000  19 1

