# MOL2 file generated by ConQuest
# Please check atom types

@<TRIPOS>MOLECULE
QEZGEJ
    58    63     1
SMALL
NO_CHARGES
****
Generated from CSD

@<TRIPOS>ATOM
      1 O1        -3.9470   22.9211    3.5290 O.3       1 RES1    0.0000
      2 H1        -4.5464   23.4256    3.7708 H         1 RES1    0.0000
      3 O2       -11.5817   22.1407    9.7698 O.2       1 RES1    0.0000
      4 N1       -11.1965   22.7425    8.7690 N.pl3     1 RES1    0.0000
      5 O3        -6.2092   19.5042    8.3337 O.2       1 RES1    0.0000
      6 N2        -6.5013   21.0170    6.2258 N.pl3     1 RES1    0.0000
      7 H2        -6.0406   20.3719    6.5603 H         1 RES1    0.0000
      8 O4        -7.7236   19.4590    9.8686 O.2       1 RES1    0.0000
      9 N3        -6.0949   21.6046    5.0396 N.2       1 RES1    0.0000
     10 O5       -11.8076   23.6831    8.2680 O.2       1 RES1    0.0000
     11 C1        -3.8298   19.9616    1.4940 C.3       1 RES1    0.0000
     12 H3        -3.0991   19.9698    0.8406 H         1 RES1    0.0000
     13 N4        -7.2839   19.8934    8.8181 N.pl3     1 RES1    0.0000
     14 C2        -3.3092   17.7546    2.5328 C.2       1 RES1    0.0000
     15 H4        -3.1071   16.8768    2.2988 H         1 RES1    0.0000
     16 C3        -7.6183   21.4468    6.8640 C.ar      1 RES1    0.0000
     17 C4        -0.7544   16.7566    3.6398 C.ar      1 RES1    0.0000
     18 H5        -0.8494   16.6506    2.7211 H         1 RES1    0.0000
     19 C5        -8.0441   20.9119    8.1108 C.ar      1 RES1    0.0000
     20 C6        -3.3735   20.6586    2.8000 C.3       1 RES1    0.0000
     21 H6        -2.5609   21.1741    2.6175 H         1 RES1    0.0000
     22 C7        -8.4453   22.4397    6.2839 C.ar      1 RES1    0.0000
     23 H7        -8.2039   22.8104    5.4656 H         1 RES1    0.0000
     24 C8        -9.2140   21.3340    8.7244 C.ar      1 RES1    0.0000
     25 H8        -9.4825   20.9647    9.5355 H         1 RES1    0.0000
     26 C9        -2.7019   18.3087    3.5855 C.2       1 RES1    0.0000
     27 C10       -5.4032   21.6959    1.9867 C.ar      1 RES1    0.0000
     28 C11       -9.5885   22.8678    6.8971 C.ar      1 RES1    0.0000
     29 H9       -10.1103   23.5303    6.5055 H         1 RES1    0.0000
     30 C12       -1.6421   17.5946    4.3326 C.ar      1 RES1    0.0000
     31 C13       -9.9682   22.3027    8.1192 C.ar      1 RES1    0.0000
     32 C14       -4.5066   21.6334    3.2012 C.3       1 RES1    0.0000
     33 C15       -0.4475   17.0494    6.3742 C.ar      1 RES1    0.0000
     34 H10       -0.3483   17.1424    7.2933 H         1 RES1    0.0000
     35 C16        0.2612   16.0858    4.3023 C.ar      1 RES1    0.0000
     36 H11        0.8360   15.5304    3.8275 H         1 RES1    0.0000
     37 C17       -6.4979   22.5250    1.7675 C.ar      1 RES1    0.0000
     38 H12       -6.8011   23.0965    2.4357 H         1 RES1    0.0000
     39 C18       -4.4107   19.7456    4.8418 C.3       1 RES1    0.0000
     40 H13       -4.9617   18.9731    4.6426 H         1 RES1    0.0000
     41 H14       -4.2049   19.7454    5.7901 H         1 RES1    0.0000
     42 C19       -5.1228   21.0137    4.4567 C.2       1 RES1    0.0000
     43 C20       -4.3071   18.5176    1.7247 C.3       1 RES1    0.0000
     44 H15       -5.1590   18.5281    2.1874 H         1 RES1    0.0000
     45 H16       -4.4350   18.0774    0.8699 H         1 RES1    0.0000
     46 C21       -3.1076   19.7140    4.0026 C.3       1 RES1    0.0000
     47 H17       -2.3843   20.0970    4.5410 H         1 RES1    0.0000
     48 C22       -4.9611   20.8211    1.0016 C.ar      1 RES1    0.0000
     49 C23       -6.6720   21.6261   -0.4621 C.ar      1 RES1    0.0000
     50 H18       -7.0939   21.6192   -1.2902 H         1 RES1    0.0000
     51 C24       -1.4692   17.7268    5.7142 C.ar      1 RES1    0.0000
     52 H19       -2.0446   18.2737    6.1986 H         1 RES1    0.0000
     53 C25        0.4226   16.2375    5.6626 C.ar      1 RES1    0.0000
     54 H20        1.1130   15.7960    6.1029 H         1 RES1    0.0000
     55 C26       -7.1299   22.4809    0.5297 C.ar      1 RES1    0.0000
     56 H21       -7.8636   23.0273    0.3655 H         1 RES1    0.0000
     57 C27       -5.5961   20.7833   -0.2356 C.ar      1 RES1    0.0000
     58 H22       -5.3033   20.2017   -0.8992 H         1 RES1    0.0000
@<TRIPOS>BOND
     1    1    2 1
     2    3    4 2
     3    4   10 2
     4    5   13 2
     5    6    7 1
     6    8   13 2
     7    9    6 1
     8   11   12 1
     9   13   19 1
    10   14   15 1
    11   16    6 1
    12   17   18 1
    13   19   16 ar
    14   20   11 1
    15   21   20 1
    16   22   16 ar
    17   23   22 1
    18   24   19 ar
    19   25   24 1
    20   26   14 2
    21   27   32 1
    22   28   22 ar
    23   29   28 1
    24   30   17 ar
    25   31    4 1
    26   32    1 1
    27   33   34 1
    28   35   17 ar
    29   36   35 1
    30   37   27 ar
    31   38   37 1
    32   39   40 1
    33   41   39 1
    34   42    9 2
    35   43   11 1
    36   44   43 1
    37   45   43 1
    38   46   20 1
    39   47   46 1
    40   48   11 1
    41   49   50 1
    42   51   30 ar
    43   52   51 1
    44   53   33 ar
    45   54   53 1
    46   55   37 ar
    47   56   55 1
    48   57   48 ar
    49   58   57 1
    50   14   43 1
    51   20   32 1
    52   24   31 ar
    53   26   30 1
    54   26   46 1
    55   27   48 ar
    56   28   31 ar
    57   32   42 1
    58   33   51 ar
    59   35   53 ar
    60   39   42 1
    61   39   46 1
    62   49   55 ar
    63   49   57 ar
@<TRIPOS>SUBSTRUCTURE
     1 RES1 1

@<TRIPOS>CRYSIN
   6.0887   18.7001   19.5479  90.0000  90.0000  90.0000  19 1

