# MOL2 file generated by ConQuest
# Please check atom types

@<TRIPOS>MOLECULE
QIBJEQ
    28    28     1
SMALL
NO_CHARGES
****
Generated from CSD

@<TRIPOS>ATOM
      1 N1         1.8846    1.1887    3.6795 N.pl3     1 RES1    0.0000
      2 O1         7.2220    2.3400    5.7186 O.2       1 RES1    0.0000
      3 O2         6.8188   -0.0718    6.6517 O.3       1 RES1    0.0000
      4 O3         1.1226    0.2592    3.8547 O.2       1 RES1    0.0000
      5 O4         1.6653    2.1076    2.9053 O.2       1 RES1    0.0000
      6 O5         6.5739    1.2701    8.4169 O.2       1 RES1    0.0000
      7 C1         6.0952    1.8955    5.5124 C.2       1 RES1    0.0000
      8 C2         5.7592    0.5547    6.0022 C.2       1 RES1    0.0000
      9 C3         4.6572   -0.1896    5.8359 C.2       1 RES1    0.0000
     10 H1         4.6682   -1.0142    6.2654 H         1 RES1    0.0000
     11 C4         3.4809    0.0942    5.1024 C.2       1 RES1    0.0000
     12 H2         2.8403   -0.5794    5.0870 H         1 RES1    0.0000
     13 C5         3.1726    1.2080    4.4301 C.2       1 RES1    0.0000
     14 C6         3.9106    2.3999    4.3193 C.2       1 RES1    0.0000
     15 H3         3.4919    3.0810    3.8458 H         1 RES1    0.0000
     16 C7         5.1315    2.6998    4.7936 C.2       1 RES1    0.0000
     17 H4         5.4028    3.5747    4.6330 H         1 RES1    0.0000
     18 C8         7.2231    0.4744    7.8407 C.2       1 RES1    0.0000
     19 C9         8.5145   -0.1328    8.2938 C.3       1 RES1    0.0000
     20 H5         8.3205   -0.9285    8.8146 H         1 RES1    0.0000
     21 H6         9.0218   -0.4080    7.5147 H         1 RES1    0.0000
     22 C10        9.3499    0.7850    9.1112 C.3       1 RES1    0.0000
     23 H7         8.8185    1.1191    9.8504 H         1 RES1    0.0000
     24 H8        10.0929    0.2859    9.4837 H         1 RES1    0.0000
     25 C11        9.8757    1.9277    8.3460 C.3       1 RES1    0.0000
     26 H9        10.3999    2.4856    8.9246 H         1 RES1    0.0000
     27 H10        9.1449    2.4363    7.9874 H         1 RES1    0.0000
     28 H11       10.4254    1.6064    7.6280 H         1 RES1    0.0000
@<TRIPOS>BOND
     1    1    4 2
     2    2    7 2
     3    3    8 1
     4    5    1 2
     5    6   18 2
     6    7    8 1
     7    8    9 2
     8    9   10 1
     9   11    9 1
    10   12   11 1
    11   13    1 1
    12   14   13 1
    13   15   14 1
    14   16    7 1
    15   17   16 1
    16   18    3 1
    17   19   18 1
    18   20   19 1
    19   21   19 1
    20   22   19 1
    21   23   22 1
    22   24   22 1
    23   25   22 1
    24   26   25 1
    25   27   25 1
    26   28   25 1
    27   11   13 2
    28   14   16 2
@<TRIPOS>SUBSTRUCTURE
     1 RES1 1

@<TRIPOS>CRYSIN
  12.8585   10.7092    8.3657  90.0000 103.0520  90.0000  14 2

