# MOL2 file generated by ConQuest
# Please check atom types

@<TRIPOS>MOLECULE
QIBNEV
    71    64     2
SMALL
NO_CHARGES
****
Generated from CSD

@<TRIPOS>ATOM
      1 C1        -3.8664    0.4228   12.6075 C.3       1 RES1    0.0000
      2 H1        -3.2957   -0.2564   12.1906 H         1 RES1    0.0000
      3 C2        -3.3276    1.8065   12.3049 C.2       1 RES1    0.0000
      4 C3        -4.1730    2.8513   12.9624 C.3       1 RES1    0.0000
      5 H2        -3.8206    3.7413   12.7516 H         1 RES1    0.0000
      6 C4        -4.1948    2.6542   14.4584 C.3       1 RES1    0.0000
      7 H3        -4.7570    3.3291   14.8705 H         1 RES1    0.0000
      8 H4        -3.2967    2.7453   14.8157 H         1 RES1    0.0000
      9 C5        -4.7355    1.2747   14.7693 C.3       1 RES1    0.0000
     10 H5        -4.7350    1.1411   15.7400 H         1 RES1    0.0000
     11 C6        -6.1611    1.1539   14.2488 C.3       1 RES1    0.0000
     12 H6        -6.5130    0.2723   14.4513 H         1 RES1    0.0000
     13 H7        -6.7258    1.8140   14.6788 H         1 RES1    0.0000
     14 C7        -6.1594    1.3742   12.7587 C.3       1 RES1    0.0000
     15 H8        -7.0747    1.2990   12.4157 H         1 RES1    0.0000
     16 C8        -5.2709    0.2977   12.0953 C.3       1 RES1    0.0000
     17 H9        -5.6180   -0.5849   12.2990 H         1 RES1    0.0000
     18 H10       -5.2800    0.4122   11.1317 H         1 RES1    0.0000
     19 C9        -3.8666    0.2426   14.1344 C.3       1 RES1    0.0000
     20 H11       -4.1949   -0.6421   14.3595 H         1 RES1    0.0000
     21 H12       -2.9627    0.3253   14.4739 H         1 RES1    0.0000
     22 C10       -5.6092    2.7199   12.4241 C.3       1 RES1    0.0000
     23 H13       -6.1705    3.4075   12.8171 H         1 RES1    0.0000
     24 H14       -5.6102    2.8428   11.4629 H         1 RES1    0.0000
     25 C11       -2.2031    2.0471   11.6308 C.2       1 RES1    0.0000
     26 C12       -1.3797    1.1401   10.8578 C.2       1 RES1    0.0000
     27 H15       -1.5153    0.2204   10.8244 H         1 RES1    0.0000
     28 C13       -0.4163    1.7684   10.2063 C.2       1 RES1    0.0000
     29 H16        0.1685    1.3562    9.6107 H         1 RES1    0.0000
     30 C14       -0.3818    3.2179   10.5422 C.3       1 RES1    0.0000
     31 H17       -0.4712    3.7869    9.7489 H         1 RES1    0.0000
     32 C15       -1.5425    3.3959   11.5177 C.3       1 RES1    0.0000
     33 H18       -2.1705    4.0835   11.2127 H         1 RES1    0.0000
     34 O1        -0.9201    3.7583   12.7659 O.3       1 RES1    0.0000
     35 N1         0.4666    3.8685   12.5968 N.2       1 RES1    0.0000
     36 C16        0.7805    3.6089   11.3938 C.2       1 RES1    0.0000
     37 C17        2.1873    3.6873   10.9531 C.ar      1 RES1    0.0000
     38 C18        2.5359    3.5230    9.6286 C.ar      1 RES1    0.0000
     39 H19        1.8693    3.3832    8.9962 H         1 RES1    0.0000
     40 C19        3.8597    3.5601    9.2201 C.ar      1 RES1    0.0000
     41 H20        4.0574    3.4404    8.3184 H         1 RES1    0.0000
     42 C20        4.8872    3.7710   10.1086 C.ar      1 RES1    0.0000
     43 C21        4.5234    3.9702   11.4331 C.ar      1 RES1    0.0000
     44 H21        5.1885    4.1408   12.0608 H         1 RES1    0.0000
     45 C22        3.2207    3.9236   11.8476 C.ar      1 RES1    0.0000
     46 H22        3.0231    4.0528   12.7480 H         1 RES1    0.0000
     47 C23        6.3570    3.7731    9.6905 C.3       1 RES1    0.0000
     48 C24        6.5490    3.1416    8.2970 C.3       1 RES1    0.0000
     49 H23        6.1758    2.2579    8.2910 H         1 RES1    0.0000
     50 H24        7.4860    3.0939    8.0945 H         1 RES1    0.0000
     51 H25        6.1069    3.6809    7.6371 H         1 RES1    0.0000
     52 C25        7.1726    2.8820   10.6196 C.3       1 RES1    0.0000
     53 H26        6.7759    2.0089   10.6553 H         1 RES1    0.0000
     54 H27        7.1842    3.2645   11.4998 H         1 RES1    0.0000
     55 H28        8.0713    2.8121   10.2885 H         1 RES1    0.0000
     56 C26        6.8647    5.1812    9.6489 C.3       1 RES1    0.0000
     57 H29        6.4060    5.6665    8.9580 H         1 RES1    0.0000
     58 H30        7.8074    5.1770    9.4642 H         1 RES1    0.0000
     59 H31        6.7060    5.6040   10.4957 H         1 RES1    0.0000
     60 C27        6.8311    2.3893    9.4571 Du        2 SUP2    0.0000
     61 H32        6.2770    1.9708    8.7901 Du        2 SUP2    0.0000
     62 H33        6.7830    1.8892   10.2718 Du        2 SUP2    0.0000
     63 H34        7.7388    2.4105    9.1438 Du        2 SUP2    0.0000
     64 C28        7.2314    4.5349   10.7697 Du        2 SUP2    0.0000
     65 H35        7.3965    3.9564   11.5177 Du        2 SUP2    0.0000
     66 H36        6.7607    5.3179   11.0686 Du        2 SUP2    0.0000
     67 H37        8.0686    4.7977   10.3766 Du        2 SUP2    0.0000
     68 C29        6.6147    4.7468    8.5757 Du        2 SUP2    0.0000
     69 H38        6.3195    4.3675    7.7503 Du        2 SUP2    0.0000
     70 H39        7.5555    4.9312    8.5328 Du        2 SUP2    0.0000
     71 H40        6.1351    5.5585    8.7520 Du        2 SUP2    0.0000
@<TRIPOS>BOND
     1    1    2 1
     2    3    1 1
     3    4    3 1
     4    5    4 1
     5    6    4 1
     6    7    6 1
     7    8    6 1
     8    9    6 1
     9   10    9 1
    10   11    9 1
    11   12   11 1
    12   13   11 1
    13   14   11 1
    14   15   14 1
    15   16    1 1
    16   17   16 1
    17   18   16 1
    18   19    1 1
    19   20   19 1
    20   21   19 1
    21   22    4 1
    22   23   22 1
    23   24   22 1
    24   25    3 2
    25   26   25 1
    26   27   26 1
    27   28   26 2
    28   29   28 1
    29   30   28 1
    30   31   30 1
    31   32   25 1
    32   33   32 1
    33   34   32 1
    34   35   34 1
    35   36   30 1
    36   37   36 1
    37   38   37 ar
    38   39   38 1
    39   40   38 ar
    40   41   40 1
    41   42   40 ar
    42   43   42 ar
    43   44   43 1
    44   45   37 ar
    45   46   45 1
    46   47   42 1
    47   48   47 1
    48   49   48 1
    49   50   48 1
    50   51   48 1
    51   52   47 1
    52   53   52 1
    53   54   52 1
    54   55   52 1
    55   56   47 1
    56   57   56 1
    57   58   56 1
    58   59   56 1
    59    9   19 1
    60   14   16 1
    61   14   22 1
    62   30   32 1
    63   35   36 2
    64   43   45 ar
@<TRIPOS>SUBSTRUCTURE
     1 RES1 1
     2 SUP2 60

@<TRIPOS>CRYSIN
  16.5261   10.5956   11.9249  90.0000  92.7960  90.0000  14 1

