# MOL2 file generated by ConQuest
# Please check atom types

@<TRIPOS>MOLECULE
QIDGIW
    36    39     1
SMALL
NO_CHARGES
****
Generated from CSD

@<TRIPOS>ATOM
      1 O1         5.2319   -0.5323   14.0590 O.2       1 RES1    0.0000
      2 O2         7.3526   -0.1473   14.1578 O.2       1 RES1    0.0000
      3 N1         6.2206    0.1194   13.7624 N.pl3     1 RES1    0.0000
      4 C1         3.2708    1.6593    9.3706 C.ar      1 RES1    0.0000
      5 C2         4.1202    0.5505    9.0981 C.ar      1 RES1    0.0000
      6 H1         4.8989    0.4225    9.6269 H         1 RES1    0.0000
      7 C3         3.8449   -0.3280    8.1006 C.ar      1 RES1    0.0000
      8 H2         4.4251   -1.0649    7.9506 H         1 RES1    0.0000
      9 C4         2.6987   -0.1576    7.2786 C.ar      1 RES1    0.0000
     10 H3         2.5070   -0.7841    6.5905 H         1 RES1    0.0000
     11 C5         1.8841    0.8984    7.4805 C.ar      1 RES1    0.0000
     12 H4         1.1289    1.0153    6.9161 H         1 RES1    0.0000
     13 C6         2.1274    1.8442    8.5190 C.ar      1 RES1    0.0000
     14 C7         1.2793    2.9239    8.7374 C.ar      1 RES1    0.0000
     15 H5         0.5528    3.0704    8.1430 H         1 RES1    0.0000
     16 C8         1.4678    3.7926    9.8010 C.ar      1 RES1    0.0000
     17 C9         0.5702    4.8736   10.0445 C.ar      1 RES1    0.0000
     18 H6        -0.1564    5.0208    9.4506 H         1 RES1    0.0000
     19 C10        0.7378    5.6950   11.1113 C.ar      1 RES1    0.0000
     20 H7         0.1277    6.4069   11.2631 H         1 RES1    0.0000
     21 C11        1.8194    5.4907   11.9960 C.ar      1 RES1    0.0000
     22 H8         1.9181    6.0570   12.7524 H         1 RES1    0.0000
     23 C12        2.7221    4.4959   11.7817 C.ar      1 RES1    0.0000
     24 H9         3.4527    4.3922   12.3801 H         1 RES1    0.0000
     25 C13        2.5916    3.6071   10.6753 C.ar      1 RES1    0.0000
     26 C14        3.5010    2.5644   10.4210 C.ar      1 RES1    0.0000
     27 C15        4.7263    2.4365   11.2665 C.ar      1 RES1    0.0000
     28 C16        5.7538    3.3731   11.1645 C.ar      1 RES1    0.0000
     29 H10        5.6618    4.1033   10.5641 H         1 RES1    0.0000
     30 C17        6.9099    3.2567   11.9256 C.ar      1 RES1    0.0000
     31 H11        7.5904    3.9155   11.8520 H         1 RES1    0.0000
     32 C18        7.0782    2.1958   12.7855 C.ar      1 RES1    0.0000
     33 H12        7.8723    2.1000   13.2983 H         1 RES1    0.0000
     34 C19        6.0570    1.2780   12.8777 C.ar      1 RES1    0.0000
     35 C20        4.8865    1.3792   12.1491 C.ar      1 RES1    0.0000
     36 H13        4.1993    0.7314   12.2520 H         1 RES1    0.0000
@<TRIPOS>BOND
     1    1    3 2
     2    2    3 2
     3    3   34 1
     4    4    5 ar
     5    5    6 1
     6    7    5 ar
     7    8    7 1
     8    9    7 ar
     9   10    9 1
    10   11    9 ar
    11   12   11 1
    12   13    4 ar
    13   14   13 ar
    14   15   14 1
    15   16   14 ar
    16   17   16 ar
    17   18   17 1
    18   19   17 ar
    19   20   19 1
    20   21   19 ar
    21   22   21 1
    22   23   21 ar
    23   24   23 1
    24   25   16 ar
    25   26    4 ar
    26   27   26 1
    27   28   27 ar
    28   29   28 1
    29   30   28 ar
    30   31   30 1
    31   32   30 ar
    32   33   32 1
    33   34   32 ar
    34   35   27 ar
    35   36   35 1
    36   11   13 ar
    37   23   25 ar
    38   25   26 ar
    39   34   35 ar
@<TRIPOS>SUBSTRUCTURE
     1 RES1 1

@<TRIPOS>CRYSIN
  12.9960    6.0624   18.0040  90.0000  93.8300  90.0000 231 1

