# MOL2 file generated by ConQuest
# Please check atom types

@<TRIPOS>MOLECULE
QIDHUG
    76    78     1
SMALL
NO_CHARGES
****
Generated from CSD

@<TRIPOS>ATOM
      1 O1        -6.4656    1.5114    1.2021 O.2       1 RES1    0.0000
      2 O2         3.7944    6.2457    0.6549 O.2       1 RES1    0.0000
      3 O3         3.8245   -3.5242   -0.6728 O.2       1 RES1    0.0000
      4 N1        -5.9156    1.3254    0.0538 N.3       1 RES1    0.0000
      5 N2         2.5686    6.3022    0.2691 N.pl3     1 RES1    0.0000
      6 N3         2.5813   -3.6184   -0.3140 N.3       1 RES1    0.0000
      7 C1        -0.1869    1.3466    0.0000 C.2       1 RES1    0.0000
      8 C2        -1.6782    1.3442    0.0179 C.ar      1 RES1    0.0000
      9 C3        -2.4229    2.0505    0.9778 C.ar      1 RES1    0.0000
     10 C4        -3.8026    2.0317    0.9868 C.ar      1 RES1    0.0000
     11 C5        -4.4989    1.3254    0.0000 C.ar      1 RES1    0.0000
     12 C6        -3.7810    0.6262   -0.9599 C.ar      1 RES1    0.0000
     13 C7        -2.3973    0.6192   -0.9509 C.ar      1 RES1    0.0000
     14 C8        -6.8420    1.2171   -1.1303 C.3       1 RES1    0.0000
     15 C9        -6.2645    1.9987   -2.3055 C.3       1 RES1    0.0000
     16 C10       -8.1802    1.8222   -0.7177 C.3       1 RES1    0.0000
     17 C11       -7.0767   -0.2401   -1.4712 C.3       1 RES1    0.0000
     18 C12        0.4877    2.6061    0.0628 C.2       1 RES1    0.0000
     19 C13        1.8304    2.7285    0.5562 C.2       1 RES1    0.0000
     20 C14        2.4649    3.9268    0.6190 C.2       1 RES1    0.0000
     21 C15        1.8454    5.1251    0.1974 C.2       1 RES1    0.0000
     22 C16        0.4972    5.0356   -0.2602 C.2       1 RES1    0.0000
     23 C17       -0.1334    3.8256   -0.3050 C.2       1 RES1    0.0000
     24 C18        2.0410    7.6723   -0.0987 C.3       1 RES1    0.0000
     25 C19        3.2142    8.6635    0.1077 C.3       1 RES1    0.0000
     26 C20        0.8880    8.0773    0.8253 C.3       1 RES1    0.0000
     27 C21        1.6173    7.6959   -1.5789 C.3       1 RES1    0.0000
     28 C22        0.4877    0.0942   -0.0897 C.ar      1 RES1    0.0000
     29 C23       -0.1085   -1.1088    0.3588 C.ar      1 RES1    0.0000
     30 C24        0.5339   -2.3283    0.3050 C.ar      1 RES1    0.0000
     31 C25        1.8055   -2.4319   -0.2602 C.ar      1 RES1    0.0000
     32 C26        2.4118   -1.2571   -0.7536 C.ar      1 RES1    0.0000
     33 C27        1.7734   -0.0683   -0.6818 C.ar      1 RES1    0.0000
     34 C28        2.0763   -4.9980    0.0628 C.3       1 RES1    0.0000
     35 C29        1.8184   -5.0498    1.5699 C.3       1 RES1    0.0000
     36 C30        3.2221   -5.9703   -0.3140 C.3       1 RES1    0.0000
     37 C31        0.8184   -5.3393   -0.7446 C.3       1 RES1    0.0000
     38 H1        -1.9489    2.5614    1.6408 H         1 RES1    0.0000
     39 H2        -4.2689    2.4955    1.6785 H         1 RES1    0.0000
     40 H3        -4.2434    0.1483   -1.6246 H         1 RES1    0.0000
     41 H4        -1.9121    0.1201   -1.5923 H         1 RES1    0.0000
     42 H5        -6.1547    2.9145   -2.0597 H         1 RES1    0.0000
     43 H6        -5.3961    1.6432   -2.5253 H         1 RES1    0.0000
     44 H7        -6.8292    1.9257   -3.0474 H         1 RES1    0.0000
     45 H8        -8.0488    2.7262   -0.4521 H         1 RES1    0.0000
     46 H9        -8.7766    1.7798   -1.4425 H         1 RES1    0.0000
     47 H10       -8.5318    1.3325    0.0224 H         1 RES1    0.0000
     48 H11       -7.6363   -0.2990   -2.2203 H         1 RES1    0.0000
     49 H12       -6.2331   -0.6545   -1.6641 H         1 RES1    0.0000
     50 H13       -7.4685   -0.6804   -0.7257 H         1 RES1    0.0000
     51 H14        2.2888    1.9493    0.8576 H         1 RES1    0.0000
     52 H15        3.3597    3.9598    0.9689 H         1 RES1    0.0000
     53 H16        0.0533    5.8219   -0.5257 H         1 RES1    0.0000
     54 H17       -1.0328    3.8020   -0.5903 H         1 RES1    0.0000
     55 H18        3.5076    8.6376    1.0254 H         1 RES1    0.0000
     56 H19        3.9478    8.4186   -0.4450 H         1 RES1    0.0000
     57 H20        2.9390    9.5439   -0.0978 H         1 RES1    0.0000
     58 H21        1.1994    8.0655    1.7341 H         1 RES1    0.0000
     59 H22        0.6083    8.9507    0.6055 H         1 RES1    0.0000
     60 H23        0.1833    7.4652    0.7284 H         1 RES1    0.0000
     61 H24        1.2866    8.5575   -1.7879 H         1 RES1    0.0000
     62 H25        2.3749    7.5005   -2.1162 H         1 RES1    0.0000
     63 H26        0.9462    7.0461   -1.7143 H         1 RES1    0.0000
     64 H27       -0.9732   -1.0735    0.7266 H         1 RES1    0.0000
     65 H28        0.1062   -3.1028    0.6567 H         1 RES1    0.0000
     66 H29        3.2826   -1.2995   -1.1303 H         1 RES1    0.0000
     67 H30        2.2087    0.6968   -1.0352 H         1 RES1    0.0000
     68 H31        1.5232   -5.9161    1.8166 H         1 RES1    0.0000
     69 H32        2.6332   -4.8544    2.0391 H         1 RES1    0.0000
     70 H33        1.1661   -4.4071    1.8076 H         1 RES1    0.0000
     71 H34        2.9706   -6.8578   -0.0691 H         1 RES1    0.0000
     72 H35        3.3885   -5.9232   -1.2353 H         1 RES1    0.0000
     73 H36        4.0088   -5.7301    0.1731 H         1 RES1    0.0000
     74 H37        0.1544   -4.6966   -0.5607 H         1 RES1    0.0000
     75 H38        1.0400   -5.3323   -1.6641 H         1 RES1    0.0000
     76 H39        0.5204   -6.2033   -0.4898 H         1 RES1    0.0000
@<TRIPOS>BOND
     1    1    4 1
     2    2    5 1
     3    3    6 1
     4    4   11 1
     5    5   21 2
     6    6   31 1
     7    7    8 1
     8    8    9 ar
     9    9   10 ar
    10   10   11 ar
    11   11   12 ar
    12   12   13 ar
    13   13    8 ar
    14   14    4 1
    15   15   14 1
    16   16   14 1
    17   17   14 1
    18   18    7 2
    19   19   18 1
    20   20   19 2
    21   21   20 1
    22   22   21 1
    23   23   18 1
    24   24    5 1
    25   25   24 1
    26   26   24 1
    27   27   24 1
    28   28    7 1
    29   29   28 ar
    30   30   29 ar
    31   31   30 ar
    32   32   31 ar
    33   33   28 ar
    34   34    6 1
    35   35   34 1
    36   36   34 1
    37   37   34 1
    38   38    9 1
    39   39   10 1
    40   40   12 1
    41   41   13 1
    42   42   15 1
    43   43   15 1
    44   44   15 1
    45   45   16 1
    46   46   16 1
    47   47   16 1
    48   48   17 1
    49   49   17 1
    50   50   17 1
    51   51   19 1
    52   52   20 1
    53   53   22 1
    54   54   23 1
    55   55   25 1
    56   56   25 1
    57   57   25 1
    58   58   26 1
    59   59   26 1
    60   60   26 1
    61   61   27 1
    62   62   27 1
    63   63   27 1
    64   64   29 1
    65   65   30 1
    66   66   32 1
    67   67   33 1
    68   68   35 1
    69   69   35 1
    70   70   35 1
    71   71   36 1
    72   72   36 1
    73   73   36 1
    74   74   37 1
    75   75   37 1
    76   76   37 1
    77   22   23 2
    78   32   33 ar
@<TRIPOS>SUBSTRUCTURE
     1 RES1 1

@<TRIPOS>CRYSIN
  13.3500   23.5420   10.1340  90.0000 117.7200  90.0000   9 1

