# MOL2 file generated by ConQuest
# Please check atom types

@<TRIPOS>MOLECULE
QIFPON
    19    21     1
SMALL
USER_CHARGES
****
Generated from CSD

@<TRIPOS>ATOM
      1 N1         4.3210    6.8626    3.1596 N.pl3     1 RES1    0.0000
      2 C1         3.4984    7.6793    3.8800 C.2       1 RES1    0.0000
      3 O1         1.9947    9.4308    5.2656 O.2       1 RES1    0.0000
      4 N2         4.4797    5.6818    3.8327 N.2       1 RES1    0.0000
      5 C2         3.1855    8.9979    3.3838 C.2       1 RES1    0.0000
      6 O2         2.1159   10.9659    3.7782 O.2       1 RES1    0.0000
      7 O3         5.1134    9.4266   -0.6034 O.2       1 RES1   -1.0000
      8 N3         3.7747    5.8027    4.8851 N.2       1 RES1    0.0000
      9 C3         3.6392    9.4294    2.1297 C.2       1 RES1    0.0000
     10 C4         4.4610    8.4581    1.4421 C.2       1 RES1    0.0000
     11 O4         5.7792    7.3378    0.0539 O.3       1 RES1    0.0000
     12 N4         3.1454    7.0187    4.9666 N.2       1 RES1    0.0000
     13 N5         2.3842    9.8371    4.1785 N.pl3     1 RES1    0.0000
     14 C5         4.8023    7.2084    1.9357 C.2       1 RES1    0.0000
     15 N6         3.4190   10.5723    1.5381 N.3       1 RES1    0.0000
     16 H1         2.9403   11.1728    1.9260 H         1 RES1    0.0000
     17 H2         3.7531   10.7258    0.7606 H         1 RES1    0.0000
     18 N7         5.0528    8.5762    0.2662 N.pl3     1 RES1    1.0000
     19 N8         5.5778    6.5168    1.1424 N.2       1 RES1    0.0000
@<TRIPOS>BOND
     1    1    2 1
     2    2    5 1
     3    3   13 2
     4    4    1 1
     5    5    9 2
     6    6   13 2
     7    7   18 1
     8    8    4 2
     9    9   10 1
    10   10   14 1
    11   11   18 1
    12   12    2 2
    13   13    5 1
    14   14    1 1
    15   15    9 1
    16   16   15 1
    17   17   15 1
    18   18   10 2
    19   19   11 1
    20    8   12 1
    21   14   19 2
@<TRIPOS>SUBSTRUCTURE
     1 RES1 1

@<TRIPOS>CRYSIN
   8.9130   14.0570    6.5730  90.0000  90.0000  90.0000  19 1

