# MOL2 file generated by ConQuest
# Please check atom types

@<TRIPOS>MOLECULE
QIGSUU
    31    32     1
SMALL
NO_CHARGES
****
Generated from CSD

@<TRIPOS>ATOM
      1 O1         0.5916    1.8849   10.6103 O.3       1 RES1    0.0000
      2 H1         1.2851    1.8812   11.3330 H         1 RES1    0.0000
      3 N1         3.4962    1.6261   -0.9772 N.ar      1 RES1    0.0000
      4 N2         2.3643    1.9731    3.0413 N.2       1 RES1    0.0000
      5 N3         1.1806    1.8120    9.3344 N.2       1 RES1    0.0000
      6 C1         3.1590    1.8003    0.3053 C.ar      1 RES1    0.0000
      7 H2         2.3083    2.1028    0.5580 H         1 RES1    0.0000
      8 C2         4.0333    1.5817    1.3713 C.ar      1 RES1    0.0000
      9 C3         5.3227    1.1742    1.0754 C.ar      1 RES1    0.0000
     10 H3         5.8775    0.9191    1.6200 H         1 RES1    0.0000
     11 C4         5.6951    0.9869   -0.2456 C.ar      1 RES1    0.0000
     12 H4         6.6323    0.5744   -0.5526 H         1 RES1    0.0000
     13 C5         4.7561    1.2260   -1.2371 C.ar      1 RES1    0.0000
     14 H5         5.0061    1.0919   -2.1618 H         1 RES1    0.0000
     15 C6         3.5765    1.7500    2.7606 C.2       1 RES1    0.0000
     16 H6         4.2615    1.6465    3.4920 H         1 RES1    0.0000
     17 C7         1.9487    2.0423    4.4021 C.ar      1 RES1    0.0000
     18 C8         0.7508    2.6874    4.6711 C.ar      1 RES1    0.0000
     19 H7         0.2764    3.1196    4.0459 H         1 RES1    0.0000
     20 C9         0.2345    2.7399    5.9609 C.ar      1 RES1    0.0000
     21 H8        -0.5284    3.3324    6.1955 H         1 RES1    0.0000
     22 C10        0.9072    2.1225    7.0234 C.ar      1 RES1    0.0000
     23 C11        2.1101    1.4454    6.7443 C.ar      1 RES1    0.0000
     24 H9         2.5224    0.9738    7.5769 H         1 RES1    0.0000
     25 C12        2.6218    1.4169    5.4591 C.ar      1 RES1    0.0000
     26 H10        3.3667    0.9337    5.3707 H         1 RES1    0.0000
     27 C13        0.3737    2.1713    8.4124 C.2       1 RES1    0.0000
     28 C14       -1.0103    2.6779    8.6651 C.3       1 RES1    0.0000
     29 H11       -1.2982    2.6232    9.4274 H         1 RES1    0.0000
     30 H12       -1.4694    2.1932    8.3451 H         1 RES1    0.0000
     31 H13       -1.0470    3.4483    8.3600 H         1 RES1    0.0000
@<TRIPOS>BOND
     1    1    2 1
     2    3    6 ar
     3    4   15 2
     4    5    1 1
     5    6    7 1
     6    8    6 ar
     7    9    8 ar
     8   10    9 1
     9   11    9 ar
    10   12   11 1
    11   13    3 ar
    12   14   13 1
    13   15    8 1
    14   16   15 1
    15   17    4 1
    16   18   17 ar
    17   19   18 1
    18   20   18 ar
    19   21   20 1
    20   22   20 ar
    21   23   22 ar
    22   24   23 1
    23   25   17 ar
    24   26   25 1
    25   27    5 2
    26   28   27 1
    27   29   28 1
    28   30   28 1
    29   31   28 1
    30   11   13 ar
    31   22   27 1
    32   23   25 ar
@<TRIPOS>SUBSTRUCTURE
     1 RES1 1

@<TRIPOS>CRYSIN
   6.1366    7.2888   13.5090  90.0000  93.9270  90.0000   4 1

