# MOL2 file generated by ConQuest
# Please check atom types

@<TRIPOS>MOLECULE
QIHHEU
    63    66     1
SMALL
NO_CHARGES
****
Generated from CSD

@<TRIPOS>ATOM
      1 N1         5.1911    5.9838    2.1049 N.pl3     1 RES1    0.0000
      2 N2         2.7765    3.9938    2.5888 N.3       1 RES1    0.0000
      3 N3         7.1949    4.8381    2.1659 N.ar      1 RES1    0.0000
      4 N4         7.3241    2.5863    2.8939 N.ar      1 RES1    0.0000
      5 O1         9.1630    3.7965    2.2343 O.3       1 RES1    0.0000
      6 O2         5.4817    1.4749    3.6134 O.3       1 RES1    0.0000
      7 O3         5.6882    5.3493    5.5721 O.2       1 RES1    0.0000
      8 O4         4.1833    6.9691    5.8519 O.3       1 RES1    0.0000
      9 O5         1.8055    4.9862    3.1253 O.3       1 RES1    0.0000
     10 O6         2.4924    2.3560   -0.3219 O.2       1 RES1    0.0000
     11 O7         0.5033    3.2604   -0.6985 O.3       1 RES1    0.0000
     12 C1         5.9974    7.1642    1.7262 C.3       1 RES1    0.0000
     13 H1         6.3243    7.0487    0.8205 H         1 RES1    0.0000
     14 H2         6.7670    7.2258    2.3143 H         1 RES1    0.0000
     15 C2         5.2133    8.4482    1.8072 C.ar      1 RES1    0.0000
     16 C3         5.1894    9.3080    0.7469 C.ar      1 RES1    0.0000
     17 H3         5.6266    9.0692   -0.0389 H         1 RES1    0.0000
     18 C4         4.5334   10.5196    0.8089 C.ar      1 RES1    0.0000
     19 H4         4.5011   11.0708    0.0610 H         1 RES1    0.0000
     20 C5         3.9337   10.9091    1.9661 C.ar      1 RES1    0.0000
     21 H5         3.5307   11.7455    2.0281 H         1 RES1    0.0000
     22 C6         3.9297   10.0607    3.0380 C.ar      1 RES1    0.0000
     23 H6         3.4849   10.3052    3.8175 H         1 RES1    0.0000
     24 C7         4.5847    8.8378    2.9717 C.ar      1 RES1    0.0000
     25 H7         4.6000    8.2783    3.7144 H         1 RES1    0.0000
     26 C8         3.9150    5.9178    1.3717 C.3       1 RES1    0.0000
     27 H8         4.0733    6.2163    0.4629 H         1 RES1    0.0000
     28 H9         3.3002    6.5472    1.7799 H         1 RES1    0.0000
     29 C9         3.2362    4.5574    1.3149 C.3       1 RES1    0.0000
     30 H10        3.8925    3.9289    0.9478 H         1 RES1    0.0000
     31 C10        3.8375    3.9199    3.6534 C.3       1 RES1    0.0000
     32 C11        5.2287    3.7428    3.0643 C.ar      1 RES1    0.0000
     33 C12        5.8761    4.8363    2.4237 C.ar      1 RES1    0.0000
     34 C13        7.8333    3.7266    2.4521 C.ar      1 RES1    0.0000
     35 C14        9.9445    2.6416    2.5751 C.3       1 RES1    0.0000
     36 H11        9.8017    2.4195    3.4977 H         1 RES1    0.0000
     37 H12       10.8742    2.8313    2.4310 H         1 RES1    0.0000
     38 H13        9.6784    1.9020    2.0229 H         1 RES1    0.0000
     39 C15        6.0250    2.6140    3.1642 C.ar      1 RES1    0.0000
     40 C16        6.3314    0.3215    3.7891 C.3       1 RES1    0.0000
     41 H14        6.5823   -0.0245    2.9307 H         1 RES1    0.0000
     42 H15        5.8565   -0.3537    4.2803 H         1 RES1    0.0000
     43 H16        7.1193    0.5752    4.2751 H         1 RES1    0.0000
     44 C17        3.3864    2.8251    4.6327 C.3       1 RES1    0.0000
     45 H17        2.5078    3.0317    4.9609 H         1 RES1    0.0000
     46 H18        4.0000    2.7814    5.3691 H         1 RES1    0.0000
     47 H19        3.3683    1.9780    4.1804 H         1 RES1    0.0000
     48 C18        4.6205    5.8216    5.3217 C.2       1 RES1    0.0000
     49 C19        5.1189    7.6593    6.7103 C.3       1 RES1    0.0000
     50 H20        5.4614    7.0479    7.3667 H         1 RES1    0.0000
     51 H21        4.6728    8.3854    7.1510 H         1 RES1    0.0000
     52 H22        5.8442    8.0008    6.1822 H         1 RES1    0.0000
     53 C20        3.6638    5.2551    4.3760 C.2       1 RES1    0.0000
     54 C21        2.0768    4.6043    0.3356 C.3       1 RES1    0.0000
     55 H23        1.2920    4.9441    0.7932 H         1 RES1    0.0000
     56 H24        2.2936    5.2224   -0.3797 H         1 RES1    0.0000
     57 C22        1.7575    3.2818   -0.2504 C.2       1 RES1    0.0000
     58 C23        0.0727    2.0469   -1.3244 C.3       1 RES1    0.0000
     59 H25        0.4063    2.0142   -2.2238 H         1 RES1    0.0000
     60 H26       -0.8868    2.0171   -1.3381 H         1 RES1    0.0000
     61 H27        0.4089    1.2949   -0.8310 H         1 RES1    0.0000
     62 C24        2.4660    5.7206    4.0563 C.2       1 RES1    0.0000
     63 H28        2.1074    6.4888    4.4381 H         1 RES1    0.0000
@<TRIPOS>BOND
     1    1   12 1
     2    2    9 1
     3    3   33 ar
     4    4   34 ar
     5    5   34 1
     6    6   39 1
     7    7   48 2
     8    8   48 1
     9    9   62 1
    10   10   57 2
    11   11   57 1
    12   12   13 1
    13   14   12 1
    14   15   12 1
    15   16   15 ar
    16   17   16 1
    17   18   16 ar
    18   19   18 1
    19   20   18 ar
    20   21   20 1
    21   22   20 ar
    22   23   22 1
    23   24   15 ar
    24   25   24 1
    25   26    1 1
    26   27   26 1
    27   28   26 1
    28   29    2 1
    29   30   29 1
    30   31    2 1
    31   32   31 1
    32   33    1 1
    33   34    3 ar
    34   35    5 1
    35   36   35 1
    36   37   35 1
    37   38   35 1
    38   39    4 ar
    39   40    6 1
    40   41   40 1
    41   42   40 1
    42   43   40 1
    43   44   31 1
    44   45   44 1
    45   46   44 1
    46   47   44 1
    47   48   53 1
    48   49    8 1
    49   50   49 1
    50   51   49 1
    51   52   49 1
    52   53   31 1
    53   54   29 1
    54   55   54 1
    55   56   54 1
    56   57   54 1
    57   58   11 1
    58   59   58 1
    59   60   58 1
    60   61   58 1
    61   62   53 2
    62   63   62 1
    63   22   24 ar
    64   26   29 1
    65   32   33 ar
    66   32   39 ar
@<TRIPOS>SUBSTRUCTURE
     1 RES1 1

@<TRIPOS>CRYSIN
  10.6280   11.1080   11.4420  71.6200  74.8200  85.0000   2 1

