# MOL2 file generated by ConQuest
# Please check atom types

@<TRIPOS>MOLECULE
QIJDAO01
    20    21     1
SMALL
NO_CHARGES
****
Generated from CSD

@<TRIPOS>ATOM
      1 O1         3.6631    7.8395    2.0799 O.2       1 RES1    0.0000
      2 O2         5.1350    7.4212    3.6682 O.2       1 RES1    0.0000
      3 N1         5.4764    6.5268    1.6801 N.3       1 RES1    0.0000
      4 N2         4.7207    7.3073    2.5100 N.pl3     1 RES1    0.0000
      5 C1         5.3380    6.4287    0.2754 C.ar      1 RES1    0.0000
      6 C2         6.4366    5.6377   -0.2063 C.ar      1 RES1    0.0000
      7 C3         6.5620    5.3756   -1.5673 C.ar      1 RES1    0.0000
      8 C4         5.5823    5.9091   -2.4420 C.ar      1 RES1    0.0000
      9 C5         4.4944    6.6972   -1.9483 C.ar      1 RES1    0.0000
     10 C6         4.3495    6.9709   -0.5766 C.ar      1 RES1    0.0000
     11 C7         7.3416    5.1677    0.9225 C.3       1 RES1    0.0000
     12 C8         6.7474    5.8914    2.1701 C.3       1 RES1    0.0000
     13 H1         7.3768    4.7794   -1.9589 H         1 RES1    0.0000
     14 H2         5.6668    5.7152   -3.5056 H         1 RES1    0.0000
     15 H3         3.7523    7.0957   -2.6288 H         1 RES1    0.0000
     16 H4         3.5261    7.5667   -0.2053 H         1 RES1    0.0000
     17 H5         8.3884    5.3974    0.7399 H         1 RES1    0.0000
     18 H6         7.3498    4.0838    1.0213 H         1 RES1    0.0000
     19 H7         6.5168    5.2682    3.0333 H         1 RES1    0.0000
     20 H8         7.3485    6.6936    2.5991 H         1 RES1    0.0000
@<TRIPOS>BOND
     1    1    4 2
     2    2    4 2
     3    3    4 1
     4    5    3 1
     5    6    5 ar
     6    7    6 ar
     7    8    7 ar
     8    9    8 ar
     9   10    5 ar
    10   11    6 1
    11   12    3 1
    12   13    7 1
    13   14    8 1
    14   15    9 1
    15   16   10 1
    16   17   11 1
    17   18   11 1
    18   19   12 1
    19   20   12 1
    20    9   10 ar
    21   11   12 1
@<TRIPOS>SUBSTRUCTURE
     1 RES1 1

@<TRIPOS>CRYSIN
   5.7913    8.2458    8.9223 116.8230 104.5890  91.6020   2 1

