# MOL2 file generated by ConQuest
# Please check atom types

@<TRIPOS>MOLECULE
QIJDAO
    20    21     1
SMALL
NO_CHARGES
****
Generated from CSD

@<TRIPOS>ATOM
      1 C1        -1.0938    4.5009    3.5236 C.ar      1 RES1    0.0000
      2 C2        -2.1209    3.7058    4.0132 C.ar      1 RES1    0.0000
      3 C3        -2.1992    3.4434    5.3620 C.ar      1 RES1    0.0000
      4 C4        -1.2541    3.9789    6.2138 C.ar      1 RES1    0.0000
      5 C5        -0.2427    4.7641    5.7150 C.ar      1 RES1    0.0000
      6 C6        -0.1370    5.0406    4.3628 C.ar      1 RES1    0.0000
      7 N1        -1.2715    4.6006    2.1323 N.pl3     1 RES1    0.0000
      8 C7        -2.4897    3.9429    1.6626 C.3       1 RES1    0.0000
      9 C8        -3.0134    3.2357    2.9051 C.3       1 RES1    0.0000
     10 O1         0.4651    5.8847    1.7088 O.2       1 RES1    0.0000
     11 O2        -0.9851    5.4419    0.1394 O.2       1 RES1    0.0000
     12 N2        -0.5580    5.3537    1.2906 N.pl3     1 RES1    0.0000
     13 H1        -2.9256    2.9055    5.7316 H         1 RES1    0.0000
     14 H2        -1.2751    3.7879    7.1245 H         1 RES1    0.0000
     15 H3         0.4256    5.1351    6.2644 H         1 RES1    0.0000
     16 H4         0.5353    5.5579    3.9961 H         1 RES1    0.0000
     17 H5        -3.9446    3.5006    3.0523 H         1 RES1    0.0000
     18 H6        -3.0667    4.6426    1.3777 H         1 RES1    0.0000
     19 H7        -2.9479    2.2515    2.7859 H         1 RES1    0.0000
     20 H8        -2.2320    3.3249    0.9591 H         1 RES1    0.0000
@<TRIPOS>BOND
     1    1    2 ar
     2    2    3 ar
     3    3    4 ar
     4    4    5 ar
     5    5    6 ar
     6    6    1 ar
     7    7    1 1
     8    8    7 1
     9    9    2 1
    10   10   12 2
    11   11   12 2
    12   12    7 1
    13   13    3 1
    14   14    4 1
    15   15    5 1
    16   16    6 1
    17   17    9 1
    18   18    8 1
    19   19    9 1
    20   20    8 1
    21    8    9 1
@<TRIPOS>SUBSTRUCTURE
     1 RES1 1

@<TRIPOS>CRYSIN
   5.8860    8.4020    8.9230 116.8000 104.0400  92.5300   2 1

