# MOL2 file generated by ConQuest
# Please check atom types

@<TRIPOS>MOLECULE
QIKDAP
    18    18     1
SMALL
NO_CHARGES
****
Generated from CSD

@<TRIPOS>ATOM
      1 C1        -1.2033   10.3627    3.4967 C.ar      1 RES1    0.0000
      2 C2        -0.2757    9.3453    3.6694 C.ar      1 RES1    0.0000
      3 C3         0.3099    8.6697    2.6515 C.ar      1 RES1    0.0000
      4 C4        -0.0919    9.0593    1.3971 C.ar      1 RES1    0.0000
      5 C5        -1.0069   10.1082    1.2283 C.ar      1 RES1    0.0000
      6 C6        -1.5580   10.7578    2.2360 C.ar      1 RES1    0.0000
      7 N1        -1.7493   11.0044    4.5131 N.3       1 RES1    0.0000
      8 N2         1.1877    7.6637    2.9062 N.3       1 RES1    0.0000
      9 N3         0.4182    8.4293    0.3017 N.pl3     1 RES1    0.0000
     10 O1         1.1851    7.4445    0.4048 O.2       1 RES1    0.0000
     11 O2         0.0875    8.8582   -0.7673 O.2       1 RES1    0.0000
     12 H1        -0.0412    9.1119    4.5386 H         1 RES1    0.0000
     13 H2        -1.2372   10.3582    0.3628 H         1 RES1    0.0000
     14 H3        -2.1597   11.4531    2.0951 H         1 RES1    0.0000
     15 H4        -2.3055   11.6447    4.3690 H         1 RES1    0.0000
     16 H5        -1.5495   10.7826    5.3193 H         1 RES1    0.0000
     17 H6         1.3750    7.4513    3.7184 H         1 RES1    0.0000
     18 H7         1.5556    7.2396    2.2555 H         1 RES1    0.0000
@<TRIPOS>BOND
     1    1    2 ar
     2    2    3 ar
     3    3    4 ar
     4    4    5 ar
     5    5    6 ar
     6    6    1 ar
     7    7    1 1
     8    8    3 1
     9    9    4 1
    10   10    9 2
    11   11    9 2
    12   12    2 1
    13   13    5 1
    14   14    6 1
    15   15    7 1
    16   16    7 1
    17   17    8 1
    18   18    8 1
@<TRIPOS>SUBSTRUCTURE
     1 RES1 1

@<TRIPOS>CRYSIN
   4.4772   11.1379   13.1891  90.0000  94.7480  90.0000 231 1

