# MOL2 file generated by ConQuest
# Please check atom types

@<TRIPOS>MOLECULE
QIKDUJ
    62    65     1
SMALL
NO_CHARGES
****
Generated from CSD

@<TRIPOS>ATOM
      1 N1         4.6163   11.7570    3.6017 N.3       1 RES1    0.0000
      2 C1         4.3810   12.6839    2.6837 C.2       1 RES1    0.0000
      3 N2         4.2641   13.9046    3.1676 N.2       1 RES1    0.0000
      4 C2         4.4518   13.7896    4.5073 C.2       1 RES1    0.0000
      5 C3         4.7029   12.4484    4.8138 C.2       1 RES1    0.0000
      6 C4         4.8026   10.3435    3.2974 C.3       1 RES1    0.0000
      7 C5         3.5525    9.5194    3.5062 C.2       1 RES1    0.0000
      8 C6         2.3178   10.1326    4.1002 C.3       1 RES1    0.0000
      9 N3         3.4549    8.2961    3.1520 N.2       1 RES1    0.0000
     10 N4         4.5643    7.7229    2.5444 N.3       1 RES1    0.0000
     11 C7         4.4098    6.4871    2.0099 C.ar      1 RES1    0.0000
     12 C8         5.4847    5.6881    1.5459 C.ar      1 RES1    0.0000
     13 C9         5.2865    4.4272    1.0174 C.ar      1 RES1    0.0000
     14 C10        4.0067    3.9452    0.9134 C.ar      1 RES1    0.0000
     15 C11        2.9215    4.6974    1.3300 C.ar      1 RES1    0.0000
     16 C12        3.1167    5.9321    1.8669 C.ar      1 RES1    0.0000
     17 N5         6.8567    6.1643    1.5830 N.pl3     1 RES1    0.0000
     18 O1         7.0651    7.3468    1.8047 O.2       1 RES1    0.0000
     19 O2         7.7522    5.3700    1.3617 O.2       1 RES1    0.0000
     20 N6         3.7846    2.6272    0.3479 N.pl3     1 RES1    0.0000
     21 O3         4.7405    1.9905   -0.0522 O.2       1 RES1    0.0000
     22 O4         2.6407    2.2117    0.2886 O.2       1 RES1    0.0000
     23 N7         1.6218   10.9493    3.1103 N.3       1 RES1    0.0000
     24 C13        0.7779   11.9611    3.7429 C.3       1 RES1    0.0000
     25 C14        0.0599   12.7615    2.6878 C.3       1 RES1    0.0000
     26 O5        -0.7268   11.9316    1.8530 O.3       1 RES1    0.0000
     27 C15        0.1062   10.9717    1.2187 C.3       1 RES1    0.0000
     28 C16        0.8029   10.1171    2.2364 C.3       1 RES1    0.0000
     29 N8         4.3512   14.8913    5.3170 N.3       1 RES1    0.0000
     30 C17        3.9766   16.1294    4.6287 C.3       1 RES1    0.0000
     31 C18        4.1508   17.3123    5.5399 C.3       1 RES1    0.0000
     32 O6         3.4097   17.1606    6.7426 O.3       1 RES1    0.0000
     33 C19        3.8732   16.0065    7.4247 C.3       1 RES1    0.0000
     34 C20        3.6767   14.7539    6.6147 C.3       1 RES1    0.0000
     35 N9         5.0600   11.7996    5.9932 N.pl3     1 RES1    0.0000
     36 O7         5.5583   12.4638    6.9096 O.2       1 RES1    0.0000
     37 O8         4.8585   10.5778    6.0912 O.2       1 RES1    0.0000
     38 H1         4.2910   12.4126    1.7676 H         1 RES1    0.0000
     39 H2         5.0841   10.3000    2.3552 H         1 RES1    0.0000
     40 H3         5.5447    9.9722    3.8454 H         1 RES1    0.0000
     41 H4         1.7365    9.3921    4.4330 H         1 RES1    0.0000
     42 H5         2.5689   10.7086    4.8337 H         1 RES1    0.0000
     43 H6         5.4016    8.0276    2.6678 H         1 RES1    0.0000
     44 H7         6.0527    3.9446    0.6981 H         1 RES1    0.0000
     45 H8         2.0102    4.3559    1.2211 H         1 RES1    0.0000
     46 H9         2.3916    6.4575    2.1742 H         1 RES1    0.0000
     47 H10        1.3294   12.5383    4.2661 H         1 RES1    0.0000
     48 H11        0.0986   11.5269    4.3731 H         1 RES1    0.0000
     49 H12        0.6991   13.2131    2.1507 H         1 RES1    0.0000
     50 H13       -0.5000   13.4265    3.1026 H         1 RES1    0.0000
     51 H14        0.7842   11.4497    0.7286 H         1 RES1    0.0000
     52 H15       -0.4906   10.4103    0.6699 H         1 RES1    0.0000
     53 H16        1.3533    9.4545    1.7393 H         1 RES1    0.0000
     54 H17        0.1302    9.6202    2.7947 H         1 RES1    0.0000
     55 H18        4.5734   16.2077    3.8324 H         1 RES1    0.0000
     56 H19        3.0517   16.0836    4.3131 H         1 RES1    0.0000
     57 H20        5.1023   17.4143    5.7587 H         1 RES1    0.0000
     58 H21        3.7797   18.1263    5.0911 H         1 RES1    0.0000
     59 H22        3.3332   15.9288    8.2502 H         1 RES1    0.0000
     60 H23        4.8361   16.0921    7.6743 H         1 RES1    0.0000
     61 H24        4.0371   13.9796    7.0984 H         1 RES1    0.0000
     62 H25        2.6756   14.6193    6.4802 H         1 RES1    0.0000
@<TRIPOS>BOND
     1    1    2 1
     2    2    3 2
     3    3    4 1
     4    4    5 2
     5    5    1 1
     6    6    1 1
     7    7    6 1
     8    8    7 1
     9    9    7 2
    10   10    9 1
    11   11   10 1
    12   12   11 ar
    13   13   12 ar
    14   14   13 ar
    15   15   14 ar
    16   16   11 ar
    17   17   12 1
    18   18   17 2
    19   19   17 2
    20   20   14 1
    21   21   20 2
    22   22   20 2
    23   23    8 1
    24   24   23 1
    25   25   24 1
    26   26   25 1
    27   27   26 1
    28   28   23 1
    29   29    4 1
    30   30   29 1
    31   31   30 1
    32   32   31 1
    33   33   32 1
    34   34   29 1
    35   35    5 1
    36   36   35 2
    37   37   35 2
    38   38    2 1
    39   39    6 1
    40   40    6 1
    41   41    8 1
    42   42    8 1
    43   43   10 1
    44   44   13 1
    45   45   15 1
    46   46   16 1
    47   47   24 1
    48   48   24 1
    49   49   25 1
    50   50   25 1
    51   51   27 1
    52   52   27 1
    53   53   28 1
    54   54   28 1
    55   55   30 1
    56   56   30 1
    57   57   31 1
    58   58   31 1
    59   59   33 1
    60   60   33 1
    61   61   34 1
    62   62   34 1
    63   15   16 ar
    64   27   28 1
    65   33   34 1
@<TRIPOS>SUBSTRUCTURE
     1 RES1 1

@<TRIPOS>CRYSIN
   8.0664   12.3698   13.2280 111.2820 106.0370  90.7350   2 1

