# MOL2 file generated by ConQuest
# Please check atom types

@<TRIPOS>MOLECULE
QIKKAY
    64    66     1
SMALL
NO_CHARGES
****
Generated from CSD

@<TRIPOS>ATOM
      1 C1         3.7095    8.9564    6.1634 C.3       1 RES1    0.0000
      2 C2         2.9423    8.0367    7.1358 C.3       1 RES1    0.0000
      3 H1         2.1773    8.5366    7.4887 H         1 RES1    0.0000
      4 C3         3.9362    7.8208    8.2779 C.3       1 RES1    0.0000
      5 H2         3.4776    7.5486    9.0885 H         1 RES1    0.0000
      6 H3         4.5903    7.1450    8.0432 H         1 RES1    0.0000
      7 C4         4.6016    9.1782    8.4620 C.3       1 RES1    0.0000
      8 H4         5.5343    9.0678    8.7051 H         1 RES1    0.0000
      9 H5         4.1558    9.6827    9.1594 H         1 RES1    0.0000
     10 C5         4.4789    9.9055    7.1069 C.3       1 RES1    0.0000
     11 H6         5.3580   10.1016    6.7462 H         1 RES1    0.0000
     12 H7         3.9956   10.7412    7.2151 H         1 RES1    0.0000
     13 C6         4.6112    8.1901    5.2189 C.3       1 RES1    0.0000
     14 H8         4.0797    7.6095    4.6701 H         1 RES1    0.0000
     15 H9         5.2359    7.6666    5.7277 H         1 RES1    0.0000
     16 H10        5.0896    8.8089    4.6603 H         1 RES1    0.0000
     17 C7         2.4387    6.7718    6.5618 C.1       1 RES1    0.0000
     18 C8         2.0450    5.7342    6.1451 C.1       1 RES1    0.0000
     19 C9         1.5590    4.4606    5.5753 C.3       1 RES1    0.0000
     20 H11        1.3383    3.8514    6.2968 H         1 RES1    0.0000
     21 H12        2.2668    4.0570    5.0486 H         1 RES1    0.0000
     22 C10        0.3413    4.6567    4.7016 C.3       1 RES1    0.0000
     23 H13        0.0257    3.8057    4.3623 H         1 RES1    0.0000
     24 H14       -0.3750    5.0755    5.2050 H         1 RES1    0.0000
     25 O1         0.7677    5.5145    3.6125 O.3       1 RES1    0.0000
     26 C11        0.0064    5.5648    2.5238 C.2       1 RES1    0.0000
     27 O2        -1.0501    5.0024    2.4100 O.2       1 RES1    0.0000
     28 C12        0.6327    6.3812    1.4591 C.ar      1 RES1    0.0000
     29 C13        0.1013    6.3187    0.1827 C.ar      1 RES1    0.0000
     30 H15       -0.6365    5.7799    0.0049 H         1 RES1    0.0000
     31 C14        0.6772    7.0593   -0.8177 C.ar      1 RES1    0.0000
     32 C15        1.7599    7.8722   -0.6248 C.ar      1 RES1    0.0000
     33 H16        2.1403    8.3558   -1.3238 H         1 RES1    0.0000
     34 C16        2.2550    7.9369    0.6512 C.ar      1 RES1    0.0000
     35 C17        1.7332    7.2114    1.7078 C.ar      1 RES1    0.0000
     36 H17        2.1028    7.2725    2.5597 H         1 RES1    0.0000
     37 N1         0.0884    7.0174   -2.1785 N.pl3     1 RES1    0.0000
     38 O3        -1.0174    6.4950   -2.2894 O.2       1 RES1    0.0000
     39 O4         0.7211    7.5105   -3.0988 O.2       1 RES1    0.0000
     40 N2         3.4186    8.8024    0.9140 N.pl3     1 RES1    0.0000
     41 O5         3.9549    9.3223   -0.0618 O.2       1 RES1    0.0000
     42 O6         3.8124    8.9326    2.0602 O.2       1 RES1    0.0000
     43 O7         2.6766    9.6578    5.4009 O.3       1 RES1    0.0000
     44 C18        3.0575   10.7279    4.6398 C.2       1 RES1    0.0000
     45 O8         4.1933   11.0933    4.4905 O.2       1 RES1    0.0000
     46 N3         1.9737   11.3230    4.1232 N.am      1 RES1    0.0000
     47 H18        1.1985   10.9754    4.2548 H         1 RES1    0.0000
     48 C19        2.0830   12.5558    3.3365 C.3       1 RES1    0.0000
     49 H19        2.9375   12.9763    3.5709 H         1 RES1    0.0000
     50 C20        0.9826   13.5227    3.7314 C.3       1 RES1    0.0000
     51 H20        0.1280   13.1077    3.5954 H         1 RES1    0.0000
     52 H21        1.0431   14.3147    3.1899 H         1 RES1    0.0000
     53 H22        1.0811   13.7588    4.6554 H         1 RES1    0.0000
     54 C21        2.0953   12.3109    1.8431 C.ar      1 RES1    0.0000
     55 C22        1.1304   11.5618    1.2181 C.ar      1 RES1    0.0000
     56 H23        0.5009   11.1068    1.7293 H         1 RES1    0.0000
     57 C23        1.0795   11.4704   -0.1695 C.ar      1 RES1    0.0000
     58 H24        0.4136   10.9640   -0.5764 H         1 RES1    0.0000
     59 C24        2.0080   12.1253   -0.9387 C.ar      1 RES1    0.0000
     60 H25        1.9683   12.0682   -1.8661 H         1 RES1    0.0000
     61 C25        3.0002   12.8659   -0.3322 C.ar      1 RES1    0.0000
     62 H26        3.6388   13.3019   -0.8475 H         1 RES1    0.0000
     63 C26        3.0404   12.9573    1.0542 C.ar      1 RES1    0.0000
     64 H27        3.7106   13.4580    1.4606 H         1 RES1    0.0000
@<TRIPOS>BOND
     1    1    2 1
     2    2    3 1
     3    4    2 1
     4    5    4 1
     5    6    4 1
     6    7    4 1
     7    8    7 1
     8    9    7 1
     9   10    1 1
    10   11   10 1
    11   12   10 1
    12   13    1 1
    13   14   13 1
    14   15   13 1
    15   16   13 1
    16   17    2 1
    17   18   17 3
    18   19   18 1
    19   20   19 1
    20   21   19 1
    21   22   19 1
    22   23   22 1
    23   24   22 1
    24   25   22 1
    25   26   25 1
    26   27   26 2
    27   28   26 1
    28   29   28 ar
    29   30   29 1
    30   31   29 ar
    31   32   31 ar
    32   33   32 1
    33   34   32 ar
    34   35   28 ar
    35   36   35 1
    36   37   31 1
    37   38   37 2
    38   39   37 2
    39   40   34 1
    40   41   40 2
    41   42   40 2
    42   43    1 1
    43   44   43 1
    44   45   44 2
    45   46   44 1
    46   47   46 1
    47   48   46 1
    48   49   48 1
    49   50   48 1
    50   51   50 1
    51   52   50 1
    52   53   50 1
    53   54   48 1
    54   55   54 ar
    55   56   55 1
    56   57   55 ar
    57   58   57 1
    58   59   57 ar
    59   60   59 1
    60   61   59 ar
    61   62   61 1
    62   63   54 ar
    63   64   63 1
    64    7   10 1
    65   34   35 ar
    66   61   63 ar
@<TRIPOS>SUBSTRUCTURE
     1 RES1 1

@<TRIPOS>CRYSIN
   5.3575   19.0380   24.4250  90.0000  90.0000  90.0000  19 1

