# MOL2 file generated by ConQuest
# Please check atom types

@<TRIPOS>MOLECULE
QINMIJ
    26    29     1
SMALL
NO_CHARGES
****
Generated from CSD

@<TRIPOS>ATOM
      1 O1        -8.2316    0.6135    3.6219 O.2       1 RES1    0.0000
      2 O2        -2.5949    1.3071   -2.2656 O.3       1 RES1    0.0000
      3 O3        -7.1308    1.8673    4.9975 O.2       1 RES1    0.0000
      4 O4        -2.7915   -2.4127   -0.4713 O.2       1 RES1    0.0000
      5 N1        -3.1273   -0.1433   -0.6286 N.am      1 RES1    0.0000
      6 N2        -7.1778    1.0127    4.1186 N.pl3     1 RES1    0.0000
      7 C1        -5.8718    0.0168   -1.3411 C.ar      1 RES1    0.0000
      8 C2        -5.9214    0.4239    3.6548 C.ar      1 RES1    0.0000
      9 C3        -5.2983    1.2399   -3.3294 C.ar      1 RES1    0.0000
     10 C4        -5.9581   -0.5533    2.6683 C.ar      1 RES1    0.0000
     11 C5        -2.5974   -1.2716   -0.0894 C.2       1 RES1    0.0000
     12 C6        -1.6077    0.6639    0.9834 C.3       1 RES1    0.0000
     13 C7        -3.0111   -0.9129   -3.0056 C.3       1 RES1    0.0000
     14 C8        -3.5538   -0.7776    2.8715 C.ar      1 RES1    0.0000
     15 C9        -3.4325    0.1660   -2.0268 C.3       1 RES1    0.0000
     16 C10       -4.7701   -1.1441    2.2856 C.ar      1 RES1    0.0000
     17 C11       -1.7162   -0.8685    1.0964 C.3       1 RES1    0.0000
     18 C12       -7.6128    0.9791   -2.7044 C.ar      1 RES1    0.0000
     19 C13       -2.7829    1.0828    0.0918 C.3       1 RES1    0.0000
     20 C14       -4.7410    0.8200    4.2585 C.ar      1 RES1    0.0000
     21 C15       -2.2538   -1.4069    2.4411 C.3       1 RES1    0.0000
     22 C16       -7.2239    0.2480   -1.5972 C.ar      1 RES1    0.0000
     23 C17       -6.6436    1.4721   -3.5710 C.ar      1 RES1    0.0000
     24 C18       -4.9111    0.5128   -2.2047 C.ar      1 RES1    0.0000
     25 C19       -2.5273    2.0718   -1.0552 C.3       1 RES1    0.0000
     26 C20       -3.5624    0.2144    3.8571 C.ar      1 RES1    0.0000
@<TRIPOS>BOND
     1    1    6 2
     2    2   15 1
     3    3    6 2
     4    4   11 2
     5    5   11 1
     6    6    8 1
     7    7   22 ar
     8    8   10 ar
     9    9   23 ar
    10   10   16 ar
    11   11   17 1
    12   12   17 1
    13   13   15 1
    14   14   16 ar
    15   15    5 1
    16   17   21 1
    17   18   22 ar
    18   19    5 1
    19   20    8 ar
    20   21   14 1
    21   23   18 ar
    22   24    7 ar
    23   25    2 1
    24   26   14 ar
    25    9   24 ar
    26   12   19 1
    27   15   24 1
    28   19   25 1
    29   20   26 ar
@<TRIPOS>SUBSTRUCTURE
     1 RES1 1

@<TRIPOS>CRYSIN
   8.5470    9.8800   19.9630  90.0000  90.0000  90.0000  19 1

