# MOL2 file generated by ConQuest
# Please check atom types

@<TRIPOS>MOLECULE
QIQYIA
    59    61     1
SMALL
NO_CHARGES
****
Generated from CSD

@<TRIPOS>ATOM
      1 O1         2.0610    2.8063    1.0642 O.3       1 RES1    0.0000
      2 H1         2.0680    2.2424    0.4417 H         1 RES1    0.0000
      3 O2         6.4491   -0.6820    0.5280 O.2       1 RES1    0.0000
      4 O3         7.3634   -0.1732    2.5211 O.3       1 RES1    0.0000
      5 O4         4.5667   -2.9486    1.6765 O.2       1 RES1    0.0000
      6 O5         2.8743   -2.1541    0.3969 O.3       1 RES1    0.0000
      7 N1         3.2546    2.7095    1.7952 N.2       1 RES1    0.0000
      8 N2         5.1470   -0.3897    2.3691 N.am      1 RES1    0.0000
      9 N3         4.0214   -0.7236    1.6291 N.am      1 RES1    0.0000
     10 H2         3.4174   -0.1220    1.4109 H         1 RES1    0.0000
     11 C1         1.6416    5.3486    2.1476 C.ar      1 RES1    0.0000
     12 H3         1.7583    5.1526    1.2255 H         1 RES1    0.0000
     13 C2         0.7821    6.3576    2.5346 C.ar      1 RES1    0.0000
     14 H4         0.3123    6.8519    1.8737 H         1 RES1    0.0000
     15 C3         0.5962    6.6565    3.8656 C.ar      1 RES1    0.0000
     16 H5         0.0176    7.3659    4.1206 H         1 RES1    0.0000
     17 C4         1.2563    5.9213    4.8244 C.ar      1 RES1    0.0000
     18 H6         1.1150    6.1071    5.7455 H         1 RES1    0.0000
     19 C5         2.1256    4.9144    4.4477 C.ar      1 RES1    0.0000
     20 H7         2.5839    4.4191    5.1159 H         1 RES1    0.0000
     21 C6         2.3388    4.6156    3.1060 C.ar      1 RES1    0.0000
     22 C7         3.3291    3.5561    2.7571 C.2       1 RES1    0.0000
     23 C8         4.5910    3.4843    3.5671 C.ar      1 RES1    0.0000
     24 C9         5.3551    4.6489    3.6524 C.ar      1 RES1    0.0000
     25 H8         5.0441    5.4419    3.2323 H         1 RES1    0.0000
     26 C10        6.5491    4.6706    4.3334 C.ar      1 RES1    0.0000
     27 H9         7.0676    5.4658    4.3632 H         1 RES1    0.0000
     28 C11        6.9890    3.5318    4.9713 C.ar      1 RES1    0.0000
     29 H10        7.8133    3.5383    5.4431 H         1 RES1    0.0000
     30 C12        6.2264    2.3773    4.9232 C.ar      1 RES1    0.0000
     31 H11        6.5274    1.6040    5.3847 H         1 RES1    0.0000
     32 C13        5.0274    2.3229    4.2150 C.ar      1 RES1    0.0000
     33 C14        4.2148    1.0435    4.2366 C.3       1 RES1    0.0000
     34 H12        3.4263    1.1563    3.6317 H         1 RES1    0.0000
     35 C15        3.7190    0.6240    5.6003 C.2       1 RES1    0.0000
     36 H13        3.4323    1.2311    6.2717 H         1 RES1    0.0000
     37 C16        3.7298   -0.6824    5.7471 C.2       1 RES1    0.0000
     38 H14        3.4457   -1.1320    6.5342 H         1 RES1    0.0000
     39 C17        4.2477   -1.3758    4.5212 C.3       1 RES1    0.0000
     40 H15        3.5097   -1.7320    3.9663 H         1 RES1    0.0000
     41 H16        4.8673   -2.1119    4.7551 H         1 RES1    0.0000
     42 C18        4.9790   -0.2273    3.8154 C.3       1 RES1    0.0000
     43 H17        5.8941   -0.1691    4.2152 H         1 RES1    0.0000
     44 C19        6.3343   -0.4354    1.7190 C.2       1 RES1    0.0000
     45 C20        8.6776   -0.1700    1.8942 C.3       1 RES1    0.0000
     46 H18        8.7150    0.5068    1.1732 H         1 RES1    0.0000
     47 H19        8.8767   -1.0587    1.5054 H         1 RES1    0.0000
     48 C21        9.6543    0.1578    2.9631 C.3       1 RES1    0.0000
     49 H20       10.5584    0.1714    2.5866 H         1 RES1    0.0000
     50 H21        9.6049   -0.5202    3.6690 H         1 RES1    0.0000
     51 H22        9.4434    1.0372    3.3393 H         1 RES1    0.0000
     52 C22        3.8956   -2.0452    1.2511 C.2       1 RES1    0.0000
     53 C23        2.6276   -3.4964   -0.1016 C.3       1 RES1    0.0000
     54 H23        2.4155   -4.1071    0.6494 H         1 RES1    0.0000
     55 H24        3.4302   -3.8406   -0.5686 H         1 RES1    0.0000
     56 C24        1.4711   -3.4215   -1.0483 C.3       1 RES1    0.0000
     57 H25        1.6928   -2.8166   -1.7878 H         1 RES1    0.0000
     58 H26        0.6831   -3.0822   -0.5748 H         1 RES1    0.0000
     59 H27        1.2808   -4.3149   -1.4034 H         1 RES1    0.0000
@<TRIPOS>BOND
     1    1    2 1
     2    3   44 2
     3    4   44 1
     4    5   52 2
     5    6   52 1
     6    7    1 1
     7    8    9 1
     8    9   10 1
     9   11   12 1
    10   13   11 ar
    11   14   13 1
    12   15   13 ar
    13   16   15 1
    14   17   15 ar
    15   18   17 1
    16   19   17 ar
    17   20   19 1
    18   21   11 ar
    19   22    7 2
    20   23   22 1
    21   24   23 ar
    22   25   24 1
    23   26   24 ar
    24   27   26 1
    25   28   26 ar
    26   29   28 1
    27   30   28 ar
    28   31   30 1
    29   32   23 ar
    30   33   32 1
    31   34   33 1
    32   35   33 1
    33   36   35 1
    34   37   35 2
    35   38   37 1
    36   39   37 1
    37   40   39 1
    38   41   39 1
    39   42    8 1
    40   43   42 1
    41   44    8 1
    42   45    4 1
    43   46   45 1
    44   47   45 1
    45   48   45 1
    46   49   48 1
    47   50   48 1
    48   51   48 1
    49   52    9 1
    50   53    6 1
    51   54   53 1
    52   55   53 1
    53   56   53 1
    54   57   56 1
    55   58   56 1
    56   59   56 1
    57   19   21 ar
    58   21   22 1
    59   30   32 ar
    60   33   42 1
    61   39   42 1
@<TRIPOS>SUBSTRUCTURE
     1 RES1 1

@<TRIPOS>CRYSIN
   8.9819   10.2800   13.0080  86.4900  73.0360  79.6880   2 1

