# MOL2 file generated by ConQuest
# Please check atom types

@<TRIPOS>MOLECULE
QIRCID
    40    42     1
SMALL
USER_CHARGES
****
Generated from CSD

@<TRIPOS>ATOM
      1 O1         0.4404    4.5749    9.1583 O.2       1 RES1    0.0000
      2 O2        -1.6488    1.8806   12.2649 O.2       1 RES1   -1.0000
      3 N1        -0.0315    4.1527   10.2587 N.3       1 RES1    0.0000
      4 N2        -1.0323    2.8862   11.7131 N.pl3     1 RES1    1.0000
      5 C1        -0.6274    2.9322   10.4342 C.2       1 RES1    0.0000
      6 C2        -0.8721    1.9036    9.4635 C.ar      1 RES1    0.0000
      7 C3         0.2606    1.3049    8.7758 C.ar      1 RES1    0.0000
      8 C4         1.6025    1.5736    9.0414 C.ar      1 RES1    0.0000
      9 C5         2.6011    0.9518    8.3268 C.ar      1 RES1    0.0000
     10 C6         2.2984   -0.0077    7.3197 C.ar      1 RES1    0.0000
     11 C7         0.9657   -0.2763    7.0810 C.ar      1 RES1    0.0000
     12 C8        -0.0534    0.3147    7.7592 C.ar      1 RES1    0.0000
     13 C9        -1.3790   -0.0154    7.4620 C.ar      1 RES1    0.0000
     14 C10       -2.4137    0.5834    8.1655 C.ar      1 RES1    0.0000
     15 C11       -2.0939    1.5429    9.1346 C.ar      1 RES1    0.0000
     16 C12       -0.9182    4.2141   12.4214 C.3       1 RES1    0.0000
     17 C13        0.0474    4.9203   11.5661 C.3       1 RES1    0.0000
     18 C14       -0.7732    4.0836   13.8015 C.3       1 RES1    0.0000
     19 C15       -2.2738    5.0431   12.0625 C.3       1 RES1    0.0000
     20 C16        0.1340    6.2713   11.3669 C.3       1 RES1    0.0000
     21 C17        1.5228    4.4214   12.1732 C.3       1 RES1    0.0000
     22 H1         1.8769    2.2230    9.7464 H         1 RES1    0.0000
     23 H2         3.6052    1.1621    8.4627 H         1 RES1    0.0000
     24 H3         2.9561   -0.4698    6.7885 H         1 RES1    0.0000
     25 H4         0.7312   -0.9534    6.3459 H         1 RES1    0.0000
     26 H5        -1.5091   -0.6924    6.7727 H         1 RES1    0.0000
     27 H6        -3.3187    0.2871    8.0058 H         1 RES1    0.0000
     28 H7        -2.8057    2.0272    9.5757 H         1 RES1    0.0000
     29 H8        -1.4838    3.5924   14.2126 H         1 RES1    0.0000
     30 H9         0.0644    3.5356   14.0434 H         1 RES1    0.0000
     31 H10       -0.6418    4.8958   14.2948 H         1 RES1    0.0000
     32 H11       -2.1788    5.9312   12.2886 H         1 RES1    0.0000
     33 H12       -2.4806    4.8958   11.1709 H         1 RES1    0.0000
     34 H13       -2.9784    4.6409   12.6190 H         1 RES1    0.0000
     35 H14        0.2406    6.7127   12.1985 H         1 RES1    0.0000
     36 H15        0.9995    6.4555   10.8737 H         1 RES1    0.0000
     37 H16       -0.5543    6.5852   10.8721 H         1 RES1    0.0000
     38 H17        1.6297    3.5095   12.3834 H         1 RES1    0.0000
     39 H18        2.3238    4.6593   11.6040 H         1 RES1    0.0000
     40 H19        1.7840    4.9080   13.0380 H         1 RES1    0.0000
@<TRIPOS>BOND
     1    1    3 1
     2    2    4 1
     3    3    5 1
     4    4    5 2
     5    5    6 1
     6    6    7 ar
     7    7    8 ar
     8    8    9 ar
     9    9   10 ar
    10   10   11 ar
    11   11   12 ar
    12   12    7 ar
    13   13   12 ar
    14   14   13 ar
    15   15    6 ar
    16   16    4 1
    17   17    3 1
    18   18   16 1
    19   19   16 1
    20   20   17 1
    21   21   17 1
    22   22    8 1
    23   23    9 1
    24   24   10 1
    25   25   11 1
    26   26   13 1
    27   27   14 1
    28   28   15 1
    29   29   18 1
    30   30   18 1
    31   31   18 1
    32   32   19 1
    33   33   19 1
    34   34   19 1
    35   35   20 1
    36   36   20 1
    37   37   20 1
    38   38   21 1
    39   39   21 1
    40   40   21 1
    41   14   15 ar
    42   16   17 1
@<TRIPOS>SUBSTRUCTURE
     1 RES1 1

@<TRIPOS>CRYSIN
  12.4920    7.6760   15.9250  90.0000  96.9100  90.0000   9 1

