# MOL2 file generated by ConQuest
# Please check atom types

@<TRIPOS>MOLECULE
QIRRUG
    29    30     1
SMALL
NO_CHARGES
****
Generated from CSD

@<TRIPOS>ATOM
      1 O1         1.1070    3.8880    9.0193 O.2       1 RES1    0.0000
      2 O2         2.8422    5.9018   10.6595 O.2       1 RES1    0.0000
      3 O3         1.0206    5.6107   11.7986 O.2       1 RES1    0.0000
      4 O4        -3.1683    8.3210    7.9839 O.2       1 RES1    0.0000
      5 O5        -2.4576    8.8009    9.9737 O.2       1 RES1    0.0000
      6 N1         1.6214    5.8973   10.7715 N.pl3     1 RES1    0.0000
      7 N2        -2.3750    8.2035    8.9100 N.pl3     1 RES1    0.0000
      8 N3        -0.8188    4.8532    8.3167 N.am      1 RES1    0.0000
      9 H1        -0.9788    4.1900    7.8612 H         1 RES1    0.0000
     10 N4         0.8589    7.1958    7.3065 N.3       1 RES1    0.0000
     11 C1         0.7795    6.2183    9.5474 C.3       1 RES1    0.0000
     12 C2         0.3525    4.8594    8.9616 C.2       1 RES1    0.0000
     13 C3        -1.7923    5.9373    8.2099 C.3       1 RES1    0.0000
     14 H2        -2.5842    5.7233    8.7636 H         1 RES1    0.0000
     15 H3        -2.0903    6.0196    7.2692 H         1 RES1    0.0000
     16 C4        -1.1944    7.2718    8.6713 C.3       1 RES1    0.0000
     17 C5        -0.3431    7.9854    7.6078 C.3       1 RES1    0.0000
     18 H4        -0.8762    8.1073    6.7821 H         1 RES1    0.0000
     19 H5        -0.0790    8.8798    7.9398 H         1 RES1    0.0000
     20 C6         1.6528    6.9507    8.5202 C.3       1 RES1    0.0000
     21 H6         1.9667    7.8110    8.8975 H         1 RES1    0.0000
     22 H7         2.4453    6.4009    8.2986 H         1 RES1    0.0000
     23 C7        -0.4166    7.0668    9.9630 C.3       1 RES1    0.0000
     24 H8        -0.9680    6.5946   10.6361 H         1 RES1    0.0000
     25 H9        -0.1215    7.9332   10.3395 H         1 RES1    0.0000
     26 C8         1.6854    7.9090    6.3120 C.3       1 RES1    0.0000
     27 H10        1.1561    8.0721    5.5030 H         1 RES1    0.0000
     28 H11        2.4674    7.3631    6.0853 H         1 RES1    0.0000
     29 H12        1.9810    8.7644    6.6869 H         1 RES1    0.0000
@<TRIPOS>BOND
     1    1   12 2
     2    2    6 2
     3    3    6 2
     4    4    7 2
     5    5    7 2
     6    6   11 1
     7    7   16 1
     8    8    9 1
     9   10   17 1
    10   11   12 1
    11   12    8 1
    12   13    8 1
    13   14   13 1
    14   15   13 1
    15   16   13 1
    16   17   16 1
    17   18   17 1
    18   19   17 1
    19   20   10 1
    20   21   20 1
    21   22   20 1
    22   23   11 1
    23   24   23 1
    24   25   23 1
    25   26   10 1
    26   27   26 1
    27   28   26 1
    28   29   26 1
    29   11   20 1
    30   16   23 1
@<TRIPOS>SUBSTRUCTURE
     1 RES1 1

@<TRIPOS>CRYSIN
   7.6100    9.7784   13.8124  90.0000  92.5400  90.0000 231 1

