# MOL2 file generated by ConQuest
# Please check atom types

@<TRIPOS>MOLECULE
QISNUB
    43    45     1
SMALL
NO_CHARGES
****
Generated from CSD

@<TRIPOS>ATOM
      1 O1        -1.8095    2.3465    9.1960 O.3       1 RES1    0.0000
      2 O2        -3.2454    4.8481    9.4872 O.3       1 RES1    0.0000
      3 O3        -4.1279    6.8732    8.7199 O.3       1 RES1    0.0000
      4 O4        -3.8656    2.0117    7.5474 O.2       1 RES1    0.0000
      5 N1        -1.6563    1.7502    7.9275 N.am      1 RES1    0.0000
      6 C1        -1.2097    3.6543    9.1967 C.3       1 RES1    0.0000
      7 C2         0.1277    3.6228    8.5399 C.2       1 RES1    0.0000
      8 C3         0.5803    2.5689    7.8868 C.2       1 RES1    0.0000
      9 C4        -0.2682    1.3388    7.6681 C.3       1 RES1    0.0000
     10 C5         0.1285    0.2112    8.6379 C.3       1 RES1    0.0000
     11 C6         1.4964   -0.3751    8.3213 C.3       1 RES1    0.0000
     12 C7         1.5668   -0.8675    6.8857 C.3       1 RES1    0.0000
     13 C8         1.2099    0.2541    5.9229 C.3       1 RES1    0.0000
     14 C9        -0.1663    0.8703    6.2037 C.3       1 RES1    0.0000
     15 C10       -1.3222   -0.0731    5.8866 C.3       1 RES1    0.0000
     16 C11       -2.6454    0.6550    6.0084 C.3       1 RES1    0.0000
     17 C12       -2.7912    1.5313    7.2260 C.2       1 RES1    0.0000
     18 C13       -2.1362    4.6910    8.6202 C.3       1 RES1    0.0000
     19 C14       -4.3351    5.5088    8.8959 C.3       1 RES1    0.0000
     20 C15       -4.1574    7.5902    9.9506 C.3       1 RES1    0.0000
     21 H1        -1.0828    3.9534   10.1031 H         1 RES1    0.0000
     22 H2         1.4910    2.5837    7.5440 H         1 RES1    0.0000
     23 H3         0.1466    0.5625    9.5315 H         1 RES1    0.0000
     24 H4        -0.5313   -0.4873    8.5880 H         1 RES1    0.0000
     25 H5         2.4460   -1.1860    6.6979 H         1 RES1    0.0000
     26 H6         0.9342   -1.5892    6.7679 H         1 RES1    0.0000
     27 H7         1.8855    0.9377    5.9951 H         1 RES1    0.0000
     28 H8        -0.2027    1.6311    5.6200 H         1 RES1    0.0000
     29 H9        -1.3089   -0.7998    6.5128 H         1 RES1    0.0000
     30 H10       -3.3430   -0.0036    6.0350 H         1 RES1    0.0000
     31 H11       -2.7494    1.1955    5.2230 H         1 RES1    0.0000
     32 H12       -1.6490    5.5300    8.5193 H         1 RES1    0.0000
     33 H13       -2.4217    4.3988    7.7594 H         1 RES1    0.0000
     34 H14       -5.0779    5.3895    9.4488 H         1 RES1    0.0000
     35 H15       -4.4732    5.1160    8.0362 H         1 RES1    0.0000
     36 H16        1.6705   -1.1097    8.9125 H         1 RES1    0.0000
     37 H17        2.1650    0.3016    8.4529 H         1 RES1    0.0000
     38 H18       -1.2298   -0.4109    4.9929 H         1 RES1    0.0000
     39 H19        1.2126   -0.0935    5.0281 H         1 RES1    0.0000
     40 H20        0.7070    4.4049    8.5898 H         1 RES1    0.0000
     41 H21       -3.9621    8.5311    9.8297 H         1 RES1    0.0000
     42 H22       -3.4313    7.2127   10.5302 H         1 RES1    0.0000
     43 H23       -4.9721    7.4626   10.3647 H         1 RES1    0.0000
@<TRIPOS>BOND
     1    1    5 1
     2    2   18 1
     3    3   19 1
     4    4   17 2
     5    5    9 1
     6    6    1 1
     7    7    6 1
     8    8    7 2
     9    9    8 1
    10   10    9 1
    11   11   10 1
    12   12   11 1
    13   13   12 1
    14   14    9 1
    15   15   14 1
    16   16   15 1
    17   17    5 1
    18   18    6 1
    19   19    2 1
    20   20    3 1
    21   21    6 1
    22   22    8 1
    23   23   10 1
    24   24   10 1
    25   25   12 1
    26   26   12 1
    27   27   13 1
    28   28   14 1
    29   29   15 1
    30   30   16 1
    31   31   16 1
    32   32   18 1
    33   33   18 1
    34   34   19 1
    35   35   19 1
    36   36   11 1
    37   37   11 1
    38   38   15 1
    39   39   13 1
    40   40    7 1
    41   41   20 1
    42   42   20 1
    43   43   20 1
    44   13   14 1
    45   16   17 1
@<TRIPOS>SUBSTRUCTURE
     1 RES1 1

@<TRIPOS>CRYSIN
   7.9380    8.4820   11.8080 104.9300 108.9000  96.3500   2 1

