# MOL2 file generated by ConQuest
# Please check atom types

@<TRIPOS>MOLECULE
QIXSAS
    21    21     1
SMALL
NO_CHARGES
****
Generated from CSD

@<TRIPOS>ATOM
      1 O1         2.8421    1.0181    5.2482 O.2       1 RES1    0.0000
      2 O2         1.1075    2.0295    5.9497 O.2       1 RES1    0.0000
      3 O3        -1.1925    5.2046    3.3172 O.2       1 RES1    0.0000
      4 O4        -0.4734    5.6610    1.3330 O.2       1 RES1    0.0000
      5 N1         4.4600   -0.8769    1.4435 N.pl3     1 RES1    0.0000
      6 H1         4.6317   -1.3721    2.1747 H         1 RES1    0.0000
      7 H2         4.9330   -1.0191    0.6907 H         1 RES1    0.0000
      8 N2         3.6950    0.2186    1.4366 N.2       1 RES1    0.0000
      9 N3         1.8689    1.7140    5.0479 N.pl3     1 RES1    0.0000
     10 N4        -0.4673    4.9887    2.3493 N.pl3     1 RES1    0.0000
     11 C1         3.1237    0.5471    2.5368 C.2       1 RES1    0.0000
     12 H3         3.2772    0.0591    3.3133 H         1 RES1    0.0000
     13 C2         2.2297    1.6984    2.5506 C.ar      1 RES1    0.0000
     14 C3         1.6000    2.2243    3.7020 C.ar      1 RES1    0.0000
     15 C4         0.7025    3.2738    3.6379 C.ar      1 RES1    0.0000
     16 H4         0.2770    3.5800    4.4065 H         1 RES1    0.0000
     17 C5         0.4512    3.8516    2.4312 C.ar      1 RES1    0.0000
     18 C6         1.0455    3.3875    1.2600 C.ar      1 RES1    0.0000
     19 H5         0.8663    3.7917    0.4420 H         1 RES1    0.0000
     20 C7         1.8978    2.3241    1.3419 C.ar      1 RES1    0.0000
     21 H6         2.2767    1.9993    0.5575 H         1 RES1    0.0000
@<TRIPOS>BOND
     1    1    9 2
     2    2    9 2
     3    3   10 2
     4    4   10 2
     5    5    6 1
     6    7    5 1
     7    8    5 1
     8    9   14 1
     9   10   17 1
    10   11    8 2
    11   12   11 1
    12   13   11 1
    13   14   13 ar
    14   15   14 ar
    15   16   15 1
    16   17   15 ar
    17   18   17 ar
    18   19   18 1
    19   20   13 ar
    20   21   20 1
    21   18   20 ar
@<TRIPOS>SUBSTRUCTURE
     1 RES1 1

@<TRIPOS>CRYSIN
   4.5839    9.6840    9.9287  90.7850  96.1490  98.9550   2 1

