# MOL2 file generated by ConQuest
# Please check atom types

@<TRIPOS>MOLECULE
QIXTEW
    47    48     1
SMALL
USER_CHARGES
****
Generated from CSD

@<TRIPOS>ATOM
      1 O1        10.6857    5.9411   -2.0831 O.2       1 RES1   -1.0000
      2 O2        10.9222    2.4870    0.9957 O.2       1 RES1    0.0000
      3 O3         9.2370    8.7342    1.6249 O.3       1 RES1    0.0000
      4 O4         6.7440    7.7442    0.6178 O.2       1 RES1    0.0000
      5 O5         7.6996    7.8988   -1.3994 O.3       1 RES1    0.0000
      6 N1        10.7332    4.7707   -1.5554 N.pl3     1 RES1    1.0000
      7 N2        10.8884    3.1388   -0.1079 N.3       1 RES1    0.0000
      8 C1        10.8040    4.4828   -0.2313 C.2       1 RES1    0.0000
      9 C2        10.5664    3.5468   -2.4009 C.3       1 RES1    0.0000
     10 C3        11.0479    2.4537   -1.4282 C.3       1 RES1    0.0000
     11 C4        10.7638    5.4510    0.8620 C.ar      1 RES1    0.0000
     12 C5        10.0384    6.6357    0.6770 C.ar      1 RES1    0.0000
     13 H1         9.6055    6.8022   -0.1402 H         1 RES1    0.0000
     14 C6         9.9645    7.5586    1.7043 C.ar      1 RES1    0.0000
     15 C7        10.6435    7.3469    2.8999 C.ar      1 RES1    0.0000
     16 H2        10.6033    7.9868    3.5881 H         1 RES1    0.0000
     17 C8        11.3731    6.1920    3.0695 C.ar      1 RES1    0.0000
     18 H3        11.8451    6.0576    3.8712 H         1 RES1    0.0000
     19 C9        11.4248    5.2191    2.0716 C.ar      1 RES1    0.0000
     20 H4        11.8989    4.4186    2.2103 H         1 RES1    0.0000
     21 C10        8.7355    9.1013    0.3308 C.3       1 RES1    0.0000
     22 H5         9.4683    9.0692   -0.3336 H         1 RES1    0.0000
     23 C11        8.2086   10.5155    0.4471 C.3       1 RES1    0.0000
     24 H6         7.8464   10.7962   -0.4079 H         1 RES1    0.0000
     25 H7         8.9319   11.1102    0.7022 H         1 RES1    0.0000
     26 H8         7.5117   10.5476    1.1199 H         1 RES1    0.0000
     27 C12        7.6088    8.1664   -0.0981 C.2       1 RES1    0.0000
     28 C13        6.7113    6.9996   -1.9552 C.3       1 RES1    0.0000
     29 H9         6.9035    6.8498   -2.8943 H         1 RES1    0.0000
     30 H10        5.8296    7.3933   -1.8655 H         1 RES1    0.0000
     31 H11        6.7388    6.1551   -1.4801 H         1 RES1    0.0000
     32 C14       11.3192    3.6574   -3.7030 C.3       1 RES1    0.0000
     33 H12       11.2591    2.8165   -4.1824 H         1 RES1    0.0000
     34 H13       12.2495    3.8608   -3.5222 H         1 RES1    0.0000
     35 H14       10.9317    4.3651   -4.2412 H         1 RES1    0.0000
     36 C15        9.0512    3.4826   -2.7093 C.3       1 RES1    0.0000
     37 H15        8.8685    2.7130   -3.2713 H         1 RES1    0.0000
     38 H16        8.7798    4.2914   -3.1718 H         1 RES1    0.0000
     39 H17        8.5549    3.4017   -1.8795 H         1 RES1    0.0000
     40 C16       12.5272    2.1397   -1.5404 C.3       1 RES1    0.0000
     41 H18       12.6993    1.6830   -2.3785 H         1 RES1    0.0000
     42 H19       12.7943    1.5712   -0.8003 H         1 RES1    0.0000
     43 H20       13.0361    2.9652   -1.5123 H         1 RES1    0.0000
     44 C17       10.2158    1.1680   -1.4563 C.3       1 RES1    0.0000
     45 H21       10.5833    0.5317   -0.8227 H         1 RES1    0.0000
     46 H22       10.2391    0.7874   -2.3477 H         1 RES1    0.0000
     47 H23        9.2993    1.3714   -1.2152 H         1 RES1    0.0000
@<TRIPOS>BOND
     1    1    6 1
     2    2    7 1
     3    3   14 1
     4    4   27 2
     5    5   27 1
     6    6    8 2
     7    7    8 1
     8    8   11 1
     9    9    6 1
    10   10    7 1
    11   11   12 ar
    12   12   13 1
    13   14   12 ar
    14   15   14 ar
    15   16   15 1
    16   17   15 ar
    17   18   17 1
    18   19   11 ar
    19   20   19 1
    20   21    3 1
    21   22   21 1
    22   23   21 1
    23   24   23 1
    24   25   23 1
    25   26   23 1
    26   27   21 1
    27   28    5 1
    28   29   28 1
    29   30   28 1
    30   31   28 1
    31   32    9 1
    32   33   32 1
    33   34   32 1
    34   35   32 1
    35   36    9 1
    36   37   36 1
    37   38   36 1
    38   39   36 1
    39   40   10 1
    40   41   40 1
    41   42   40 1
    42   43   40 1
    43   44   10 1
    44   45   44 1
    45   46   44 1
    46   47   44 1
    47    9   10 1
    48   17   19 ar
@<TRIPOS>SUBSTRUCTURE
     1 RES1 1

@<TRIPOS>CRYSIN
  10.5590   11.8940   14.0160  90.0000  90.0000  90.0000  19 1

