# MOL2 file generated by ConQuest
# Please check atom types

@<TRIPOS>MOLECULE
QIYYEC
    48    49     1
SMALL
NO_CHARGES
****
Generated from CSD

@<TRIPOS>ATOM
      1 C1         5.0119   11.3421    4.4804 C.3       1 RES1    0.0000
      2 C2         3.5651   10.5019    2.8669 C.3       1 RES1    0.0000
      3 C3         3.0196   11.8917    2.5769 C.3       1 RES1    0.0000
      4 C4         4.0709   12.9105    3.0043 C.3       1 RES1    0.0000
      5 C5         3.6083   14.3780    2.9794 C.3       1 RES1    0.0000
      6 C6         4.8232   15.2785    3.1634 C.2       1 RES1    0.0000
      7 C7         2.6821   11.9912    1.0960 C.3       1 RES1    0.0000
      8 C8         5.5468   11.1647    5.8696 C.ar      1 RES1    0.0000
      9 C9         5.9699   12.2724    6.6129 C.ar      1 RES1    0.0000
     10 C10        6.5427   12.1100    7.8567 C.ar      1 RES1    0.0000
     11 C11        6.7076   10.8418    8.3870 C.ar      1 RES1    0.0000
     12 C12        6.2836    9.7308    7.6759 C.ar      1 RES1    0.0000
     13 C13        5.7085    9.9068    6.4241 C.ar      1 RES1    0.0000
     14 C14        7.5405    9.5125   10.1901 C.3       1 RES1    0.0000
     15 C15        2.5650   14.7011    4.0392 C.3       1 RES1    0.0000
     16 C16        6.8200   16.2733    2.0835 C.3       1 RES1    0.0000
     17 C17        4.6289   15.7615   -0.1117 C.3       1 RES1    0.0000
     18 N1         5.5089   15.6413    2.0425 N.am      1 RES1    0.0000
     19 O1         4.0218   10.3637    4.2232 O.3       1 RES1    0.0000
     20 O2         4.4844   12.6399    4.3572 O.3       1 RES1    0.0000
     21 O3         7.3115   10.7969    9.6188 O.3       1 RES1    0.0000
     22 O4         5.1739   15.7142    4.2546 O.2       1 RES1    0.0000
     23 O5         5.2672   14.9209    0.8606 O.3       1 RES1    0.0000
     24 H1         5.7097   11.2273    3.7725 H         1 RES1    0.0000
     25 H2         4.3732   10.2868    2.2169 H         1 RES1    0.0000
     26 H3         2.8867    9.8733    2.7584 H         1 RES1    0.0000
     27 H4         2.1661   12.0059    3.1024 H         1 RES1    0.0000
     28 H5         4.8960   12.7639    2.3920 H         1 RES1    0.0000
     29 H6         3.2299   14.5352    2.0610 H         1 RES1    0.0000
     30 H7         2.1980   11.1659    0.8252 H         1 RES1    0.0000
     31 H8         3.4788   11.9481    0.5263 H         1 RES1    0.0000
     32 H9         2.0604   12.8030    0.9104 H         1 RES1    0.0000
     33 H10        5.8347   13.1476    6.2216 H         1 RES1    0.0000
     34 H11        6.8371   12.9129    8.3814 H         1 RES1    0.0000
     35 H12        6.3757    8.8563    8.0737 H         1 RES1    0.0000
     36 H13        5.4176    9.1152    5.9138 H         1 RES1    0.0000
     37 H14        7.9951    9.6945   11.1318 H         1 RES1    0.0000
     38 H15        8.0895    8.9234    9.5714 H         1 RES1    0.0000
     39 H16        6.6029    9.0575   10.2994 H         1 RES1    0.0000
     40 H17        2.9355   14.5966    4.9432 H         1 RES1    0.0000
     41 H18        1.7490   14.1552    3.9043 H         1 RES1    0.0000
     42 H19        2.3423   15.7309    4.0425 H         1 RES1    0.0000
     43 H20        7.5803   15.5857    2.0208 H         1 RES1    0.0000
     44 H21        6.8768   16.7516    2.9529 H         1 RES1    0.0000
     45 H22        6.8837   16.8876    1.3202 H         1 RES1    0.0000
     46 H23        4.5152   15.2262   -0.8477 H         1 RES1    0.0000
     47 H24        5.1960   16.6045   -0.2893 H         1 RES1    0.0000
     48 H25        3.7447   16.0382    0.2025 H         1 RES1    0.0000
@<TRIPOS>BOND
     1    1    8 1
     2    2    3 1
     3    3    4 1
     4    4    5 1
     5    5    6 1
     6    6   18 1
     7    7    3 1
     8    8    9 ar
     9    9   10 ar
    10   10   11 ar
    11   11   12 ar
    12   12   13 ar
    13   13    8 ar
    14   14   21 1
    15   15    5 1
    16   16   18 1
    17   17   23 1
    18   18   23 1
    19   19    1 1
    20   20    1 1
    21   21   11 1
    22   22    6 2
    23   24    1 1
    24   25    2 1
    25   26    2 1
    26   27    3 1
    27   28    4 1
    28   29    5 1
    29   30    7 1
    30   31    7 1
    31   32    7 1
    32   33    9 1
    33   34   10 1
    34   35   12 1
    35   36   13 1
    36   37   14 1
    37   38   14 1
    38   39   14 1
    39   40   15 1
    40   41   15 1
    41   42   15 1
    42   43   16 1
    43   44   16 1
    44   45   16 1
    45   46   17 1
    46   47   17 1
    47   48   17 1
    48    2   19 1
    49    4   20 1
@<TRIPOS>SUBSTRUCTURE
     1 RES1 1

@<TRIPOS>CRYSIN
  11.3648   18.6253    8.0351  90.0000  90.0000  90.0000  19 1

