# MOL2 file generated by ConQuest
# Please check atom types

@<TRIPOS>MOLECULE
QIZMAO
    42    44     1
SMALL
NO_CHARGES
****
Generated from CSD

@<TRIPOS>ATOM
      1 C1         5.9499    3.7179    4.7246 C.ar      1 RES1    0.0000
      2 C2        10.2492    8.9816    8.1941 C.ar      1 RES1    0.0000
      3 C3         9.6369    7.8338    8.7267 C.ar      1 RES1    0.0000
      4 N1         5.0834    2.8732    3.8920 N.pl3     1 RES1    0.0000
      5 C4         6.8084    4.2755    6.8753 C.ar      1 RES1    0.0000
      6 N2         9.2999    6.4036   10.7244 N.2       1 RES1    0.0000
      7 C5         7.4994    5.3564    6.3087 C.ar      1 RES1    0.0000
      8 C6        10.6154    8.3881   10.8712 C.ar      1 RES1    0.0000
      9 C7        11.0465    9.8209    8.9669 C.ar      1 RES1    0.0000
     10 O1         4.5842    1.8740    4.4050 O.2       1 RES1    0.0000
     11 C8         8.2644    6.2303    7.1498 C.1       1 RES1    0.0000
     12 C9         6.6296    4.7658    4.1276 C.ar      1 RES1    0.0000
     13 C10        8.8782    6.9638    7.8802 C.1       1 RES1    0.0000
     14 C11       11.2076    9.5076   10.3187 C.ar      1 RES1    0.0000
     15 C12        9.8285    7.5393   10.0910 C.ar      1 RES1    0.0000
     16 C13        7.4110    5.5864    4.9267 C.ar      1 RES1    0.0000
     17 C14        6.0313    3.4426    6.0817 C.ar      1 RES1    0.0000
     18 C15        5.5791    3.4532   10.3886 C.ar      1 RES1    0.0000
     19 O2         4.8829    3.2070    2.7316 O.2       1 RES1    0.0000
     20 C16        8.4038    5.6176   10.4864 C.2       1 RES1    0.0000
     21 C17        6.3221    4.5262   10.8446 C.ar      1 RES1    0.0000
     22 N3         7.6518    4.6679   10.3661 N.2       1 RES1    0.0000
     23 C18       11.7527   11.0017    8.3602 C.3       1 RES1    0.0000
     24 C19        4.2632    3.3043   10.8093 C.ar      1 RES1    0.0000
     25 C20        5.7752    5.4298   11.7548 C.ar      1 RES1    0.0000
     26 C21        3.6977    4.2186   11.6861 C.ar      1 RES1    0.0000
     27 C22        4.4616    5.2717   12.1686 C.ar      1 RES1    0.0000
     28 H1         6.5390    4.9315    3.1999 H         1 RES1    0.0000
     29 H2         7.8996    6.3267    4.5045 H         1 RES1    0.0000
     30 H3        10.1196    9.1746    7.2218 H         1 RES1    0.0000
     31 H4         6.8480    4.0900    7.8452 H         1 RES1    0.0000
     32 H5         6.3330    6.1549   12.0694 H         1 RES1    0.0000
     33 H6         5.9795    2.8124    9.7933 H         1 RES1    0.0000
     34 H7         5.5286    2.7189    6.4765 H         1 RES1    0.0000
     35 H8        11.7387   10.0818   10.9030 H         1 RES1    0.0000
     36 H9         3.7639    2.5447   10.5260 H         1 RES1    0.0000
     37 H10       11.2596   11.3794    7.6164 H         1 RES1    0.0000
     38 H11       11.9085   11.7429    8.9839 H         1 RES1    0.0000
     39 H12       12.6329   10.7802    7.9998 H         1 RES1    0.0000
     40 H13       10.7424    8.1483   11.8042 H         1 RES1    0.0000
     41 H14        4.0774    5.8842   12.7896 H         1 RES1    0.0000
     42 H15        2.7528    4.0742   11.9462 H         1 RES1    0.0000
@<TRIPOS>BOND
     1    1    4 1
     2    2    3 ar
     3    3   13 1
     4    4   10 2
     5    5    7 ar
     6    6   15 1
     7    7   11 1
     8    8   14 ar
     9    9    2 ar
    10   11   13 3
    11   12    1 ar
    12   14    9 ar
    13   15    3 ar
    14   16    7 ar
    15   17    1 ar
    16   18   21 ar
    17   19    4 2
    18   20    6 2
    19   21   22 1
    20   22   20 2
    21   23    9 1
    22   24   18 ar
    23   25   21 ar
    24   26   24 ar
    25   27   25 ar
    26   28   12 1
    27   29   16 1
    28   30    2 1
    29   31    5 1
    30   32   25 1
    31   33   18 1
    32   34   17 1
    33   35   14 1
    34   36   24 1
    35   37   23 1
    36   38   23 1
    37   39   23 1
    38   40    8 1
    39   41   27 1
    40   42   26 1
    41    5   17 ar
    42    8   15 ar
    43   12   16 ar
    44   26   27 ar
@<TRIPOS>SUBSTRUCTURE
     1 RES1 1

@<TRIPOS>CRYSIN
   8.3612    8.4846   12.9516  76.0270  86.7230  76.1150   2 1

