# MOL2 file generated by ConQuest
# Please check atom types

@<TRIPOS>MOLECULE
QOCNUT
    35    37     1
SMALL
NO_CHARGES
****
Generated from CSD

@<TRIPOS>ATOM
      1 C1        -1.2236    5.9472    6.0949 C.ar      1 RES1    0.0000
      2 C2        -1.6477    5.4788    7.3523 C.ar      1 RES1    0.0000
      3 C3        -2.8467    3.7960    6.3402 C.ar      1 RES1    0.0000
      4 C4        -2.3825    4.2410    5.1254 C.ar      1 RES1    0.0000
      5 H1        -2.6283    3.7713    4.3610 H         1 RES1    0.0000
      6 C5        -0.3619    7.1637    5.9562 C.3       1 RES1    0.0000
      7 H2        -0.2485    7.3712    5.0259 H         1 RES1    0.0000
      8 H3         0.4959    6.9952    6.3538 H         1 RES1    0.0000
      9 H4        -0.7794    7.9046    6.4004 H         1 RES1    0.0000
     10 C6        -3.7621    2.6126    6.4792 C.3       1 RES1    0.0000
     11 H5        -3.3362    1.9401    7.0155 H         1 RES1    0.0000
     12 H6        -3.9549    2.2536    5.6096 H         1 RES1    0.0000
     13 H7        -4.5790    2.8872    6.9005 H         1 RES1    0.0000
     14 C7        -1.1734    6.1760    8.6027 C.3       1 RES1    0.0000
     15 H8        -0.2333    6.3881    8.4908 H         1 RES1    0.0000
     16 H9        -1.6514    7.0160    8.6796 H         1 RES1    0.0000
     17 C8        -1.3301    5.4342    9.8897 C.2       1 RES1    0.0000
     18 C9        -2.0815    5.9254   10.9197 C.2       1 RES1    0.0000
     19 H10       -2.5391    6.7341   10.8926 H         1 RES1    0.0000
     20 C10       -1.3404    3.9826   11.6670 C.ar      1 RES1    0.0000
     21 C11       -1.1197    2.8546   12.4318 C.ar      1 RES1    0.0000
     22 H11       -1.4777    2.7773   13.2868 H         1 RES1    0.0000
     23 C12       -0.3572    1.8532   11.8950 C.ar      1 RES1    0.0000
     24 H12       -0.2116    1.0766   12.3842 H         1 RES1    0.0000
     25 C13        0.2014    1.9805   10.6301 C.ar      1 RES1    0.0000
     26 H13        0.7317    1.2979   10.2873 H         1 RES1    0.0000
     27 C14       -0.0261    3.1115    9.8826 C.ar      1 RES1    0.0000
     28 C15       -0.8185    4.1740   10.3486 C.ar      1 RES1    0.0000
     29 N1        -1.5939    5.3159    4.9827 N.ar      1 RES1    0.0000
     30 N2        -2.4692    4.4331    7.4657 N.ar      1 RES1    0.0000
     31 N3        -2.0786    5.0840   11.9926 N.pl3     1 RES1    0.0000
     32 H14       -2.7250    5.2120   12.7911 H         1 RES1    0.0000
     33 N4         0.6505    3.1607    8.5847 N.pl3     1 RES1    0.0000
     34 O1         0.7771    4.2365    8.0339 O.2       1 RES1    0.0000
     35 O2         1.0982    2.1229    8.1071 O.2       1 RES1    0.0000
@<TRIPOS>BOND
     1    1    2 ar
     2    2   14 1
     3    3    4 ar
     4    4    5 1
     5    6    1 1
     6    7    6 1
     7    8    6 1
     8    9    6 1
     9   10    3 1
    10   11   10 1
    11   12   10 1
    12   13   10 1
    13   14   15 1
    14   16   14 1
    15   17   14 1
    16   18   17 2
    17   19   18 1
    18   20   21 ar
    19   21   22 1
    20   23   21 ar
    21   24   23 1
    22   25   23 ar
    23   26   25 1
    24   27   25 ar
    25   28   17 1
    26   29    1 ar
    27   30    2 ar
    28   31   18 1
    29   32   31 1
    30   33   27 1
    31   34   33 2
    32   35   33 2
    33    3   30 ar
    34    4   29 ar
    35   20   28 ar
    36   20   31 1
    37   27   28 ar
@<TRIPOS>SUBSTRUCTURE
     1 RES1 1

@<TRIPOS>CRYSIN
   8.2193    8.2471   11.2596 103.7600  91.7640 110.7800   2 1

