# MOL2 file generated by ConQuest
# Please check atom types

@<TRIPOS>MOLECULE
QOCWUC
    45    49     1
SMALL
NO_CHARGES
****
Generated from CSD

@<TRIPOS>ATOM
      1 O1         5.0231    3.4902    5.3324 O.2       1 RES1    0.0000
      2 N1        11.8854    2.4149    0.1705 N.ar      1 RES1    0.0000
      3 O2        10.6993    6.4650    3.2939 O.2       1 RES1    0.0000
      4 N2         9.0151    4.9584    2.7096 N.am      1 RES1    0.0000
      5 O3         3.8805    5.2663    5.6863 O.2       1 RES1    0.0000
      6 C1         8.9322    3.7737    1.9357 C.2       1 RES1    0.0000
      7 C2        15.1338    3.8976    0.8723 C.ar      1 RES1    0.0000
      8 H1        16.0249    3.7312    0.6617 H         1 RES1    0.0000
      9 C3        14.1626    3.0739    0.3769 C.ar      1 RES1    0.0000
     10 H2        14.3965    2.3609   -0.1722 H         1 RES1    0.0000
     11 C4        12.8100    3.2978    0.6933 C.ar      1 RES1    0.0000
     12 C5        12.4864    4.4036    1.5444 C.ar      1 RES1    0.0000
     13 C6        11.1174    4.5194    1.8767 C.ar      1 RES1    0.0000
     14 C7        10.3330    5.4659    2.7133 C.2       1 RES1    0.0000
     15 C8         7.9240    5.5911    3.3609 C.ar      1 RES1    0.0000
     16 C9         7.0109    4.8393    4.0869 C.ar      1 RES1    0.0000
     17 H3         7.1277    3.9250    4.2073 H         1 RES1    0.0000
     18 C10        5.9230    5.4980    4.6238 C.ar      1 RES1    0.0000
     19 N3         4.8705    4.6961    5.2688 N.pl3     1 RES1    0.0000
     20 C11        5.7420    6.8571    4.5286 C.ar      1 RES1    0.0000
     21 H4         5.0057    7.2705    4.9185 H         1 RES1    0.0000
     22 C12        6.6822    7.5880    3.8388 C.ar      1 RES1    0.0000
     23 H5         6.5899    8.5107    3.7724 H         1 RES1    0.0000
     24 C13        7.7620    6.9646    3.2425 C.ar      1 RES1    0.0000
     25 H6         8.3807    7.4653    2.7611 H         1 RES1    0.0000
     26 C14       10.2545    3.5854    1.4078 C.ar      1 RES1    0.0000
     27 C15       10.6279    2.5591    0.5243 C.ar      1 RES1    0.0000
     28 C16        9.4966    1.7339   -0.0177 C.3       1 RES1    0.0000
     29 H7         9.8328    0.8545   -0.2524 H         1 RES1    0.0000
     30 H8         9.1649    2.1494   -0.8288 H         1 RES1    0.0000
     31 C17        8.3240    1.5726    0.9793 C.3       1 RES1    0.0000
     32 C18        7.9866    2.8607    1.7204 C.2       1 RES1    0.0000
     33 H9         7.1197    3.0098    2.0226 H         1 RES1    0.0000
     34 C19        7.0887    1.0826    0.2224 C.3       1 RES1    0.0000
     35 H10        7.2844    0.2437   -0.2012 H         1 RES1    0.0000
     36 H11        6.8450    1.7286   -0.4451 H         1 RES1    0.0000
     37 H12        6.3604    0.9690    0.8374 H         1 RES1    0.0000
     38 C20        8.7281    0.5423    2.0302 C.3       1 RES1    0.0000
     39 H13        8.0311    0.4630    2.6844 H         1 RES1    0.0000
     40 H14        9.5390    0.8241    2.4592 H         1 RES1    0.0000
     41 H15        8.8683   -0.3083    1.6065 H         1 RES1    0.0000
     42 C21       14.8120    4.9870    1.6894 C.ar      1 RES1    0.0000
     43 H16       15.4877    5.5420    2.0056 H         1 RES1    0.0000
     44 C22       13.5110    5.2418    2.0269 C.ar      1 RES1    0.0000
     45 H17       13.3039    5.9658    2.5735 H         1 RES1    0.0000
@<TRIPOS>BOND
     1    1   19 2
     2    2   11 ar
     3    3   14 2
     4    4    6 1
     5    5   19 2
     6    6   26 1
     7    7    8 1
     8    9    7 ar
     9   10    9 1
    10   11    9 ar
    11   12   11 ar
    12   13   12 ar
    13   14    4 1
    14   15    4 1
    15   16   15 ar
    16   17   16 1
    17   18   16 ar
    18   19   18 1
    19   20   18 ar
    20   21   20 1
    21   22   20 ar
    22   23   22 1
    23   24   15 ar
    24   25   24 1
    25   26   13 ar
    26   27    2 ar
    27   28   27 1
    28   29   28 1
    29   30   28 1
    30   31   28 1
    31   32    6 2
    32   33   32 1
    33   34   31 1
    34   35   34 1
    35   36   34 1
    36   37   34 1
    37   38   31 1
    38   39   38 1
    39   40   38 1
    40   41   38 1
    41   42    7 ar
    42   43   42 1
    43   44   12 ar
    44   45   44 1
    45   13   14 1
    46   22   24 ar
    47   26   27 ar
    48   31   32 1
    49   42   44 ar
@<TRIPOS>SUBSTRUCTURE
     1 RES1 1

@<TRIPOS>CRYSIN
  10.7669    9.7880   17.8714  90.0000 107.3920  90.0000  14 1

