# MOL2 file generated by ConQuest
# Please check atom types

@<TRIPOS>MOLECULE
QODFIZ
    49    53     1
SMALL
NO_CHARGES
****
Generated from CSD

@<TRIPOS>ATOM
      1 C1        -2.8922    1.4493    6.9851 C.2       1 RES1    0.0000
      2 C2        -2.3997    0.1590    7.5985 C.2       1 RES1    0.0000
      3 N1        -2.8003   -0.0676    8.7165 N.2       1 RES1    0.0000
      4 O1        -3.6076    1.0983    9.1353 O.3       1 RES1    0.0000
      5 C3        -3.6039    2.0137    8.0074 C.2       1 RES1    0.0000
      6 C4        -2.6473    2.0508    5.6593 C.2       1 RES1    0.0000
      7 C5        -1.7066    3.1543    5.5026 C.ar      1 RES1    0.0000
      8 C6        -1.1245    3.7002    6.6668 C.ar      1 RES1    0.0000
      9 H1        -1.3332    3.3782    7.5144 H         1 RES1    0.0000
     10 C7        -0.1849    4.7865    6.4772 C.ar      1 RES1    0.0000
     11 H2         0.3231    5.1468    7.1681 H         1 RES1    0.0000
     12 C8        -0.1122    5.2846    5.0360 C.ar      1 RES1    0.0000
     13 H3         0.4143    6.0331    4.8711 H         1 RES1    0.0000
     14 C9        -0.7291    4.7468    4.0021 C.ar      1 RES1    0.0000
     15 H4        -0.6428    5.0554    3.1298 H         1 RES1    0.0000
     16 C10       -1.5149    3.6790    4.3582 C.ar      1 RES1    0.0000
     17 H5        -1.9781    3.2789    3.6591 H         1 RES1    0.0000
     18 C11       -1.6322   -0.8532    6.8020 C.ar      1 RES1    0.0000
     19 C12       -0.7629   -0.5630    5.8572 C.ar      1 RES1    0.0000
     20 H6        -0.7049    0.3259    5.5884 H         1 RES1    0.0000
     21 C13        0.0959   -1.5050    5.2157 C.ar      1 RES1    0.0000
     22 H7         0.6164   -1.3063    4.4720 H         1 RES1    0.0000
     23 C14        0.0661   -2.7927    5.8473 C.ar      1 RES1    0.0000
     24 C15       -0.8595   -3.1636    6.9884 C.ar      1 RES1    0.0000
     25 H8        -0.8759   -4.0022    7.3907 H         1 RES1    0.0000
     26 C16       -1.6740   -2.1223    7.3627 C.ar      1 RES1    0.0000
     27 H9        -2.2949   -2.2787    8.0371 H         1 RES1    0.0000
     28 C17        0.9314   -3.8472    5.1629 C.2       1 RES1    0.0000
     29 C18        2.5535   -4.4778    3.4282 C.3       1 RES1    0.0000
     30 H10        2.9534   -3.9320    2.7422 H         1 RES1    0.0000
     31 H11        2.1554   -5.2502    3.0308 H         1 RES1    0.0000
     32 H12        3.2297   -4.7454    4.0548 H         1 RES1    0.0000
     33 C19       -4.3825    3.2113    8.2432 C.ar      1 RES1    0.0000
     34 C20       -4.3614    3.8326    9.4865 C.ar      1 RES1    0.0000
     35 H13       -3.8273    3.5412   10.1890 H         1 RES1    0.0000
     36 C21       -5.2135    4.9283    9.5871 C.ar      1 RES1    0.0000
     37 C22       -5.8197    5.4436    8.5697 C.ar      1 RES1    0.0000
     38 C23       -5.7949    4.8474    7.3099 C.ar      1 RES1    0.0000
     39 H14       -6.3320    5.1561    6.6157 H         1 RES1    0.0000
     40 C24       -4.9422    3.7783    7.1384 C.ar      1 RES1    0.0000
     41 H15       -4.7526    3.4538    6.2892 H         1 RES1    0.0000
     42 C25       -6.5989    6.5074   10.3209 C.3       1 RES1    0.0000
     43 H16       -7.4209    6.1232   10.6639 H         1 RES1    0.0000
     44 H17       -6.5092    7.4109   10.6623 H         1 RES1    0.0000
     45 O2        -3.2173    1.4745    4.7276 O.2       1 RES1    0.0000
     46 O3         1.0303   -4.9826    5.9000 O.2       1 RES1    0.0000
     47 O4         1.4491   -3.6406    4.1769 O.3       1 RES1    0.0000
     48 O5        -5.4041    5.6622   10.7266 O.3       1 RES1    0.0000
     49 O6        -6.6015    6.5074    8.9853 O.3       1 RES1    0.0000
@<TRIPOS>BOND
     1    1    2 1
     2    2    3 2
     3    3    4 1
     4    4    5 1
     5    5    1 2
     6    6    1 1
     7    7    6 1
     8    8    7 ar
     9    9    8 1
    10   10    8 ar
    11   11   10 1
    12   12   10 ar
    13   13   12 1
    14   14   12 ar
    15   15   14 1
    16   16    7 ar
    17   17   16 1
    18   18    2 1
    19   19   18 ar
    20   20   19 1
    21   21   19 ar
    22   22   21 1
    23   23   21 ar
    24   24   23 ar
    25   25   24 1
    26   26   18 ar
    27   27   26 1
    28   28   23 1
    29   29   30 1
    30   31   29 1
    31   32   29 1
    32   33    5 1
    33   34   33 ar
    34   35   34 1
    35   36   34 ar
    36   37   36 ar
    37   38   37 ar
    38   39   38 1
    39   40   33 ar
    40   41   40 1
    41   42   43 1
    42   44   42 1
    43   45    6 2
    44   46   28 2
    45   47   28 1
    46   48   36 1
    47   49   37 1
    48   14   16 ar
    49   24   26 ar
    50   29   47 1
    51   38   40 ar
    52   42   48 1
    53   42   49 1
@<TRIPOS>SUBSTRUCTURE
     1 RES1 1

@<TRIPOS>CRYSIN
  18.2150   13.2480   19.0210  90.0000 119.8970  90.0000  14 1

