# MOL2 file generated by ConQuest
# Please check atom types

@<TRIPOS>MOLECULE
QODFOF
    49    51     1
SMALL
NO_CHARGES
****
Generated from CSD

@<TRIPOS>ATOM
      1 N1        -1.2135    3.1025    7.2538 N.am      1 RES1    0.0000
      2 N2        -2.5861    7.4791    7.8613 N.am      1 RES1    0.0000
      3 O1        -0.4991    3.1214    5.0742 O.2       1 RES1    0.0000
      4 O2        -1.8751    3.6794    9.3663 O.2       1 RES1    0.0000
      5 O3        -3.7202    5.5192    7.7964 O.2       1 RES1    0.0000
      6 O4        -1.3350    8.0547    7.5716 O.3       1 RES1    0.0000
      7 H1        -1.1531    8.4604    8.3158 H         1 RES1    0.0000
      8 C1        -1.5114    4.0025    8.2493 C.2       1 RES1    0.0000
      9 C2        -1.3109    5.4071    7.7264 C.3       1 RES1    0.0000
     10 H2        -0.6535    5.8772    8.2795 H         1 RES1    0.0000
     11 C3        -0.7571    5.2352    6.2746 C.3       1 RES1    0.0000
     12 C4        -0.7940    3.7235    6.0697 C.2       1 RES1    0.0000
     13 C5        -2.6546    6.1243    7.7956 C.2       1 RES1    0.0000
     14 C6        -1.5978    5.9028    5.1839 C.3       1 RES1    0.0000
     15 H3        -1.1908    5.7505    4.3271 H         1 RES1    0.0000
     16 H4        -1.6474    6.8467    5.3515 H         1 RES1    0.0000
     17 H5        -2.4828    5.5304    5.1890 H         1 RES1    0.0000
     18 C7         0.7000    5.6962    6.1865 C.3       1 RES1    0.0000
     19 H6         1.0188    5.5798    5.2884 H         1 RES1    0.0000
     20 H7         1.2377    5.1744    6.7868 H         1 RES1    0.0000
     21 H8         0.7574    6.6227    6.4294 H         1 RES1    0.0000
     22 C8        -3.7127    8.3426    7.6815 C.ar      1 RES1    0.0000
     23 C9        -3.7270    9.2417    6.6261 C.ar      1 RES1    0.0000
     24 H9        -3.0102    9.2885    6.0357 H         1 RES1    0.0000
     25 C10       -4.8300   10.0721    6.4638 C.ar      1 RES1    0.0000
     26 H10       -4.8537   10.6768    5.7567 H         1 RES1    0.0000
     27 C11       -5.8935   10.0051    7.3489 C.ar      1 RES1    0.0000
     28 H11       -6.6383   10.5474    7.2226 H         1 RES1    0.0000
     29 C12       -5.8497    9.1302    8.4244 C.ar      1 RES1    0.0000
     30 H12       -6.5530    9.1058    9.0326 H         1 RES1    0.0000
     31 C13       -4.7554    8.2898    8.5947 C.ar      1 RES1    0.0000
     32 H13       -4.7237    7.6989    9.3116 H         1 RES1    0.0000
     33 C14       -1.3606    1.6793    7.4254 C.ar      1 RES1    0.0000
     34 C15       -0.3546    0.9690    8.0846 C.ar      1 RES1    0.0000
     35 C16       -0.5532   -0.3950    8.2719 C.ar      1 RES1    0.0000
     36 H14        0.0948   -0.8975    8.7096 H         1 RES1    0.0000
     37 C17       -1.6983   -1.0114    7.8162 C.ar      1 RES1    0.0000
     38 H15       -1.8107   -1.9257    7.9431 H         1 RES1    0.0000
     39 C18       -2.6813   -0.2821    7.1721 C.ar      1 RES1    0.0000
     40 H16       -3.4530   -0.7108    6.8786 H         1 RES1    0.0000
     41 C19       -2.5299    1.0826    6.9575 C.ar      1 RES1    0.0000
     42 C20        0.8728    1.6638    8.6115 C.3       1 RES1    0.0000
     43 H17        1.4489    1.0215    9.0306 H         1 RES1    0.0000
     44 H18        0.6135    2.3285    9.2543 H         1 RES1    0.0000
     45 H19        1.3382    2.0844    7.8858 H         1 RES1    0.0000
     46 C21       -3.5755    1.8822    6.2318 C.3       1 RES1    0.0000
     47 H20       -3.2994    2.8006    6.1829 H         1 RES1    0.0000
     48 H21       -4.4086    1.8230    6.7047 H         1 RES1    0.0000
     49 H22       -3.6859    1.5336    5.3438 H         1 RES1    0.0000
@<TRIPOS>BOND
     1    1    8 1
     2    2    6 1
     3    3   12 2
     4    4    8 2
     5    5   13 2
     6    6    7 1
     7    8    9 1
     8    9   10 1
     9   11    9 1
    10   12    1 1
    11   13    2 1
    12   14   11 1
    13   15   14 1
    14   16   14 1
    15   17   14 1
    16   18   11 1
    17   19   18 1
    18   20   18 1
    19   21   18 1
    20   22    2 1
    21   23   22 ar
    22   24   23 1
    23   25   23 ar
    24   26   25 1
    25   27   25 ar
    26   28   27 1
    27   29   27 ar
    28   30   29 1
    29   31   22 ar
    30   32   31 1
    31   33    1 1
    32   34   33 ar
    33   35   34 ar
    34   36   35 1
    35   37   35 ar
    36   38   37 1
    37   39   37 ar
    38   40   39 1
    39   41   33 ar
    40   42   34 1
    41   43   42 1
    42   44   42 1
    43   45   42 1
    44   46   41 1
    45   47   46 1
    46   48   46 1
    47   49   46 1
    48    9   13 1
    49   11   12 1
    50   29   31 ar
    51   39   41 ar
@<TRIPOS>SUBSTRUCTURE
     1 RES1 1

@<TRIPOS>CRYSIN
   7.4991   13.3360   19.3906  90.0000  99.7160  90.0000  14 1

