# MOL2 file generated by ConQuest
# Please check atom types

@<TRIPOS>MOLECULE
QOFHEZ
    33    34     1
SMALL
NO_CHARGES
****
Generated from CSD

@<TRIPOS>ATOM
      1 O1         6.7326   11.5453   -0.8642 O.2       1 RES1    0.0000
      2 O2         6.3241   13.4216    0.0899 O.2       1 RES1    0.0000
      3 N1         6.0603   12.2413   -0.1187 N.pl3     1 RES1    0.0000
      4 N2         1.5358   10.1148    2.3130 N.3       1 RES1    0.0000
      5 N3         1.0518    8.8884    1.9524 N.2       1 RES1    0.0000
      6 C1         4.9079   11.6748    0.5306 C.ar      1 RES1    0.0000
      7 C2         4.4882   10.4136    0.1880 C.ar      1 RES1    0.0000
      8 H1         4.9645    9.9193   -0.4389 H         1 RES1    0.0000
      9 C3         3.3746    9.8857    0.7662 C.ar      1 RES1    0.0000
     10 H2         3.0912    9.0328    0.5261 H         1 RES1    0.0000
     11 C4         2.6574   10.6066    1.7114 C.ar      1 RES1    0.0000
     12 C5         3.0975   11.8840    2.0594 C.ar      1 RES1    0.0000
     13 H3         2.6322   12.3770    2.6961 H         1 RES1    0.0000
     14 C6         4.2113   12.4156    1.4667 C.ar      1 RES1    0.0000
     15 H4         4.4986   13.2710    1.6925 H         1 RES1    0.0000
     16 C7        -0.0647    8.5323    2.4757 C.2       1 RES1    0.0000
     17 H5        -0.4881    9.0951    3.0837 H         1 RES1    0.0000
     18 C8        -0.6615    7.2860    2.1358 C.2       1 RES1    0.0000
     19 H6        -0.1936    6.7146    1.5711 H         1 RES1    0.0000
     20 C9        -1.8442    6.8963    2.5792 C.2       1 RES1    0.0000
     21 H7        -2.2805    7.4915    3.1448 H         1 RES1    0.0000
     22 C10       -2.5553    5.6525    2.2959 C.ar      1 RES1    0.0000
     23 C11       -2.0720    4.6677    1.4515 C.ar      1 RES1    0.0000
     24 H8        -1.2317    4.7648    1.0648 H         1 RES1    0.0000
     25 C12       -2.8167    3.5534    1.1808 C.ar      1 RES1    0.0000
     26 H9        -2.4819    2.9109    0.5971 H         1 RES1    0.0000
     27 C13       -4.0419    3.3654    1.7491 C.ar      1 RES1    0.0000
     28 H10       -4.5425    2.6071    1.5504 H         1 RES1    0.0000
     29 C14       -4.5239    4.3029    2.6124 C.ar      1 RES1    0.0000
     30 H11       -5.3461    4.1659    3.0243 H         1 RES1    0.0000
     31 C15       -3.8062    5.4595    2.8867 C.ar      1 RES1    0.0000
     32 H12       -4.1563    6.1020    3.4614 H         1 RES1    0.0000
     33 H13        1.0846   10.6078    2.9047 H         1 RES1    0.0000
@<TRIPOS>BOND
     1    1    3 2
     2    2    3 2
     3    3    6 1
     4    4    5 1
     5    5   16 2
     6    6    7 ar
     7    7    8 1
     8    9    7 ar
     9   10    9 1
    10   11    4 1
    11   12   11 ar
    12   13   12 1
    13   14    6 ar
    14   15   14 1
    15   16   17 1
    16   18   16 1
    17   19   18 1
    18   20   18 2
    19   21   20 1
    20   22   20 1
    21   23   22 ar
    22   24   23 1
    23   25   23 ar
    24   26   25 1
    25   27   25 ar
    26   28   27 1
    27   29   27 ar
    28   30   29 1
    29   31   22 ar
    30   32   31 1
    31   33    4 1
    32    9   11 ar
    33   12   14 ar
    34   29   31 ar
@<TRIPOS>SUBSTRUCTURE
     1 RES1 1

@<TRIPOS>CRYSIN
   6.1011   12.4505    9.0076  90.0000  93.2730  90.0000   7 1

