# MOL2 file generated by ConQuest
# Please check atom types

@<TRIPOS>MOLECULE
QOFYER
    67    71     1
SMALL
NO_CHARGES
****
Generated from CSD

@<TRIPOS>ATOM
      1 C1         4.0709    7.8985    8.1757 C.ar      1 RES1    0.0000
      2 C2         5.0531    8.7231    7.6631 C.ar      1 RES1    0.0000
      3 H1         5.8281    8.3703    7.2880 H         1 RES1    0.0000
      4 C3         4.8496   10.0656    7.7239 C.ar      1 RES1    0.0000
      5 H2         5.5016   10.6424    7.3966 H         1 RES1    0.0000
      6 C4         3.6844   10.5920    8.2683 C.ar      1 RES1    0.0000
      7 H3         3.5691   11.5146    8.2886 H         1 RES1    0.0000
      8 C5         2.6957    9.7787    8.7766 C.ar      1 RES1    0.0000
      9 H4         1.9204   10.1468    9.1372 H         1 RES1    0.0000
     10 C6         2.8757    8.3955    8.7433 C.ar      1 RES1    0.0000
     11 C7         2.1025    7.2671    9.1647 C.2       1 RES1    0.0000
     12 C8         2.8226    6.1850    8.8447 C.2       1 RES1    0.0000
     13 H5         2.5503    5.3086    8.9982 H         1 RES1    0.0000
     14 C9         0.7411    7.2643    9.7946 C.3       1 RES1    0.0000
     15 H6         0.2844    6.4482    9.5383 H         1 RES1    0.0000
     16 H7         0.2346    8.0091    9.4369 H         1 RES1    0.0000
     17 C10        0.7485    7.3623   11.3136 C.3       1 RES1    0.0000
     18 H8        -0.1597    7.2769   11.6394 H         1 RES1    0.0000
     19 H9         1.2654    6.6260   11.6756 H         1 RES1    0.0000
     20 C11        2.5835    8.7399   12.1433 C.2       1 RES1    0.0000
     21 H10        3.0537    7.9545   12.3113 H         1 RES1    0.0000
     22 C12        3.2763    9.9074   12.2794 C.2       1 RES1    0.0000
     23 C13        2.6361   11.1520   11.9333 C.2       1 RES1    0.0000
     24 C14        2.9788   13.5025   11.6698 C.3       1 RES1    0.0000
     25 H11        2.1543   13.6621   12.1361 H         1 RES1    0.0000
     26 H12        2.8227   13.5347   10.7228 H         1 RES1    0.0000
     27 H13        3.6184   14.1745   11.9116 H         1 RES1    0.0000
     28 C15        6.0303    7.9853   13.6493 C.ar      1 RES1    0.0000
     29 C16        6.7479    6.8052   13.5218 C.ar      1 RES1    0.0000
     30 H14        7.1446    6.4132   14.2661 H         1 RES1    0.0000
     31 C17        6.8671    6.2172   12.2838 C.ar      1 RES1    0.0000
     32 H15        7.3534    5.4304   12.1896 H         1 RES1    0.0000
     33 C18        6.2690    6.7912   11.1789 C.ar      1 RES1    0.0000
     34 H16        6.3300    6.3824   10.3463 H         1 RES1    0.0000
     35 C19        5.5797    7.9769   11.3266 C.ar      1 RES1    0.0000
     36 H17        5.1927    8.3745   10.5794 H         1 RES1    0.0000
     37 C20        5.4491    8.5929   12.5661 C.ar      1 RES1    0.0000
     38 C21        4.7471    9.9326   12.6574 C.3       1 RES1    0.0000
     39 H18        5.1941   10.5290   12.0202 H         1 RES1    0.0000
     40 C22        4.9272   10.5556   14.0518 C.3       1 RES1    0.0000
     41 H19        4.1582   11.1380   14.2241 H         1 RES1    0.0000
     42 C23        4.9832    9.5071   15.1509 C.3       1 RES1    0.0000
     43 H20        4.1152    9.0507   15.1668 H         1 RES1    0.0000
     44 C24        5.1988   10.1076   16.5092 C.ar      1 RES1    0.0000
     45 C25        6.4559   10.2210   17.0739 C.ar      1 RES1    0.0000
     46 H21        7.1958    9.8738   16.6294 H         1 RES1    0.0000
     47 C26        6.6186   10.8454   18.2888 C.ar      1 RES1    0.0000
     48 H22        7.4694   10.8930   18.6610 H         1 RES1    0.0000
     49 C27        5.5591   11.3998   18.9723 C.ar      1 RES1    0.0000
     50 C28        5.7420   12.0914   20.2958 C.3       1 RES1    0.0000
     51 H23        6.6729   12.2888   20.4261 H         1 RES1    0.0000
     52 H24        5.4350   11.5188   21.0010 H         1 RES1    0.0000
     53 H25        5.2366   12.9075   20.3030 H         1 RES1    0.0000
     54 C29        4.3113   11.2906   18.3945 C.ar      1 RES1    0.0000
     55 H26        3.5758   11.6602   18.8275 H         1 RES1    0.0000
     56 C30        4.1318   10.6494   17.1941 C.ar      1 RES1    0.0000
     57 H27        3.2751   10.5794   16.8379 H         1 RES1    0.0000
     58 N1         4.0162    6.5364    8.2582 N.pl3     1 RES1    0.0000
     59 H28        4.6239    5.9904    7.9903 H         1 RES1    0.0000
     60 N2         1.3059    8.6083   11.7942 N.pl3     1 RES1    0.0000
     61 H29        0.7894    9.2929   11.8580 H         1 RES1    0.0000
     62 N3         6.1643   11.3984   14.0938 N.pl3     1 RES1    0.0000
     63 O1         1.4811   11.3022   11.5886 O.2       1 RES1    0.0000
     64 O2         3.4875   12.2034   12.0280 O.3       1 RES1    0.0000
     65 O3         7.2172   10.9042   13.7535 O.2       1 RES1    0.0000
     66 O4         6.0559   12.5478   14.4718 O.2       1 RES1    0.0000
     67 O5         5.9857    8.5167   14.9140 O.3       1 RES1    0.0000
@<TRIPOS>BOND
     1    1    2 ar
     2    2    3 1
     3    4    2 ar
     4    5    4 1
     5    6    4 ar
     6    7    6 1
     7    8    6 ar
     8    9    8 1
     9   10    1 ar
    10   11   10 1
    11   12   11 2
    12   13   12 1
    13   14   11 1
    14   15   14 1
    15   16   14 1
    16   17   14 1
    17   18   17 1
    18   19   17 1
    19   20   21 1
    20   22   20 2
    21   23   22 1
    22   24   25 1
    23   26   24 1
    24   27   24 1
    25   28   29 ar
    26   29   30 1
    27   31   29 ar
    28   32   31 1
    29   33   31 ar
    30   34   33 1
    31   35   33 ar
    32   36   35 1
    33   37   28 ar
    34   38   22 1
    35   39   38 1
    36   40   38 1
    37   41   40 1
    38   42   40 1
    39   43   42 1
    40   44   42 1
    41   45   44 ar
    42   46   45 1
    43   47   45 ar
    44   48   47 1
    45   49   47 ar
    46   50   49 1
    47   51   50 1
    48   52   50 1
    49   53   50 1
    50   54   49 ar
    51   55   54 1
    52   56   44 ar
    53   57   56 1
    54   58    1 1
    55   59   58 1
    56   60   17 1
    57   61   60 1
    58   62   40 1
    59   63   23 2
    60   64   23 1
    61   65   62 2
    62   66   62 2
    63   67   28 1
    64    8   10 ar
    65   12   58 1
    66   20   60 1
    67   24   64 1
    68   35   37 ar
    69   37   38 1
    70   42   67 1
    71   54   56 ar
@<TRIPOS>SUBSTRUCTURE
     1 RES1 1

@<TRIPOS>CRYSIN
  13.1823   13.9995   16.9980  90.0000 121.5820  90.0000  14 1

