# MOL2 file generated by ConQuest
# Please check atom types

@<TRIPOS>MOLECULE
QOGPAF
    61    64     1
SMALL
NO_CHARGES
****
Generated from CSD

@<TRIPOS>ATOM
      1 O1         1.9404   10.8679    8.1135 O.3       1 RES1    0.0000
      2 N1         3.1559   10.1430    7.7099 N.3       1 RES1    0.0000
      3 C1         2.9007    8.6602    7.6877 C.3       1 RES1    0.0000
      4 N2         3.4118    8.1898    8.9929 N.am      1 RES1    0.0000
      5 C2         3.2996    6.8097    9.4396 C.3       1 RES1    0.0000
      6 H1         3.8195    6.7295   10.2401 H         1 RES1    0.0000
      7 H2         2.3584    6.6288    9.6683 H         1 RES1    0.0000
      8 H3         3.5969    6.2149    8.7516 H         1 RES1    0.0000
      9 C3         4.1429    9.1021    9.6431 C.2       1 RES1    0.0000
     10 C4         4.1180   10.3845    8.8204 C.3       1 RES1    0.0000
     11 C5         3.5801   11.5907    9.5852 C.3       1 RES1    0.0000
     12 C6         2.0921   11.2422    9.5034 C.3       1 RES1    0.0000
     13 C7         0.9590   12.2091    9.8350 C.3       1 RES1    0.0000
     14 C8         0.9589   13.5907    9.1970 C.3       1 RES1    0.0000
     15 C9         1.5779   14.7001   10.0513 C.3       1 RES1    0.0000
     16 C10        2.8997   14.3737   10.7364 C.3       1 RES1    0.0000
     17 C11        4.0942   14.1234    9.8186 C.3       1 RES1    0.0000
     18 C12        4.0100   12.9021    8.9037 C.3       1 RES1    0.0000
     19 H4         4.9093   12.7329    8.5515 H         1 RES1    0.0000
     20 H5         3.4078   13.0697    8.1546 H         1 RES1    0.0000
     21 H6         4.9070   13.9804   10.3961 H         1 RES1    0.0000
     22 H7         4.2492   14.9549    9.2588 H         1 RES1    0.0000
     23 H8         3.1169   15.1316   11.3301 H         1 RES1    0.0000
     24 H9         2.7914   13.5788   11.3286 H         1 RES1    0.0000
     25 H10        0.9286   14.9280   10.7615 H         1 RES1    0.0000
     26 H11        1.6894   15.5254    9.5045 H         1 RES1    0.0000
     27 H12       -0.0067   13.8327    9.0146 H         1 RES1    0.0000
     28 H13        1.4253   13.5262    8.3294 H         1 RES1    0.0000
     29 H14        0.9767   12.3279   10.8308 H         1 RES1    0.0000
     30 H15        0.1432   11.7495    9.5707 H         1 RES1    0.0000
     31 H16        1.9478   10.4126   10.0511 H         1 RES1    0.0000
     32 H17        3.9012   11.5784   10.5173 H         1 RES1    0.0000
     33 H18        5.0178   10.5356    8.4791 H         1 RES1    0.0000
     34 O2         4.7432    8.9527   10.7031 O.2       1 RES1    0.0000
     35 C13        3.7159    8.0283    6.5229 C.3       1 RES1    0.0000
     36 C14        3.1135    8.4560    5.1818 C.3       1 RES1    0.0000
     37 C15        1.6467    8.0823    5.0634 C.3       1 RES1    0.0000
     38 C16        0.8284    8.7051    6.1879 C.3       1 RES1    0.0000
     39 C17        1.4247    8.2976    7.5359 C.3       1 RES1    0.0000
     40 H19        0.9219    8.7098    8.2696 H         1 RES1    0.0000
     41 H20        1.3660    7.3158    7.6017 H         1 RES1    0.0000
     42 C18       -0.6380    8.3145    6.1025 C.3       1 RES1    0.0000
     43 H21       -1.1456    8.7344    6.8189 H         1 RES1    0.0000
     44 H22       -1.0405    8.5610    5.2390 H         1 RES1    0.0000
     45 H23       -0.7239    7.3516    6.2613 H         1 RES1    0.0000
     46 H24        0.8973    9.6742    6.1305 H         1 RES1    0.0000
     47 H25        1.2956    8.3831    4.1742 H         1 RES1    0.0000
     48 H26        1.5462    7.0987    5.1366 H         1 RES1    0.0000
     49 H27        3.2322    9.4135    5.0815 H         1 RES1    0.0000
     50 H28        3.6182    8.0553    4.4514 H         1 RES1    0.0000
     51 C19        5.2509    8.2383    6.5804 C.3       1 RES1    0.0000
     52 C20        5.9644    7.0124    5.9958 C.3       1 RES1    0.0000
     53 H29        6.9331    7.1345    6.0155 H         1 RES1    0.0000
     54 H30        5.7338    6.1824    6.4928 H         1 RES1    0.0000
     55 H31        5.6991    6.8671    5.0689 H         1 RES1    0.0000
     56 C21        5.7592    9.5012    5.8810 C.3       1 RES1    0.0000
     57 H32        6.7049    9.6037    6.0707 H         1 RES1    0.0000
     58 H33        5.2717   10.2884    6.1683 H         1 RES1    0.0000
     59 H34        5.6723    9.4224    4.8940 H         1 RES1    0.0000
     60 H35        5.5156    8.2947    7.5324 H         1 RES1    0.0000
     61 H36        3.5275    7.0786    6.6094 H         1 RES1    0.0000
@<TRIPOS>BOND
     1    1    2 1
     2    2    3 1
     3    3    4 1
     4    4    5 1
     5    5    6 1
     6    7    5 1
     7    8    5 1
     8    9    4 1
     9   10    2 1
    10   11   10 1
    11   12    1 1
    12   13   12 1
    13   14   13 1
    14   15   14 1
    15   16   15 1
    16   17   16 1
    17   18   11 1
    18   19   18 1
    19   20   18 1
    20   21   17 1
    21   22   17 1
    22   23   16 1
    23   24   16 1
    24   25   15 1
    25   26   15 1
    26   27   14 1
    27   28   14 1
    28   29   13 1
    29   30   13 1
    30   31   12 1
    31   32   11 1
    32   33   10 1
    33   34    9 2
    34   35    3 1
    35   36   35 1
    36   37   36 1
    37   38   37 1
    38   39    3 1
    39   40   39 1
    40   41   39 1
    41   42   38 1
    42   43   42 1
    43   44   42 1
    44   45   42 1
    45   46   38 1
    46   47   37 1
    47   48   37 1
    48   49   36 1
    49   50   36 1
    50   51   35 1
    51   52   51 1
    52   53   52 1
    53   54   52 1
    54   55   52 1
    55   56   51 1
    56   57   56 1
    57   58   56 1
    58   59   56 1
    59   60   51 1
    60   61   35 1
    61    9   10 1
    62   11   12 1
    63   17   18 1
    64   38   39 1
@<TRIPOS>SUBSTRUCTURE
     1 RES1 1

@<TRIPOS>CRYSIN
  11.1879   11.1879   15.7516  90.0000  90.0000  90.0000  78 1

