# MOL2 file generated by ConQuest
# Please check atom types

@<TRIPOS>MOLECULE
QOGYOB
    34    37     1
SMALL
NO_CHARGES
****
Generated from CSD

@<TRIPOS>ATOM
      1 O1         3.8778    0.8084    8.8851 O.3       1 RES1    0.0000
      2 O2         5.1311    2.5971    9.3814 O.2       1 RES1    0.0000
      3 O3         4.4111   -0.6273   14.7748 O.2       1 RES1    0.0000
      4 N1         4.5278   -0.0817   13.5968 N.pl3     1 RES1    0.0000
      5 N2         3.8321   -0.0157   11.3531 N.ar      1 RES1    0.0000
      6 C1         3.7887   -0.5299   12.5578 C.ar      1 RES1    0.0000
      7 H1         3.2025   -1.2619   12.7106 H         1 RES1    0.0000
      8 C2         4.6600    1.0069   11.1131 C.ar      1 RES1    0.0000
      9 C3         5.5027    1.5347   12.1062 C.ar      1 RES1    0.0000
     10 C4         6.4701    2.6028   11.8860 C.ar      1 RES1    0.0000
     11 H2         6.6185    2.9761   11.0255 H         1 RES1    0.0000
     12 C5         7.1359    3.0275   12.9690 C.ar      1 RES1    0.0000
     13 C6         8.1365    4.0061   13.5442 C.ar      1 RES1    0.0000
     14 C7         9.0043    5.0470   13.2813 C.ar      1 RES1    0.0000
     15 H3         9.1534    5.3915   12.4095 H         1 RES1    0.0000
     16 C8         9.6582    5.5564   14.4362 C.ar      1 RES1    0.0000
     17 H4        10.2740    6.2706   14.3351 H         1 RES1    0.0000
     18 C9         9.4270    5.0543   15.6945 C.ar      1 RES1    0.0000
     19 H5         9.8702    5.4575   16.4337 H         1 RES1    0.0000
     20 C10        8.5758    3.9835   15.9371 C.ar      1 RES1    0.0000
     21 H6         8.4499    3.6228   16.8067 H         1 RES1    0.0000
     22 C11        7.9305    3.4819   14.8362 C.ar      1 RES1    0.0000
     23 C12        6.9526    2.4923   14.3037 C.ar      1 RES1    0.0000
     24 C13        6.1212    1.4692   14.5486 C.ar      1 RES1    0.0000
     25 H7         6.0280    1.0880   15.4136 H         1 RES1    0.0000
     26 C14        5.3886    0.9912   13.4184 C.ar      1 RES1    0.0000
     27 C15        4.6106    1.5682    9.7088 C.2       1 RES1    0.0000
     28 C16        3.8530    1.3195    7.5068 C.3       1 RES1    0.0000
     29 H8         4.7728    1.4478    7.1653 H         1 RES1    0.0000
     30 H9         3.3739    2.1845    7.4641 H         1 RES1    0.0000
     31 C17        3.1292    0.2717    6.7002 C.3       1 RES1    0.0000
     32 H10        3.7762   -0.3791    6.3564 H         1 RES1    0.0000
     33 H11        2.6641    0.6995    5.9497 H         1 RES1    0.0000
     34 H12        2.4776   -0.1859    7.2709 H         1 RES1    0.0000
@<TRIPOS>BOND
     1    1   27 1
     2    2   27 2
     3    3    4 1
     4    4    6 ar
     5    5    6 ar
     6    6    7 1
     7    8    5 ar
     8    9    8 ar
     9   10    9 ar
    10   11   10 1
    11   12   10 ar
    12   13   12 1
    13   14   13 ar
    14   15   14 1
    15   16   14 ar
    16   17   16 1
    17   18   16 ar
    18   19   18 1
    19   20   18 ar
    20   21   20 1
    21   22   13 ar
    22   23   12 ar
    23   24   23 ar
    24   25   24 1
    25   26    4 ar
    26   27    8 1
    27   28    1 1
    28   29   28 1
    29   30   28 1
    30   31   28 1
    31   32   31 1
    32   33   31 1
    33   34   31 1
    34    9   26 ar
    35   20   22 ar
    36   22   23 1
    37   24   26 ar
@<TRIPOS>SUBSTRUCTURE
     1 RES1 1

@<TRIPOS>CRYSIN
  22.5880    5.2360   23.2110  90.0000 104.5280  90.0000  15 1

