# MOL2 file generated by ConQuest
# Please check atom types

@<TRIPOS>MOLECULE
QOHFUQ
    52    50     2
SMALL
NO_CHARGES
****
Generated from CSD

@<TRIPOS>ATOM
      1 C1         6.6100    5.4662   17.7687 C.3       1 RES1    0.0000
      2 H1         7.5115    5.1084   17.6293 H         1 RES1    0.0000
      3 H2         6.0442    4.7782   18.1778 H         1 RES1    0.0000
      4 H3         6.6559    6.2460   18.3606 H         1 RES1    0.0000
      5 O1         6.0441    5.8611   16.4930 O.3       1 RES1    0.0000
      6 C2         4.9664    5.2229   16.1057 C.2       1 RES1    0.0000
      7 O2         4.4432    4.4132   16.7835 O.2       1 RES1    0.0000
      8 C3         4.4493    5.6839   14.7868 C.3       1 RES1    0.0000
      9 H4         5.1505    6.2097   14.3272 H         1 RES1    0.0000
     10 H5         3.6697    6.2766   14.9325 H         1 RES1    0.0000
     11 C4         4.0362    4.5249   13.9024 C.3       1 RES1    0.0000
     12 H6         3.4114    3.9351   14.4155 H         1 RES1    0.0000
     13 O3         5.2391    3.8000   13.6373 O.3       1 RES1    0.0000
     14 C5         3.3729    4.9212   12.5994 C.3       1 RES1    0.0000
     15 H7         3.9576    5.5495   12.1064 H         1 RES1    0.0000
     16 H8         2.5179    5.3823   12.7889 H         1 RES1    0.0000
     17 C6         3.1114    3.6932   11.7456 C.3       1 RES1    0.0000
     18 H9         2.7686    3.9764   10.8613 H         1 RES1    0.0000
     19 H10        2.4169    3.1354   12.1773 H         1 RES1    0.0000
     20 C7         4.3740    2.8658   11.5545 C.3       1 RES1    0.0000
     21 H11        5.0182    3.4087   11.0141 H         1 RES1    0.0000
     22 C8         4.0864    1.5788   10.7867 C.3       1 RES1    0.0000
     23 H12        4.9265    1.1028   10.6201 H         1 RES1    0.0000
     24 H13        3.6594    1.7965    9.9313 H         1 RES1    0.0000
     25 H14        3.4876    1.0096   11.3152 H         1 RES1    0.0000
     26 C9         5.0168    2.5862   12.9049 C.3       1 RES1    0.0000
     27 H15        4.3946    2.0099   13.4351 H         1 RES1    0.0000
     28 C10        6.3606    1.8818   12.8214 C.3       1 RES1    0.0000
     29 H16        6.2351    0.9754   12.4169 H         1 RES1    0.0000
     30 C11        7.0695    1.7431   14.1502 C.3       1 RES1    0.0000
     31 H17        6.5254    1.1974   14.7559 H         1 RES1    0.0000
     32 H18        7.2041    2.6310   14.5431 H         1 RES1    0.0000
     33 H19        7.9383    1.3112   14.0136 H         1 RES1    0.0000
     34 O4         7.1894    2.6979   11.9340 O.3       1 RES1    0.0000
     35 C12        7.9621    2.0810   11.0444 C.2       1 RES1    0.0000
     36 O5         8.1073    0.8858   10.9768 O.2       1 RES1    0.0000
     37 C13        8.6243    3.0586   10.1323 C.ar      1 RES1    0.0000
     38 C14        9.4801    2.5741    9.1440 C.ar      1 RES1    0.0000
     39 H20        9.6413    1.6406    9.0786 H         1 RES1    0.0000
     40 C15       10.0933    3.4350    8.2614 C.ar      1 RES1    0.0000
     41 H21       10.6827    3.1098    7.5923 H         1 RES1    0.0000
     42 C16        9.8259    4.7839    8.3779 C.ar      1 RES1    0.0000
     43 C17        8.9860    5.2962    9.3455 C.ar      1 RES1    0.0000
     44 H22        8.8310    6.2318    9.4080 H         1 RES1    0.0000
     45 C18        8.3756    4.4218   10.2202 C.ar      1 RES1    0.0000
     46 H23        7.7835    4.7533   10.8849 H         1 RES1    0.0000
     47 N1        10.4818    5.7181    7.4442 N.pl3     1 RES1    0.0000
     48 O6        11.2184    5.2649    6.5960 O.2       1 RES1    0.0000
     49 O7        10.2745    6.8934    7.5750 O.2       1 RES1    0.0000
     50 H24        5.9639    5.6469   18.4835 Du        2 SUP2    0.0000
     51 H25        7.4297    5.9771   17.9335 Du        2 SUP2    0.0000
     52 H26        6.8179    4.5093   17.7522 Du        2 SUP2    0.0000
@<TRIPOS>BOND
     1    1    2 1
     2    3    1 1
     3    4    1 1
     4    5    1 1
     5    6    5 1
     6    7    6 2
     7    8    6 1
     8    9    8 1
     9   10    8 1
    10   11    8 1
    11   12   11 1
    12   13   11 1
    13   14   11 1
    14   15   14 1
    15   16   14 1
    16   17   14 1
    17   18   17 1
    18   19   17 1
    19   20   17 1
    20   21   20 1
    21   22   20 1
    22   23   22 1
    23   24   22 1
    24   25   22 1
    25   26   13 1
    26   27   26 1
    27   28   26 1
    28   29   28 1
    29   30   28 1
    30   31   30 1
    31   32   30 1
    32   33   30 1
    33   34   28 1
    34   35   34 1
    35   36   35 2
    36   37   35 1
    37   38   37 ar
    38   39   38 1
    39   40   38 ar
    40   41   40 1
    41   42   40 ar
    42   43   42 ar
    43   44   43 1
    44   45   37 ar
    45   46   45 1
    46   47   42 1
    47   48   47 2
    48   49   47 2
    49   20   26 1
    50   43   45 ar
@<TRIPOS>SUBSTRUCTURE
     1 RES1 1
     2 SUP2 50

@<TRIPOS>CRYSIN
  16.8670    7.1147   15.7883  90.0000  93.3380  90.0000   5 1

