# MOL2 file generated by ConQuest
# Please check atom types

@<TRIPOS>MOLECULE
QOHROV
    36    38     1
SMALL
NO_CHARGES
****
Generated from CSD

@<TRIPOS>ATOM
      1 O1        -1.1014    7.7506    3.9795 O.2       1 RES1    0.0000
      2 C1        -0.9584    6.6990    3.4265 C.2       1 RES1    0.0000
      3 O2        -0.8061    6.6234    2.0768 O.3       1 RES1    0.0000
      4 N1        -0.5059    5.2553    1.7226 N.3       1 RES1    0.0000
      5 C2         0.9488    5.0860    1.7292 C.3       1 RES1    0.0000
      6 H1         1.3691    5.6006    2.4633 H         1 RES1    0.0000
      7 H2         1.3485    5.3616    0.8664 H         1 RES1    0.0000
      8 C3         1.0861    3.5926    1.9512 C.3       1 RES1    0.0000
      9 C4         0.7712    2.8273    0.6756 C.3       1 RES1    0.0000
     10 H3        -0.1318    3.0571    0.3716 H         1 RES1    0.0000
     11 H4         0.8215    1.8647    0.8511 H         1 RES1    0.0000
     12 H5         1.4200    3.0671   -0.0180 H         1 RES1    0.0000
     13 C5         2.4656    3.2279    2.4498 C.3       1 RES1    0.0000
     14 H6         3.1251    3.4074    1.7471 H         1 RES1    0.0000
     15 H7         2.4877    2.2763    2.6837 H         1 RES1    0.0000
     16 H8         2.6785    3.7640    3.2424 H         1 RES1    0.0000
     17 C6         0.0168    3.3441    3.0169 C.3       1 RES1    0.0000
     18 H9        -0.4157    2.4644    2.8771 H         1 RES1    0.0000
     19 H10        0.4184    3.3595    3.9216 H         1 RES1    0.0000
     20 C7        -0.9982    4.4667    2.8642 C.3       1 RES1    0.0000
     21 C8        -2.4169    4.0173    2.6380 C.3       1 RES1    0.0000
     22 H11       -2.9879    4.8001    2.4893 H         1 RES1    0.0000
     23 H12       -2.7344    3.5268    3.4250 H         1 RES1    0.0000
     24 H13       -2.4535    3.4335    1.8524 H         1 RES1    0.0000
     25 N2        -0.9309    5.4630    3.9382 N.am      1 RES1    0.0000
     26 C9        -1.2461    5.2216    5.3027 C.ar      1 RES1    0.0000
     27 C10       -0.2629    4.7851    6.1603 C.ar      1 RES1    0.0000
     28 H14        0.6194    4.6379    5.8405 H         1 RES1    0.0000
     29 C11       -0.5653    4.5619    7.4866 C.ar      1 RES1    0.0000
     30 H15        0.1066    4.2411    8.0780 H         1 RES1    0.0000
     31 C12       -1.8315    4.8010    7.9560 C.ar      1 RES1    0.0000
     32 H16       -2.0353    4.6594    8.8733 H         1 RES1    0.0000
     33 C13       -2.8039    5.2468    7.0911 C.ar      1 RES1    0.0000
     34 H17       -3.6798    5.4201    7.4167 H         1 RES1    0.0000
     35 C14       -2.5226    5.4437    5.7626 C.ar      1 RES1    0.0000
     36 H18       -3.2032    5.7309    5.1658 H         1 RES1    0.0000
@<TRIPOS>BOND
     1    1    2 2
     2    2    3 1
     3    3    4 1
     4    4    5 1
     5    5    6 1
     6    7    5 1
     7    8    5 1
     8    9    8 1
     9   10    9 1
    10   11    9 1
    11   12    9 1
    12   13    8 1
    13   14   13 1
    14   15   13 1
    15   16   13 1
    16   17    8 1
    17   18   17 1
    18   19   17 1
    19   20    4 1
    20   21   20 1
    21   22   21 1
    22   23   21 1
    23   24   21 1
    24   25    2 1
    25   26   25 1
    26   27   26 ar
    27   28   27 1
    28   29   27 ar
    29   30   29 1
    30   31   29 ar
    31   32   31 1
    32   33   31 ar
    33   34   33 1
    34   35   26 ar
    35   36   35 1
    36   17   20 1
    37   20   25 1
    38   33   35 ar
@<TRIPOS>SUBSTRUCTURE
     1 RES1 1

@<TRIPOS>CRYSIN
   8.5228    8.7348    9.5815 105.6800  96.3500 109.4800   2 1

