# MOL2 file generated by ConQuest
# Please check atom types

@<TRIPOS>MOLECULE
QOHRUB
    39    40     1
SMALL
NO_CHARGES
****
Generated from CSD

@<TRIPOS>ATOM
      1 N1         9.2703    0.6555    3.7209 N.3       1 RES1    0.0000
      2 O1        10.5886    1.3882    5.5320 O.3       1 RES1    0.0000
      3 H1        10.5416    2.2153    5.9860 H         1 RES1    0.0000
      4 C1        10.2920    1.6327    4.1792 C.3       1 RES1    0.0000
      5 H2         9.9584    2.5678    4.0584 H         1 RES1    0.0000
      6 C2        11.4555    1.3455    3.2016 C.3       1 RES1    0.0000
      7 C3        12.4467    2.5112    3.2166 C.3       1 RES1    0.0000
      8 H3        11.9870    3.3339    2.9470 H         1 RES1    0.0000
      9 H4        13.1775    2.3259    2.5908 H         1 RES1    0.0000
     10 H5        12.8094    2.6206    4.1204 H         1 RES1    0.0000
     11 C4        12.1635    0.0402    3.5813 C.3       1 RES1    0.0000
     12 H6        12.6506    0.1653    4.4221 H         1 RES1    0.0000
     13 H7        12.7939   -0.2080    2.8732 H         1 RES1    0.0000
     14 H8        11.4987   -0.6718    3.6915 H         1 RES1    0.0000
     15 C5        10.6957    1.2286    1.8603 C.3       1 RES1    0.0000
     16 H9        11.1590    0.5976    1.2547 H         1 RES1    0.0000
     17 H10       10.6411    2.1116    1.4163 H         1 RES1    0.0000
     18 C6         9.2703    0.7045    2.2052 C.3       1 RES1    0.0000
     19 C7         8.9766   -0.6900    1.6302 C.3       1 RES1    0.0000
     20 H11        9.6863   -1.3103    1.8987 H         1 RES1    0.0000
     21 H12        8.9405   -0.6391    0.6525 H         1 RES1    0.0000
     22 H13        8.1168   -1.0105    1.9736 H         1 RES1    0.0000
     23 C8         8.1310    1.6735    1.9280 C.2       1 RES1    0.0000
     24 C9         7.4391    1.8451    3.0701 C.2       1 RES1    0.0000
     25 O2         7.9442    1.1852    4.1475 O.3       1 RES1    0.0000
     26 C10        6.1267    2.5188    3.3855 C.2       1 RES1    0.0000
     27 O3         5.1233    1.8759    3.5659 O.2       1 RES1    0.0000
     28 O4         6.2453    3.8291    3.4756 O.3       1 RES1    0.0000
     29 C11        5.0268    4.5424    3.8723 C.3       1 RES1    0.0000
     30 H14        4.3108    4.3475    3.2326 H         1 RES1    0.0000
     31 H15        5.2026    5.5070    3.8830 H         1 RES1    0.0000
     32 H16        4.7547    4.2501    4.7676 H         1 RES1    0.0000
     33 C12        7.8271    2.2027    0.5926 C.2       1 RES1    0.0000
     34 O5         8.4685    1.9551   -0.4004 O.2       1 RES1    0.0000
     35 O6         6.7288    2.9857    0.6030 O.3       1 RES1    0.0000
     36 C13        6.3453    3.5658   -0.6739 C.3       1 RES1    0.0000
     37 H17        7.0772    4.1232   -1.0130 H         1 RES1    0.0000
     38 H18        5.5434    4.1157   -0.5562 H         1 RES1    0.0000
     39 H19        6.1583    2.8487   -1.3157 H         1 RES1    0.0000
@<TRIPOS>BOND
     1    1    4 1
     2    2    3 1
     3    4    2 1
     4    5    4 1
     5    6    4 1
     6    7    6 1
     7    8    7 1
     8    9    7 1
     9   10    7 1
    10   11    6 1
    11   12   11 1
    12   13   11 1
    13   14   11 1
    14   15    6 1
    15   16   15 1
    16   17   15 1
    17   18    1 1
    18   19   18 1
    19   20   19 1
    20   21   19 1
    21   22   19 1
    22   23   18 1
    23   24   23 2
    24   25    1 1
    25   26   24 1
    26   27   26 2
    27   28   26 1
    28   29   28 1
    29   30   29 1
    30   31   29 1
    31   32   29 1
    32   33   23 1
    33   34   33 2
    34   35   33 1
    35   36   35 1
    36   37   36 1
    37   38   36 1
    38   39   36 1
    39   15   18 1
    40   24   25 1
@<TRIPOS>SUBSTRUCTURE
     1 RES1 1

@<TRIPOS>CRYSIN
  10.7680    6.2844   10.8690  90.0000 100.2100  90.0000   4 1

