# MOL2 file generated by ConQuest
# Please check atom types

@<TRIPOS>MOLECULE
QOHSOW
    95   100     1
SMALL
NO_CHARGES
****
Generated from CSD

@<TRIPOS>ATOM
      1 C1         1.1525   -1.9352    3.0226 C.ar      1 RES1    0.0000
      2 C2        -0.1336   -1.7847    2.5413 C.ar      1 RES1    0.0000
      3 H1        -0.6932   -2.5174    2.4218 H         1 RES1    0.0000
      4 C3        -0.5583   -0.5020    2.2423 C.ar      1 RES1    0.0000
      5 H2        -1.4196   -0.3642    1.9192 H         1 RES1    0.0000
      6 C4         0.2882    0.5745    2.4218 C.ar      1 RES1    0.0000
      7 H3        -0.0175    1.4299    2.2195 H         1 RES1    0.0000
      8 C5         1.5911    0.4145    2.8995 C.ar      1 RES1    0.0000
      9 C6         2.0187   -0.8707    3.1996 C.ar      1 RES1    0.0000
     10 H4         2.8804   -1.0154    3.5169 H         1 RES1    0.0000
     11 C7         2.4874    1.6417    3.1301 C.3       1 RES1    0.0000
     12 C8         1.8238    2.5463    4.1930 C.3       1 RES1    0.0000
     13 H5         2.3876    3.3046    4.3639 H         1 RES1    0.0000
     14 H6         1.7008    2.0492    5.0053 H         1 RES1    0.0000
     15 H7         0.9720    2.8464    3.8694 H         1 RES1    0.0000
     16 C9         2.6477    2.4070    1.8332 C.2       1 RES1    0.0000
     17 C10        2.2841    2.1283    0.5451 C.2       1 RES1    0.0000
     18 H8         1.8145    1.3779    0.2595 H         1 RES1    0.0000
     19 C11        2.7517    3.1863   -0.2805 C.2       1 RES1    0.0000
     20 H9         2.6440    3.2492   -1.2028 H         1 RES1    0.0000
     21 C12        3.3882    4.0952    0.5177 C.2       1 RES1    0.0000
     22 C13        3.9342    5.4744    0.2461 C.3       1 RES1    0.0000
     23 C14        2.9428    6.5140    0.8455 C.3       1 RES1    0.0000
     24 H10        2.8959    6.3792    1.8050 H         1 RES1    0.0000
     25 H11        3.2970    7.4047    0.6920 H         1 RES1    0.0000
     26 C15        1.5327    6.4479    0.2766 C.3       1 RES1    0.0000
     27 H12        1.5584    6.6343   -0.6642 H         1 RES1    0.0000
     28 H13        0.9801    7.0975    0.7164 H         1 RES1    0.0000
     29 H14        1.1703    5.5703    0.4194 H         1 RES1    0.0000
     30 C16        4.0918    5.6738   -1.2832 C.3       1 RES1    0.0000
     31 H15        4.6945    4.9963   -1.6271 H         1 RES1    0.0000
     32 H16        3.2289    5.5417   -1.7054 H         1 RES1    0.0000
     33 C17        4.6222    7.0380   -1.6697 C.3       1 RES1    0.0000
     34 H17        4.0020    7.7135   -1.3855 H         1 RES1    0.0000
     35 H18        4.7283    7.0824   -2.6226 H         1 RES1    0.0000
     36 H19        5.4698    7.1831   -1.2452 H         1 RES1    0.0000
     37 C18        5.2773    5.6517    0.9110 C.2       1 RES1    0.0000
     38 C19        5.7693    6.6568    1.7008 C.2       1 RES1    0.0000
     39 H20        5.3037    7.4147    1.9731 H         1 RES1    0.0000
     40 C20        7.1109    6.3394    2.0313 C.2       1 RES1    0.0000
     41 H21        7.6780    6.8542    2.5589 H         1 RES1    0.0000
     42 C21        7.4264    5.1489    1.4414 C.2       1 RES1    0.0000
     43 C22        8.7260    4.3674    1.4174 C.3       1 RES1    0.0000
     44 C23        9.6082    4.8385    0.2329 C.3       1 RES1    0.0000
     45 H22       10.3864    4.2612    0.1811 H         1 RES1    0.0000
     46 H23        9.1058    4.7244   -0.5891 H         1 RES1    0.0000
     47 C24       10.0835    6.2827    0.3094 C.3       1 RES1    0.0000
     48 H24        9.3237    6.8676    0.3509 H         1 RES1    0.0000
     49 H25       10.6062    6.4900   -0.4700 H         1 RES1    0.0000
     50 H26       10.6214    6.4010    1.0951 H         1 RES1    0.0000
     51 C25        9.4499    4.6088    2.7735 C.3       1 RES1    0.0000
     52 H27        9.5936    5.5619    2.8804 H         1 RES1    0.0000
     53 H28        8.8632    4.3199    3.4908 H         1 RES1    0.0000
     54 C26       10.7868    3.8995    2.9294 C.3       1 RES1    0.0000
     55 H29       10.6749    2.9622    2.7531 H         1 RES1    0.0000
     56 H30       11.1109    4.0195    3.8253 H         1 RES1    0.0000
     57 H31       11.4192    4.2679    2.3076 H         1 RES1    0.0000
     58 C27        8.4726    2.8870    1.2553 C.2       1 RES1    0.0000
     59 C28        8.9615    1.9723    0.3585 C.2       1 RES1    0.0000
     60 H32        9.5025    2.1633   -0.3737 H         1 RES1    0.0000
     61 C29        8.5013    0.6874    0.7377 C.2       1 RES1    0.0000
     62 H33        8.6890   -0.1108    0.2987 H         1 RES1    0.0000
     63 C30        7.7327    0.8259    1.8618 C.2       1 RES1    0.0000
     64 C31        7.1139   -0.2189    2.7631 C.3       1 RES1    0.0000
     65 C32        8.1718   -0.7175    3.7738 C.3       1 RES1    0.0000
     66 H34        7.7194   -1.2453    4.4504 H         1 RES1    0.0000
     67 H35        8.7832   -1.3074    3.3064 H         1 RES1    0.0000
     68 C33        8.9828    0.3437    4.4705 C.3       1 RES1    0.0000
     69 H36        9.5306    0.8005    3.8286 H         1 RES1    0.0000
     70 H37        9.5424   -0.0655    5.1342 H         1 RES1    0.0000
     71 H38        8.3925    0.9717    4.8926 H         1 RES1    0.0000
     72 C34        6.6602   -1.4190    1.8826 C.3       1 RES1    0.0000
     73 H39        6.0452   -1.0909    1.2077 H         1 RES1    0.0000
     74 H40        7.4363   -1.7756    1.4231 H         1 RES1    0.0000
     75 C35        5.9864   -2.5483    2.6405 C.3       1 RES1    0.0000
     76 H41        6.6088   -2.9320    3.2623 H         1 RES1    0.0000
     77 H42        5.6974   -3.2223    2.0204 H         1 RES1    0.0000
     78 H43        5.2282   -2.2053    3.1171 H         1 RES1    0.0000
     79 C36        5.9222    0.3526    3.4893 C.2       1 RES1    0.0000
     80 C37        5.6347    0.5339    4.8114 C.2       1 RES1    0.0000
     81 H44        6.1966    0.3340    5.5242 H         1 RES1    0.0000
     82 C38        4.3287    1.0797    4.9072 C.2       1 RES1    0.0000
     83 H45        3.8839    1.2990    5.6939 H         1 RES1    0.0000
     84 C39        3.8418    1.2255    3.6457 C.2       1 RES1    0.0000
     85 N1         1.5949   -3.2767    3.4364 N.pl3     1 RES1    0.0000
     86 N2         3.3226    3.6041    1.8017 N.pl3     1 RES1    0.0000
     87 H46        3.6584    3.9944    2.4904 H         1 RES1    0.0000
     88 N3         6.3033    4.7388    0.7505 N.pl3     1 RES1    0.0000
     89 H47        6.2501    4.0179    0.2856 H         1 RES1    0.0000
     90 N4         7.7173    2.1719    2.1625 N.pl3     1 RES1    0.0000
     91 H48        7.2941    2.5191    2.8266 H         1 RES1    0.0000
     92 N5         4.8190    0.7791    2.7807 N.pl3     1 RES1    0.0000
     93 H49        4.7495    0.7687    1.9241 H         1 RES1    0.0000
     94 O1         0.7898   -4.2040    3.4069 O.2       1 RES1    0.0000
     95 O2         2.7597   -3.4101    3.8175 O.2       1 RES1    0.0000
@<TRIPOS>BOND
     1    1    2 ar
     2    2    3 1
     3    4    2 ar
     4    5    4 1
     5    6    4 ar
     6    7    6 1
     7    8    6 ar
     8    9    1 ar
     9   10    9 1
    10   11    8 1
    11   12   11 1
    12   13   12 1
    13   14   12 1
    14   15   12 1
    15   16   11 1
    16   17   16 2
    17   18   17 1
    18   19   17 1
    19   20   19 1
    20   21   19 2
    21   22   21 1
    22   23   22 1
    23   24   23 1
    24   25   23 1
    25   26   23 1
    26   27   26 1
    27   28   26 1
    28   29   26 1
    29   30   22 1
    30   31   30 1
    31   32   30 1
    32   33   30 1
    33   34   33 1
    34   35   33 1
    35   36   33 1
    36   37   22 1
    37   38   37 2
    38   39   38 1
    39   40   38 1
    40   41   40 1
    41   42   40 2
    42   43   42 1
    43   44   43 1
    44   45   44 1
    45   46   44 1
    46   47   44 1
    47   48   47 1
    48   49   47 1
    49   50   47 1
    50   51   43 1
    51   52   51 1
    52   53   51 1
    53   54   51 1
    54   55   54 1
    55   56   54 1
    56   57   54 1
    57   58   43 1
    58   59   58 2
    59   60   59 1
    60   61   59 1
    61   62   61 1
    62   63   61 2
    63   64   63 1
    64   65   64 1
    65   66   65 1
    66   67   65 1
    67   68   65 1
    68   69   68 1
    69   70   68 1
    70   71   68 1
    71   72   64 1
    72   73   72 1
    73   74   72 1
    74   75   72 1
    75   76   75 1
    76   77   75 1
    77   78   75 1
    78   79   64 1
    79   80   79 2
    80   81   80 1
    81   82   80 1
    82   83   82 1
    83   84   11 1
    84   85    1 1
    85   86   16 1
    86   87   86 1
    87   88   37 1
    88   89   88 1
    89   90   58 1
    90   91   90 1
    91   92   79 1
    92   93   92 1
    93   94   85 2
    94   95   85 2
    95    8    9 ar
    96   21   86 1
    97   42   88 1
    98   63   90 1
    99   82   84 2
   100   84   92 1
@<TRIPOS>SUBSTRUCTURE
     1 RES1 1

@<TRIPOS>CRYSIN
  12.5250   16.7830   19.4900  90.0000 123.1400  90.0000  14 1

