# MOL2 file generated by ConQuest
# Please check atom types

@<TRIPOS>MOLECULE
QOHSAI
    41    43     1
SMALL
NO_CHARGES
****
Generated from CSD

@<TRIPOS>ATOM
      1 O1         2.6248    5.1570    0.6207 O.3       1 RES1    0.0000
      2 O2         4.7598    5.1730   -0.7035 O.2       1 RES1    0.0000
      3 O3         0.8732    3.1976    2.6407 O.3       1 RES1    0.0000
      4 N1         2.0279    5.2213    2.1138 N.3       1 RES1    0.0000
      5 C1         4.0155    5.2972    0.4310 C.2       1 RES1    0.0000
      6 N2         4.3025    5.6189    1.6597 N.am      1 RES1    0.0000
      7 C2         3.0342    5.9725    2.6744 C.3       1 RES1    0.0000
      8 C3         2.9448    5.3829    4.0968 C.2       1 RES1    0.0000
      9 C4         2.1298    4.1377    4.2095 C.3       1 RES1    0.0000
     10 C5         2.0439    3.8942    2.6971 C.3       1 RES1    0.0000
     11 H1         2.8151    3.3516    2.3638 H         1 RES1    0.0000
     12 C6         5.6657    5.8913    1.7913 C.ar      1 RES1    0.0000
     13 C7         6.4211    4.9147    2.2127 C.ar      1 RES1    0.0000
     14 H2         6.0569    4.0702    2.4474 H         1 RES1    0.0000
     15 C8         7.7561    5.1629    2.2988 C.ar      1 RES1    0.0000
     16 H3         8.3231    4.4686    2.6146 H         1 RES1    0.0000
     17 C9         8.3318    6.3686    1.9537 C.ar      1 RES1    0.0000
     18 H4         9.2717    6.4923    2.0148 H         1 RES1    0.0000
     19 C10        7.5571    7.3361    1.5414 C.ar      1 RES1    0.0000
     20 H5         7.9204    8.1799    1.2979 H         1 RES1    0.0000
     21 C11        6.2260    7.1092    1.4689 C.ar      1 RES1    0.0000
     22 H6         5.6570    7.8149    1.1850 H         1 RES1    0.0000
     23 C12        2.7641    7.4150    2.6503 C.3       1 RES1    0.0000
     24 H7         2.0145    7.6168    3.2479 H         1 RES1    0.0000
     25 H8         2.5363    7.6889    1.7368 H         1 RES1    0.0000
     26 H9         3.5609    7.9014    2.9490 H         1 RES1    0.0000
     27 C13        3.4609    5.9179    5.0777 C.2       1 RES1    0.0000
     28 H10        3.3466    5.5385    5.9398 H         1 RES1    0.0000
     29 H11        3.9741    6.7108    4.9721 H         1 RES1    0.0000
     30 C14        0.7045    4.3707    5.1416 C.3       1 RES1    0.0000
     31 H12        0.9476    4.5149    6.0798 H         1 RES1    0.0000
     32 H13        0.1336    3.5777    5.0703 H         1 RES1    0.0000
     33 H14        0.2191    5.1538    4.8070 H         1 RES1    0.0000
     34 C15        2.8247    3.0011    4.7522 C.3       1 RES1    0.0000
     35 H15        3.6445    2.8432    4.2385 H         1 RES1    0.0000
     36 H16        2.2490    2.2096    4.6983 H         1 RES1    0.0000
     37 H17        3.0544    3.1748    5.6890 H         1 RES1    0.0000
     38 C16        0.8852    2.6649    1.3037 C.3       1 RES1    0.0000
     39 H18        0.0702    2.1421    1.1537 H         1 RES1    0.0000
     40 H19        1.6694    2.0875    1.1892 H         1 RES1    0.0000
     41 H20        0.9255    3.4017    0.6584 H         1 RES1    0.0000
@<TRIPOS>BOND
     1    1    4 1
     2    2    5 2
     3    3   10 1
     4    4    7 1
     5    5    1 1
     6    6    5 1
     7    7    6 1
     8    8    7 1
     9    9    8 1
    10   10    4 1
    11   11   10 1
    12   12    6 1
    13   13   12 ar
    14   14   13 1
    15   15   13 ar
    16   16   15 1
    17   17   15 ar
    18   18   17 1
    19   19   17 ar
    20   20   19 1
    21   21   12 ar
    22   22   21 1
    23   23    7 1
    24   24   23 1
    25   25   23 1
    26   26   23 1
    27   27    8 2
    28   28   27 1
    29   29   27 1
    30   30    9 1
    31   31   30 1
    32   32   30 1
    33   33   30 1
    34   34    9 1
    35   35   34 1
    36   36   34 1
    37   37   34 1
    38   38    3 1
    39   39   38 1
    40   40   38 1
    41   41   38 1
    42    9   10 1
    43   19   21 ar
@<TRIPOS>SUBSTRUCTURE
     1 RES1 1

@<TRIPOS>CRYSIN
   9.6110    7.5880   20.9000  90.0000  90.0000  90.0000  14 1

