# MOL2 file generated by ConQuest
# Please check atom types

@<TRIPOS>MOLECULE
QOJMIN
    52    54     1
SMALL
NO_CHARGES
****
Generated from CSD

@<TRIPOS>ATOM
      1 O1        -1.4306   14.4147    6.1320 O.3       1 RES1    0.0000
      2 O2         1.8456   14.2032   10.6811 O.2       1 RES1    0.0000
      3 C1        -0.6237   10.3414   10.8610 C.ar      1 RES1    0.0000
      4 C2         0.6496   16.7885    8.7407 C.1       1 RES1    0.0000
      5 N1         1.6560   14.2756    9.4774 N.pl3     1 RES1    0.0000
      6 C3        -1.9909   15.5962    5.5327 C.3       1 RES1    0.0000
      7 C4         0.0991   11.8293    9.0976 C.ar      1 RES1    0.0000
      8 C5         1.6381   18.9121    9.9501 C.ar      1 RES1    0.0000
      9 C6         0.5124    9.5735   10.6856 C.ar      1 RES1    0.0000
     10 C7        -0.8283   11.4663   10.0672 C.ar      1 RES1    0.0000
     11 C8         1.3724   20.6384   11.6068 C.ar      1 RES1    0.0000
     12 C9         1.4479    9.9312    9.7330 C.ar      1 RES1    0.0000
     13 C10       -0.1873   13.0681    8.2523 C.3       1 RES1    0.0000
     14 C11        0.0346   15.6129    8.1211 C.3       1 RES1    0.0000
     15 C12        1.2433   11.0604    8.9318 C.ar      1 RES1    0.0000
     16 C13       -0.0271   14.3471    6.0869 C.3       1 RES1    0.0000
     17 C14        0.3879   13.0472    6.8330 C.3       1 RES1    0.0000
     18 C15        3.2964   20.6403   10.1736 C.ar      1 RES1    0.0000
     19 C16        0.9026   19.4887   10.9877 C.ar      1 RES1    0.0000
     20 C17        2.5598   21.2130   11.1947 C.ar      1 RES1    0.0000
     21 C18        0.2259   14.3572    9.0003 C.3       1 RES1    0.0000
     22 C19        2.8382   19.4863    9.5428 C.ar      1 RES1    0.0000
     23 C20        0.5245   14.4150    4.6810 C.3       1 RES1    0.0000
     24 C21       -1.4110   11.2645    6.1485 C.3       1 RES1    0.0000
     25 C22        1.1274   17.7285    9.3049 C.1       1 RES1    0.0000
     26 O3         0.5495   15.4540    6.8044 O.3       1 RES1    0.0000
     27 O4         2.5488   14.2736    8.6422 O.2       1 RES1    0.0000
     28 O5         0.8289   11.2519    5.3574 O.2       1 RES1    0.0000
     29 C23       -0.0052   11.7899    6.0440 C.2       1 RES1    0.0000
     30 H1         3.3662   19.1164    8.8562 H         1 RES1    0.0000
     31 H2         4.1155   21.0075    9.9346 H         1 RES1    0.0000
     32 H3         2.8993   21.9821   11.6619 H         1 RES1    0.0000
     33 H4         0.9165   21.0209   12.2822 H         1 RES1    0.0000
     34 H5         0.1268   19.1194   11.2754 H         1 RES1    0.0000
     35 H6         1.3488   13.0547    6.8664 H         1 RES1    0.0000
     36 H7        -1.1240   13.1723    8.1834 H         1 RES1    0.0000
     37 H8        -0.9049   15.7091    8.0999 H         1 RES1    0.0000
     38 H9         1.4929   14.1141    4.6619 H         1 RES1    0.0000
     39 H10        0.4150   15.3104    4.3183 H         1 RES1    0.0000
     40 H11        0.0461   13.8701    4.1012 H         1 RES1    0.0000
     41 H12       -1.9655   11.9210    5.9789 H         1 RES1    0.0000
     42 H13       -1.4871   10.5670    5.6449 H         1 RES1    0.0000
     43 H14       -1.6312   10.9985    7.0286 H         1 RES1    0.0000
     44 H15       -1.2162   10.0953   11.4853 H         1 RES1    0.0000
     45 H16       -1.6370   11.9537   10.1159 H         1 RES1    0.0000
     46 H17        0.6744    8.7890   11.2468 H         1 RES1    0.0000
     47 H18        2.2307    9.4258    9.6673 H         1 RES1    0.0000
     48 H19        1.8560   11.2678    8.2740 H         1 RES1    0.0000
     49 H20       -0.2709   14.4459    9.8320 H         1 RES1    0.0000
     50 H21       -2.0289   15.5098    4.5140 H         1 RES1    0.0000
     51 H22       -1.4583   16.3861    5.7021 H         1 RES1    0.0000
     52 H23       -2.8820   15.6913    5.8262 H         1 RES1    0.0000
@<TRIPOS>BOND
     1    1    6 1
     2    2    5 2
     3    3    9 ar
     4    4   14 1
     5    5   21 1
     6    6   50 1
     7    7   10 ar
     8    8   19 ar
     9    9   12 ar
    10   10    3 ar
    11   11   19 ar
    12   12   15 ar
    13   13    7 1
    14   14   21 1
    15   15    7 ar
    16   16    1 1
    17   17   13 1
    18   18   20 ar
    19   19   34 1
    20   20   11 ar
    21   21   13 1
    22   22    8 ar
    23   23   16 1
    24   24   29 1
    25   25    4 3
    26   26   14 1
    27   27    5 2
    28   28   29 2
    29   29   17 1
    30   30   22 1
    31   31   18 1
    32   32   20 1
    33   33   11 1
    34   35   17 1
    35   36   13 1
    36   37   14 1
    37   38   23 1
    38   39   23 1
    39   40   23 1
    40   41   24 1
    41   42   24 1
    42   43   24 1
    43   44    3 1
    44   45   10 1
    45   46    9 1
    46   47   12 1
    47   48   15 1
    48   49   21 1
    49   51    6 1
    50   52    6 1
    51    8   25 1
    52   16   17 1
    53   16   26 1
    54   18   22 ar
@<TRIPOS>SUBSTRUCTURE
     1 RES1 1

@<TRIPOS>CRYSIN
   5.7640   14.8789   23.8582  90.0000  90.0000  90.0000  19 1

