# MOL2 file generated by ConQuest
# Please check atom types

@<TRIPOS>MOLECULE
QOKQUD
    39    41     1
SMALL
NO_CHARGES
****
Generated from CSD

@<TRIPOS>ATOM
      1 C1         1.9552    5.5178    1.2938 C.ar      1 RES1    0.0000
      2 H1         1.7096    4.7699    1.8266 H         1 RES1    0.0000
      3 C2         3.2935    5.8306    1.1153 C.ar      1 RES1    0.0000
      4 H2         3.9634    5.3108    1.5443 H         1 RES1    0.0000
      5 C3         3.6559    6.8947    0.3159 C.ar      1 RES1    0.0000
      6 H3         4.5736    7.1105    0.1948 H         1 RES1    0.0000
      7 C4         2.6756    7.6476   -0.3095 C.ar      1 RES1    0.0000
      8 H4         2.9247    8.3738   -0.8692 H         1 RES1    0.0000
      9 C5         1.3319    7.3523   -0.1272 C.ar      1 RES1    0.0000
     10 H5         0.6644    7.8695   -0.5621 H         1 RES1    0.0000
     11 C6         0.9721    6.2960    0.6953 C.ar      1 RES1    0.0000
     12 C7        -1.1209    6.5143    2.0732 C.3       1 RES1    0.0000
     13 C8        -0.4167    6.1649    3.4220 C.3       1 RES1    0.0000
     14 H6         0.5795    6.2464    3.4350 H         1 RES1    0.0000
     15 C9        -0.9898    4.7595    3.6876 C.3       1 RES1    0.0000
     16 H7        -0.7816    4.1155    2.9652 H         1 RES1    0.0000
     17 H8        -0.7187    4.3914    4.5656 H         1 RES1    0.0000
     18 C10       -2.4395    5.2334    3.6627 C.3       1 RES1    0.0000
     19 H9        -3.1282    4.5396    3.8736 H         1 RES1    0.0000
     20 C11       -2.3650    6.3911    4.6177 C.2       1 RES1    0.0000
     21 H10       -3.0508    6.6735    5.2111 H         1 RES1    0.0000
     22 C12       -1.1686    6.9485    4.4830 C.2       1 RES1    0.0000
     23 H11       -0.8423    7.7006    4.9633 H         1 RES1    0.0000
     24 C13       -2.5096    5.8426    2.2355 C.3       1 RES1    0.0000
     25 H12       -2.6478    5.1389    1.5531 H         1 RES1    0.0000
     26 H13       -3.2388    6.5086    2.1665 H         1 RES1    0.0000
     27 C14       -1.2350    8.0254    1.8514 C.2       1 RES1    0.0000
     28 C15       -0.0176   10.0639    1.9284 C.3       1 RES1    0.0000
     29 H14       -0.4092   10.2440    1.0368 H         1 RES1    0.0000
     30 H15        0.9335   10.3379    1.9043 H         1 RES1    0.0000
     31 C16       -0.7439   10.8797    2.9635 C.3       1 RES1    0.0000
     32 H16       -1.7101   10.7495    2.8633 H         1 RES1    0.0000
     33 H17       -0.5278   11.8276    2.8433 H         1 RES1    0.0000
     34 H18       -0.4661   10.5930    3.8584 H         1 RES1    0.0000
     35 N1        -0.4018    5.8856    0.9183 N.3       1 RES1    0.0000
     36 O1        -1.1706    6.2362   -0.2620 O.3       1 RES1    0.0000
     37 H19       -1.2685    5.5555   -0.7449 H         1 RES1    0.0000
     38 O2        -0.0991    8.6405    2.2099 O.3       1 RES1    0.0000
     39 O3        -2.1957    8.5965    1.3981 O.2       1 RES1    0.0000
@<TRIPOS>BOND
     1    1    2 1
     2    3    1 ar
     3    4    3 1
     4    5    3 ar
     5    6    5 1
     6    7    5 ar
     7    8    7 1
     8    9    7 ar
     9   10    9 1
    10   11    1 ar
    11   12   13 1
    12   13   14 1
    13   15   13 1
    14   16   15 1
    15   17   15 1
    16   18   15 1
    17   19   18 1
    18   20   18 1
    19   21   20 1
    20   22   13 1
    21   23   22 1
    22   24   12 1
    23   25   24 1
    24   26   24 1
    25   27   12 1
    26   28   29 1
    27   30   28 1
    28   31   28 1
    29   32   31 1
    30   33   31 1
    31   34   31 1
    32   35   11 1
    33   36   35 1
    34   37   36 1
    35   38   27 1
    36   39   27 2
    37    9   11 ar
    38   12   35 1
    39   18   24 1
    40   20   22 2
    41   28   38 1
@<TRIPOS>SUBSTRUCTURE
     1 RES1 1

@<TRIPOS>CRYSIN
   9.2966    9.4895    9.5352 104.0050 116.0320  99.2460   2 1

