# MOL2 file generated by ConQuest
# Please check atom types

@<TRIPOS>MOLECULE
QOKYAR
    39    42     1
SMALL
NO_CHARGES
****
Generated from CSD

@<TRIPOS>ATOM
      1 O1        -2.7260    1.2367    2.5870 O.2       1 RES1    0.0000
      2 O2        -1.4852    1.0278    0.9085 O.2       1 RES1    0.0000
      3 N1        -1.6410    1.1995    2.0912 N.pl3     1 RES1    0.0000
      4 C1         2.1112    1.6999    4.0887 C.3       1 RES1    0.0000
      5 H1         2.3740    2.5546    3.7123 H         1 RES1    0.0000
      6 H2         2.8208    1.3975    4.6781 H         1 RES1    0.0000
      7 N2         1.9175    0.7396    3.0274 N.3       1 RES1    0.0000
      8 C2         0.8273    1.1135    2.1600 C.3       1 RES1    0.0000
      9 H3         0.6873    0.4117    1.5046 H         1 RES1    0.0000
     10 H4         1.0646    1.9235    1.6813 H         1 RES1    0.0000
     11 C3        -0.4407    1.3427    2.9099 C.2       1 RES1    0.0000
     12 C4        -0.4551    1.6718    4.2263 C.2       1 RES1    0.0000
     13 C5        -1.4712    1.9322    5.2762 C.ar      1 RES1    0.0000
     14 C6        -2.8507    1.9437    5.3182 C.ar      1 RES1    0.0000
     15 H5        -3.3467    1.7416    4.5578 H         1 RES1    0.0000
     16 C7        -3.4890    2.2619    6.5095 C.ar      1 RES1    0.0000
     17 H6        -4.4184    2.2841    6.5334 H         1 RES1    0.0000
     18 C8        -2.7905    2.5424    7.6444 C.ar      1 RES1    0.0000
     19 H7        -3.2455    2.7514    8.4287 H         1 RES1    0.0000
     20 C9        -1.3944    2.5185    7.6348 C.ar      1 RES1    0.0000
     21 H8        -0.9107    2.7064    8.4067 H         1 RES1    0.0000
     22 C10       -0.7504    2.2112    6.4627 C.ar      1 RES1    0.0000
     23 C11        0.7012    2.1465    6.1703 C.2       1 RES1    0.0000
     24 C12        0.8543    1.8554    4.8577 C.2       1 RES1    0.0000
     25 C13        3.1363    0.5199    2.2631 C.3       1 RES1    0.0000
     26 H9         2.9687   -0.1232    1.5696 H         1 RES1    0.0000
     27 H10        3.8247    0.1893    2.8449 H         1 RES1    0.0000
     28 H11        3.4210    1.3479    1.8686 H         1 RES1    0.0000
     29 C14        1.7724    2.3753    7.1514 C.ar      1 RES1    0.0000
     30 C15        2.8244    3.2340    6.8677 C.ar      1 RES1    0.0000
     31 H12        2.8574    3.6591    6.0404 H         1 RES1    0.0000
     32 C16        3.8170    3.4669    7.7848 C.ar      1 RES1    0.0000
     33 H13        4.5049    4.0603    7.5871 H         1 RES1    0.0000
     34 C17        3.7927    2.8215    8.9971 C.ar      1 RES1    0.0000
     35 H14        4.4661    2.9768    9.6190 H         1 RES1    0.0000
     36 C18        2.7793    1.9511    9.2913 C.ar      1 RES1    0.0000
     37 H15        2.7744    1.5072   10.1081 H         1 RES1    0.0000
     38 C19        1.7719    1.7296    8.3905 C.ar      1 RES1    0.0000
     39 H16        1.0814    1.1451    8.6064 H         1 RES1    0.0000
@<TRIPOS>BOND
     1    1    3 2
     2    2    3 2
     3    3   11 1
     4    4    5 1
     5    6    4 1
     6    7    4 1
     7    8    7 1
     8    9    8 1
     9   10    8 1
    10   11    8 1
    11   12   11 2
    12   13   12 1
    13   14   13 ar
    14   15   14 1
    15   16   14 ar
    16   17   16 1
    17   18   16 ar
    18   19   18 1
    19   20   18 ar
    20   21   20 1
    21   22   13 ar
    22   23   22 1
    23   24    4 1
    24   25    7 1
    25   26   25 1
    26   27   25 1
    27   28   25 1
    28   29   23 1
    29   30   29 ar
    30   31   30 1
    31   32   30 ar
    32   33   32 1
    33   34   32 ar
    34   35   34 1
    35   36   34 ar
    36   37   36 1
    37   38   29 ar
    38   39   38 1
    39   12   24 1
    40   20   22 ar
    41   23   24 2
    42   36   38 ar
@<TRIPOS>SUBSTRUCTURE
     1 RES1 1

@<TRIPOS>CRYSIN
  10.7570   15.0270   10.0250  90.0000 107.6500  90.0000  14 1

