# MOL2 file generated by ConQuest
# Please check atom types

@<TRIPOS>MOLECULE
QOMSEQ
    52    55     1
SMALL
NO_CHARGES
****
Generated from CSD

@<TRIPOS>ATOM
      1 O1         3.0759    4.8670    3.5557 O.3       1 RES1    0.0000
      2 O2         3.4906    2.9244    4.7502 O.3       1 RES1    0.0000
      3 O3        -0.4465    1.8458    6.6221 O.3       1 RES1    0.0000
      4 O4        -0.1915    0.0061    3.6144 O.2       1 RES1    0.0000
      5 O5        -1.1674    1.9638    3.9945 O.3       1 RES1    0.0000
      6 O6         2.7321    0.8543    4.4981 O.3       1 RES1    0.0000
      7 O7         3.1611   -0.8608    6.0947 O.3       1 RES1    0.0000
      8 N1         2.7177    2.0119    5.4614 N.3       1 RES1    0.0000
      9 N2        -0.0029    3.0532    7.1866 N.2       1 RES1    0.0000
     10 C1         1.0043    3.4413    6.5406 C.2       1 RES1    0.0000
     11 C2         0.4480    1.3615    5.5661 C.3       1 RES1    0.0000
     12 C3         1.3884    2.5422    5.3154 C.3       1 RES1    0.0000
     13 C4         1.4164    3.2571    3.8891 C.3       1 RES1    0.0000
     14 H1         0.9433    4.0937    3.9091 H         1 RES1    0.0000
     15 H2         1.1045    2.6928    3.2159 H         1 RES1    0.0000
     16 C5         2.8050    3.5178    3.5764 C.3       1 RES1    0.0000
     17 H3         3.1418    3.0856    2.6837 H         1 RES1    0.0000
     18 C6         2.2424   -0.2677    5.2489 C.3       1 RES1    0.0000
     19 H4         2.0206   -0.8516    4.4972 H         1 RES1    0.0000
     20 C7         1.1282    0.1483    6.1590 C.3       1 RES1    0.0000
     21 H5         1.4110    0.4102    7.1023 H         1 RES1    0.0000
     22 H6         0.5535   -0.5724    6.2348 H         1 RES1    0.0000
     23 C8        -0.3339    1.0115    4.2790 C.2       1 RES1    0.0000
     24 C9        -1.8744    1.8029    2.7063 C.3       1 RES1    0.0000
     25 H7        -2.4578    2.5515    2.5666 H         1 RES1    0.0000
     26 H8        -2.3904    0.9942    2.7236 H         1 RES1    0.0000
     27 H9        -1.2338    1.7589    1.9931 H         1 RES1    0.0000
     28 C10        4.1428   -1.5063    5.2981 C.3       1 RES1    0.0000
     29 H10        4.5145   -0.7566    4.6622 H         1 RES1    0.0000
     30 H11        3.8039   -2.2618    4.7220 H         1 RES1    0.0000
     31 C11        5.1116   -2.0544    6.2614 C.3       1 RES1    0.0000
     32 H12        5.7535   -2.5955    5.7958 H         1 RES1    0.0000
     33 H13        4.6498   -2.5909    6.9094 H         1 RES1    0.0000
     34 H14        5.5637   -1.3337    6.7058 H         1 RES1    0.0000
     35 C12        4.3548    5.1690    3.1001 C.3       1 RES1    0.0000
     36 H15        4.9050    4.7205    3.7108 H         1 RES1    0.0000
     37 H16        4.4950    4.8306    2.0424 H         1 RES1    0.0000
     38 C13        4.5810    6.6104    3.2491 C.3       1 RES1    0.0000
     39 H17        5.4766    6.8236    2.9790 H         1 RES1    0.0000
     40 H18        4.4553    6.8607    4.1672 H         1 RES1    0.0000
     41 H19        3.9578    7.0901    2.6983 H         1 RES1    0.0000
     42 C14        1.5544    4.7379    6.9737 C.ar      1 RES1    0.0000
     43 C15        2.8470    4.9546    7.0465 C.ar      1 RES1    0.0000
     44 H20        3.4526    4.2907    6.8070 H         1 RES1    0.0000
     45 C16        3.2942    6.1898    7.4895 C.ar      1 RES1    0.0000
     46 H21        4.2116    6.3323    7.5454 H         1 RES1    0.0000
     47 C17        2.4682    7.1932    7.8421 C.ar      1 RES1    0.0000
     48 H22        2.8070    8.0159    8.1109 H         1 RES1    0.0000
     49 C18        1.1920    6.9881    7.7969 C.ar      1 RES1    0.0000
     50 H23        0.5954    7.6567    8.0443 H         1 RES1    0.0000
     51 C19        0.7344    5.7634    7.3804 C.ar      1 RES1    0.0000
     52 H24       -0.1836    5.6185    7.3711 H         1 RES1    0.0000
@<TRIPOS>BOND
     1    1   16 1
     2    2    8 1
     3    3    9 1
     4    4   23 2
     5    5   23 1
     6    6    8 1
     7    7   18 1
     8    8   12 1
     9    9   10 2
    10   10   12 1
    11   11    3 1
    12   12   11 1
    13   13   12 1
    14   14   13 1
    15   15   13 1
    16   16    2 1
    17   17   16 1
    18   18    6 1
    19   19   18 1
    20   20   11 1
    21   21   20 1
    22   22   20 1
    23   23   11 1
    24   24    5 1
    25   25   24 1
    26   26   24 1
    27   27   24 1
    28   28    7 1
    29   29   28 1
    30   30   28 1
    31   31   28 1
    32   32   31 1
    33   33   31 1
    34   34   31 1
    35   35    1 1
    36   36   35 1
    37   37   35 1
    38   38   35 1
    39   39   38 1
    40   40   38 1
    41   41   38 1
    42   42   10 1
    43   43   42 ar
    44   44   43 1
    45   45   43 ar
    46   46   45 1
    47   47   45 ar
    48   48   47 1
    49   49   47 ar
    50   50   49 1
    51   51   42 ar
    52   52   51 1
    53   13   16 1
    54   18   20 1
    55   49   51 ar
@<TRIPOS>SUBSTRUCTURE
     1 RES1 1

@<TRIPOS>CRYSIN
  12.8040   11.5870   13.4530  90.0000  98.5000  90.0000  14 1

