# MOL2 file generated by ConQuest
# Please check atom types

@<TRIPOS>MOLECULE
QONHOS
    41    41     1
SMALL
NO_CHARGES
****
Generated from CSD

@<TRIPOS>ATOM
      1 O1         1.9561    3.2193    0.7266 O.2       1 RES1    0.0000
      2 O2         1.7684    5.4677    0.6315 O.3       1 RES1    0.0000
      3 O3         1.2955    6.0091    7.8513 O.2       1 RES1    0.0000
      4 O4         0.9683    4.5429    9.4164 O.2       1 RES1    0.0000
      5 N1         1.1583    4.8451    8.2468 N.pl3     1 RES1    0.0000
      6 C1         1.6052    3.3033    3.4902 C.2       1 RES1    0.0000
      7 H1         1.6730    2.5114    2.9708 H         1 RES1    0.0000
      8 C2         1.6399    4.4449    2.7738 C.2       1 RES1    0.0000
      9 C3         1.5608    5.7867    3.3238 C.1       1 RES1    0.0000
     10 C4         1.5185    6.9144    3.7550 C.1       1 RES1    0.0000
     11 C5         1.4418    8.2785    4.3679 C.3       1 RES1    0.0000
     12 C6         0.1381    8.4268    5.1504 C.3       1 RES1    0.0000
     13 H2        -0.6209    8.3722    4.5325 H         1 RES1    0.0000
     14 H3         0.1276    9.2942    5.6071 H         1 RES1    0.0000
     15 H4         0.0720    7.7076    5.8142 H         1 RES1    0.0000
     16 C7         2.6270    8.4576    5.3253 C.3       1 RES1    0.0000
     17 H5         2.6391    7.7202    5.9721 H         1 RES1    0.0000
     18 H6         2.5365    9.3082    5.8040 H         1 RES1    0.0000
     19 H7         3.4631    8.4562    4.8143 H         1 RES1    0.0000
     20 C8         1.5371    9.3460    3.2424 C.3       1 RES1    0.0000
     21 H8         2.3831    9.2383    2.7603 H         1 RES1    0.0000
     22 H9         1.4989   10.2428    3.6379 H         1 RES1    0.0000
     23 H10        0.7892    9.2313    2.6194 H         1 RES1    0.0000
     24 C9         1.4811    3.0682    4.9450 C.ar      1 RES1    0.0000
     25 C10        1.3735    4.1022    5.9110 C.ar      1 RES1    0.0000
     26 H11        1.3625    5.0144    5.6478 H         1 RES1    0.0000
     27 C11        1.2854    3.7482    7.2486 C.ar      1 RES1    0.0000
     28 C12        1.2539    2.4288    7.6934 C.ar      1 RES1    0.0000
     29 H12        1.1805    2.2316    8.6203 H         1 RES1    0.0000
     30 C13        1.3317    1.4005    6.7496 C.ar      1 RES1    0.0000
     31 H13        1.3128    0.4911    7.0246 H         1 RES1    0.0000
     32 C14        1.4388    1.7321    5.3881 C.ar      1 RES1    0.0000
     33 H14        1.4846    1.0339    4.7464 H         1 RES1    0.0000
     34 C15        1.7921    4.2854    1.2783 C.2       1 RES1    0.0000
     35 C16        1.8954    5.3921   -0.8148 C.3       1 RES1    0.0000
     36 H15        1.1960    4.7975   -1.1883 H         1 RES1    0.0000
     37 H16        2.7811    5.0256   -1.0610 H         1 RES1    0.0000
     38 C17        1.7391    6.7842   -1.3632 C.3       1 RES1    0.0000
     39 H17        0.8582    7.1354   -1.1170 H         1 RES1    0.0000
     40 H18        1.8216    6.7632   -2.3393 H         1 RES1    0.0000
     41 H19        2.4371    7.3621   -0.9880 H         1 RES1    0.0000
@<TRIPOS>BOND
     1    1   34 2
     2    2   34 1
     3    3    5 2
     4    4    5 2
     5    5   27 1
     6    6    7 1
     7    8    6 2
     8    9    8 1
     9   10    9 3
    10   11   10 1
    11   12   11 1
    12   13   12 1
    13   14   12 1
    14   15   12 1
    15   16   11 1
    16   17   16 1
    17   18   16 1
    18   19   16 1
    19   20   11 1
    20   21   20 1
    21   22   20 1
    22   23   20 1
    23   24    6 1
    24   25   24 ar
    25   26   25 1
    26   27   25 ar
    27   28   27 ar
    28   29   28 1
    29   30   28 ar
    30   31   30 1
    31   32   24 ar
    32   33   32 1
    33   34    8 1
    34   35    2 1
    35   36   35 1
    36   37   35 1
    37   38   35 1
    38   39   38 1
    39   40   38 1
    40   41   38 1
    41   30   32 ar
@<TRIPOS>SUBSTRUCTURE
     1 RES1 1

@<TRIPOS>CRYSIN
   6.7800   13.9910   17.0050  90.0000  93.3620  90.0000  14 2

