# MOL2 file generated by ConQuest
# Please check atom types

@<TRIPOS>MOLECULE
QONPOY
    26    27     1
SMALL
NO_CHARGES
****
Generated from CSD

@<TRIPOS>ATOM
      1 O1        -1.1698   -2.0792    1.5567 O.2       1 RES1    0.0000
      2 O2        -2.0599    1.1218   -1.8705 O.3       1 RES1    0.0000
      3 O3         0.1233   -1.6041   -3.3315 O.3       1 RES1    0.0000
      4 N1        -2.4679   -0.2844    1.9461 N.am      1 RES1    0.0000
      5 N2        -0.5567   -0.8149   -2.3913 N.2       1 RES1    0.0000
      6 C1        -3.0636    0.9134    1.5860 C.ar      1 RES1    0.0000
      7 C2        -3.7696    1.6393    2.5450 C.ar      1 RES1    0.0000
      8 C3        -4.3216    2.8476    2.1900 C.ar      1 RES1    0.0000
      9 C4        -4.1880    3.3372    0.8927 C.ar      1 RES1    0.0000
     10 C5        -3.5051    2.6202   -0.0544 C.ar      1 RES1    0.0000
     11 C6        -2.9256    1.3878    0.2782 C.ar      1 RES1    0.0000
     12 C7        -2.1668    0.5944   -0.6508 C.2       1 RES1    0.0000
     13 C8        -1.5916   -0.6202   -0.2995 C.2       1 RES1    0.0000
     14 C9        -1.7187   -1.0542    1.0740 C.2       1 RES1    0.0000
     15 C10       -0.8312   -1.4267   -1.2853 C.2       1 RES1    0.0000
     16 C11       -0.4253   -2.8465   -1.0640 C.3       1 RES1    0.0000
     17 H1        -2.5779   -0.5956    2.8376 H         1 RES1    0.0000
     18 H2        -3.8527    1.3046    3.4434 H         1 RES1    0.0000
     19 H3        -4.8031    3.3605    2.8508 H         1 RES1    0.0000
     20 H4        -4.5978    4.1830    0.6520 H         1 RES1    0.0000
     21 H5        -3.4204    2.9675   -0.9609 H         1 RES1    0.0000
     22 H6        -0.8368   -3.4092   -1.7192 H         1 RES1    0.0000
     23 H7         0.5202   -2.9380   -1.1334 H         1 RES1    0.0000
     24 H8        -0.7026   -3.1307   -0.1988 H         1 RES1    0.0000
     25 H9        -1.5069    0.4169   -2.4056 H         1 RES1    0.0000
     26 H10        0.5259   -0.8912   -3.9392 H         1 RES1    0.0000
@<TRIPOS>BOND
     1    1   14 2
     2    2   12 1
     3    3    5 1
     4    4    6 1
     5    5   15 2
     6    6    7 ar
     7    7    8 ar
     8    8    9 ar
     9    9   10 ar
    10   10   11 ar
    11   11    6 ar
    12   12   11 1
    13   13   12 2
    14   14    4 1
    15   15   13 1
    16   16   15 1
    17   17    4 1
    18   18    7 1
    19   19    8 1
    20   20    9 1
    21   21   10 1
    22   22   16 1
    23   23   16 1
    24   24   16 1
    25   25    2 1
    26   26    3 1
    27   13   14 1
@<TRIPOS>SUBSTRUCTURE
     1 RES1 1

@<TRIPOS>CRYSIN
   8.1250   10.1870    7.1980  99.9700 112.0000 110.4600   2 1

