# MOL2 file generated by ConQuest
# Please check atom types

@<TRIPOS>MOLECULE
QONRAO
     9     8     1
SMALL
NO_CHARGES
****
Generated from CSD

@<TRIPOS>ATOM
      1 O1         1.6670    1.1010    1.8743 O.2       1 RES1    0.0000
      2 O2         2.6635    0.4131    3.6846 O.2       1 RES1    0.0000
      3 N1         3.8554    1.0303    1.9492 N.3       1 RES1    0.0000
      4 N2         2.6872    0.8481    2.5305 N.pl3     1 RES1    0.0000
      5 C1         3.9352    1.5702    0.6206 C.3       1 RES1    0.0000
      6 H1         4.8492    1.5748    0.4416 H         1 RES1    0.0000
      7 H2         3.4485    0.9943    0.0113 H         1 RES1    0.0000
      8 H3         3.5194    2.4290    0.5922 H         1 RES1    0.0000
      9 H4         4.5212    1.0210    2.4460 H         1 RES1    0.0000
@<TRIPOS>BOND
     1    1    4 2
     2    2    4 2
     3    3    4 1
     4    5    3 1
     5    6    5 1
     6    7    5 1
     7    8    5 1
     8    9    3 1
@<TRIPOS>SUBSTRUCTURE
     1 RES1 1

@<TRIPOS>CRYSIN
   8.8650    6.6730   11.3240  90.0000  90.0000  90.0000  61 1

