# MOL2 file generated by ConQuest
# Please check atom types

@<TRIPOS>MOLECULE
QONSET
    28    27     1
SMALL
NO_CHARGES
****
Generated from CSD

@<TRIPOS>ATOM
      1 O1         3.1198    2.1492    1.6135 O.2       1 RES1    0.0000
      2 O2         6.5241    5.7058    4.0825 O.2       1 RES1    0.0000
      3 O3         4.5365    5.8026    4.9938 O.2       1 RES1    0.0000
      4 N1         4.7649    5.0148    2.9214 N.3       1 RES1    0.0000
      5 N2         5.3057    5.5208    4.0587 N.pl3     1 RES1    0.0000
      6 N3         3.1687    3.2952    3.5915 N.am      1 RES1    0.0000
      7 C1         3.1198    2.1492    2.8526 C.2       1 RES1    0.0000
      8 C2         3.3630    4.5837    2.9822 C.3       1 RES1    0.0000
      9 C3         5.7049    4.4472    1.9496 C.3       1 RES1    0.0000
     10 H1         3.2708    3.2229    4.4243 H         1 RES1    0.0000
     11 H2         2.8789    5.2664    3.4792 H         1 RES1    0.0000
     12 H3         3.0412    4.5597    2.0522 H         1 RES1    0.0000
     13 H4         5.1701    4.0869    1.2374 H         1 RES1    0.0000
     14 H5         6.3169    5.1581    1.6009 H         1 RES1    0.0000
     15 H6         6.2371    3.7654    2.3712 H         1 RES1    0.0000
     16 O2A       -0.2845   -1.4074    4.0825 O.2       1 RES1    0.0000
     17 O3A        1.7030   -1.5042    4.9938 O.2       1 RES1    0.0000
     18 N1A        1.4747   -0.7164    2.9214 N.3       1 RES1    0.0000
     19 N2A        0.9338   -1.2224    4.0587 N.pl3     1 RES1    0.0000
     20 N3A        3.0709    1.0032    3.5915 N.am      1 RES1    0.0000
     21 C2A        2.8766   -0.2853    2.9822 C.3       1 RES1    0.0000
     22 C3A        0.5346   -0.1488    1.9496 C.3       1 RES1    0.0000
     23 H1A        2.9688    1.0755    4.4243 H         1 RES1    0.0000
     24 H2A        3.3606   -0.9680    3.4792 H         1 RES1    0.0000
     25 H3A        3.1984   -0.2613    2.0522 H         1 RES1    0.0000
     26 H4A        1.0695    0.2115    1.2374 H         1 RES1    0.0000
     27 H5A       -0.0774   -0.8597    1.6009 H         1 RES1    0.0000
     28 H6A        0.0025    0.5330    2.3712 H         1 RES1    0.0000
@<TRIPOS>BOND
     1    1    7 2
     2    2    5 2
     3    3    5 2
     4    4    5 1
     5    6    7 1
     6    7   20 1
     7    8    4 1
     8    9    4 1
     9   10    6 1
    10   11    8 1
    11   12    8 1
    12   13    9 1
    13   14    9 1
    14   15    9 1
    15   16   19 2
    16   17   19 2
    17   18   19 1
    18   20   21 1
    19   21   18 1
    20   22   18 1
    21   23   20 1
    22   24   21 1
    23   25   21 1
    24   26   22 1
    25   27   22 1
    26   28   22 1
    27    6    8 1
@<TRIPOS>SUBSTRUCTURE
     1 RES1 1

@<TRIPOS>CRYSIN
  12.4791    8.5968    9.2482  90.0000  90.0000  90.0000  56 1

