# MOL2 file generated by ConQuest
# Please check atom types

@<TRIPOS>MOLECULE
QOPWEZ
    46    49     1
SMALL
NO_CHARGES
****
Generated from CSD

@<TRIPOS>ATOM
      1 C1         9.0692    7.5102    3.4981 C.ar      1 RES1    0.0000
      2 C2         7.9640    7.1676    2.7223 C.ar      1 RES1    0.0000
      3 H1         7.1749    6.9049    3.1385 H         1 RES1    0.0000
      4 C3         8.0248    7.2130    1.3452 C.ar      1 RES1    0.0000
      5 H2         7.2731    6.9809    0.8475 H         1 RES1    0.0000
      6 C4         9.1831    7.5971    0.6873 C.ar      1 RES1    0.0000
      7 C5        10.2970    7.8884    1.4721 C.ar      1 RES1    0.0000
      8 H3        11.0923    8.1180    1.0486 H         1 RES1    0.0000
      9 C6        10.2694    7.8509    2.8634 C.ar      1 RES1    0.0000
     10 C7        11.4924    8.2528    3.6788 C.3       1 RES1    0.0000
     11 H4        11.5479    9.2306    3.6414 H         1 RES1    0.0000
     12 C8        11.3234    7.8755    5.1495 C.3       1 RES1    0.0000
     13 H5        11.4713    6.9230    5.2551 H         1 RES1    0.0000
     14 H6        11.9903    8.3414    5.6781 H         1 RES1    0.0000
     15 C9         9.9344    8.2292    5.6636 C.3       1 RES1    0.0000
     16 H7         9.7743    9.1854    5.5183 H         1 RES1    0.0000
     17 C10        9.8232    7.9306    7.1394 C.ar      1 RES1    0.0000
     18 C11       10.3429    8.8531    8.0394 C.ar      1 RES1    0.0000
     19 H8        10.7284    9.6350    7.7162 H         1 RES1    0.0000
     20 C12       10.2991    8.6345    9.4035 C.ar      1 RES1    0.0000
     21 H9        10.6429    9.2723    9.9866 H         1 RES1    0.0000
     22 C13        9.7543    7.4902    9.8948 C.ar      1 RES1    0.0000
     23 H10        9.7259    7.3319   10.8104 H         1 RES1    0.0000
     24 C14        9.2461    6.5698    9.0055 C.ar      1 RES1    0.0000
     25 C15        9.2696    6.7699    7.6267 C.ar      1 RES1    0.0000
     26 H11        8.9191    6.1324    7.0477 H         1 RES1    0.0000
     27 C16       12.7994    7.7174    3.1221 C.ar      1 RES1    0.0000
     28 C17       13.1864    6.4051    3.3188 C.ar      1 RES1    0.0000
     29 H12       12.6089    5.8148    3.7464 H         1 RES1    0.0000
     30 C18       14.4295    5.9569    2.8843 C.ar      1 RES1    0.0000
     31 H13       14.6871    5.0767    3.0409 H         1 RES1    0.0000
     32 C19       15.2734    6.8126    2.2254 C.ar      1 RES1    0.0000
     33 H14       16.1087    6.5150    1.9450 H         1 RES1    0.0000
     34 C20       14.8905    8.0999    1.9802 C.ar      1 RES1    0.0000
     35 H15       15.4557    8.6698    1.5086 H         1 RES1    0.0000
     36 C21       13.6605    8.5613    2.4323 C.ar      1 RES1    0.0000
     37 H16       13.4116    9.4432    2.2718 H         1 RES1    0.0000
     38 C22        9.2399    7.7265   -0.8176 C.3       1 RES1    0.0000
     39 H17        8.9218    8.5947   -1.0767 H         1 RES1    0.0000
     40 H18        8.6877    7.0505   -1.2173 H         1 RES1    0.0000
     41 H19       10.1455    7.6168   -1.1137 H         1 RES1    0.0000
     42 N1         8.9654    7.4634    4.8958 N.3       1 RES1    0.0000
     43 N2         8.6698    5.3227    9.5088 N.pl3     1 RES1    0.0000
     44 O1         8.1636    4.5509    8.7252 O.2       1 RES1    0.0000
     45 O2         8.7239    5.0948   10.7064 O.2       1 RES1    0.0000
     46 H20        8.1243    7.4902    5.1604 H         1 RES1    0.0000
@<TRIPOS>BOND
     1    1    2 ar
     2    2    3 1
     3    4    2 ar
     4    5    4 1
     5    6    4 ar
     6    7    6 ar
     7    8    7 1
     8    9    1 ar
     9   10    9 1
    10   11   10 1
    11   12   10 1
    12   13   12 1
    13   14   12 1
    14   15   12 1
    15   16   15 1
    16   17   15 1
    17   18   17 ar
    18   19   18 1
    19   20   18 ar
    20   21   20 1
    21   22   20 ar
    22   23   22 1
    23   24   22 ar
    24   25   17 ar
    25   26   25 1
    26   27   10 1
    27   28   27 ar
    28   29   28 1
    29   30   28 ar
    30   31   30 1
    31   32   30 ar
    32   33   32 1
    33   34   32 ar
    34   35   34 1
    35   36   27 ar
    36   37   36 1
    37   38    6 1
    38   39   38 1
    39   40   38 1
    40   41   38 1
    41   42    1 1
    42   43   24 1
    43   44   43 2
    44   45   43 2
    45   46   42 1
    46    7    9 ar
    47   15   42 1
    48   24   25 ar
    49   34   36 ar
@<TRIPOS>SUBSTRUCTURE
     1 RES1 1

@<TRIPOS>CRYSIN
  15.3627    9.0461   15.4985  90.0000 107.3850  90.0000 231 1

