# MOL2 file generated by ConQuest
# Please check atom types

@<TRIPOS>MOLECULE
QOQPIV
    63    68     1
SMALL
NO_CHARGES
****
Generated from CSD

@<TRIPOS>ATOM
      1 C1         9.0417    4.4162    3.5490 C.2       1 RES1    0.0000
      2 O1         9.9234    3.7729    3.0512 O.2       1 RES1    0.0000
      3 C2         8.9676    5.1193    4.8974 C.3       1 RES1    0.0000
      4 C3         7.7248    5.9186    4.6999 C.2       1 RES1    0.0000
      5 N1         7.0560    5.6020    3.6386 N.2       1 RES1    0.0000
      6 O2         7.8506    4.6285    2.9034 O.3       1 RES1    0.0000
      7 C4         7.2387    7.0341    5.5404 C.ar      1 RES1    0.0000
      8 C5         6.5806    8.0891    4.9247 C.ar      1 RES1    0.0000
      9 H1         6.4036    8.0539    4.0127 H         1 RES1    0.0000
     10 C6         6.1891    9.1918    5.6547 C.ar      1 RES1    0.0000
     11 H2         5.7669    9.9023    5.2286 H         1 RES1    0.0000
     12 C7         6.4173    9.2454    7.0109 C.ar      1 RES1    0.0000
     13 H3         6.1367    9.9855    7.5007 H         1 RES1    0.0000
     14 C8         7.0618    8.2093    7.6396 C.ar      1 RES1    0.0000
     15 H4         7.2098    8.2426    8.5568 H         1 RES1    0.0000
     16 C9         7.4951    7.1070    6.9070 C.ar      1 RES1    0.0000
     17 H5         7.9558    6.4183    7.3305 H         1 RES1    0.0000
     18 C10        8.8416    4.0096    6.0600 C.3       1 RES1    0.0000
     19 H6         8.2631    4.3794    6.7589 H         1 RES1    0.0000
     20 N2        10.1928    3.8804    6.6290 N.2       1 RES1    0.0000
     21 C11       10.9349    4.8668    6.2263 C.2       1 RES1    0.0000
     22 C12       10.2653    5.7969    5.2936 C.2       1 RES1    0.0000
     23 C13        8.2461    2.6800    5.6326 C.ar      1 RES1    0.0000
     24 C14        9.0278    1.5819    5.3313 C.ar      1 RES1    0.0000
     25 H7         9.9534    1.6448    5.3884 H         1 RES1    0.0000
     26 C15        8.4449    0.3830    4.9428 C.ar      1 RES1    0.0000
     27 H8         8.9900   -0.3441    4.7454 H         1 RES1    0.0000
     28 C16        7.0825    0.2461    4.8454 C.ar      1 RES1    0.0000
     29 C17        6.3067    1.3414    5.1520 C.ar      1 RES1    0.0000
     30 H9         5.3811    1.2711    5.0948 H         1 RES1    0.0000
     31 C18        6.8707    2.5477    5.5430 C.ar      1 RES1    0.0000
     32 H10        6.3216    3.2712    5.7469 H         1 RES1    0.0000
     33 C19        6.4618   -1.0898    4.4193 C.3       1 RES1    0.0000
     34 H11        5.5066   -1.0028    4.3895 H         1 RES1    0.0000
     35 H12        6.7019   -1.7706    5.0533 H         1 RES1    0.0000
     36 H13        6.7888   -1.3303    3.5503 H         1 RES1    0.0000
     37 C20       12.3248    5.0129    6.6952 C.ar      1 RES1    0.0000
     38 C21       13.3387    5.3815    5.8301 C.ar      1 RES1    0.0000
     39 H14       13.1392    5.5673    4.9415 H         1 RES1    0.0000
     40 C22       14.6420    5.4766    6.2679 C.ar      1 RES1    0.0000
     41 H15       15.3180    5.7023    5.6703 H         1 RES1    0.0000
     42 C23       14.9386    5.2416    7.5838 C.ar      1 RES1    0.0000
     43 H16       15.8166    5.3230    7.8813 H         1 RES1    0.0000
     44 C24       13.9448    4.8827    8.4710 C.ar      1 RES1    0.0000
     45 H17       14.1515    4.7199    9.3635 H         1 RES1    0.0000
     46 C25       12.6367    4.7641    8.0281 C.ar      1 RES1    0.0000
     47 H18       11.9654    4.5182    8.6230 H         1 RES1    0.0000
     48 C26       10.6720    7.0470    5.0078 C.2       1 RES1    0.0000
     49 H19       11.4671    7.3157    5.4092 H         1 RES1    0.0000
     50 C27       10.0239    8.0428    4.1465 C.ar      1 RES1    0.0000
     51 C28        9.4884    7.7325    2.9008 C.ar      1 RES1    0.0000
     52 H20        9.5851    6.8716    2.5643 H         1 RES1    0.0000
     53 C29        8.8112    8.6867    2.1499 C.ar      1 RES1    0.0000
     54 H21        8.4405    8.4499    1.3302 H         1 RES1    0.0000
     55 C30        8.6836    9.9855    2.6111 C.ar      1 RES1    0.0000
     56 C31        9.2615   10.3076    3.8231 C.ar      1 RES1    0.0000
     57 H22        9.2023   11.1808    4.1387 H         1 RES1    0.0000
     58 C32        9.9249    9.3613    4.5713 C.ar      1 RES1    0.0000
     59 H23       10.3147    9.6099    5.3780 H         1 RES1    0.0000
     60 C33        7.9577   11.0420    1.7966 C.3       1 RES1    0.0000
     61 H24        7.6262   10.6479    0.9860 H         1 RES1    0.0000
     62 H25        8.5651   11.7525    1.5809 H         1 RES1    0.0000
     63 H26        7.2239   11.3898    2.3071 H         1 RES1    0.0000
@<TRIPOS>BOND
     1    1    2 2
     2    3    1 1
     3    4    3 1
     4    5    4 2
     5    6    1 1
     6    7    4 1
     7    8    7 ar
     8    9    8 1
     9   10    8 ar
    10   11   10 1
    11   12   10 ar
    12   13   12 1
    13   14   12 ar
    14   15   14 1
    15   16    7 ar
    16   17   16 1
    17   18    3 1
    18   19   18 1
    19   20   18 1
    20   21   20 2
    21   22    3 1
    22   23   18 1
    23   24   23 ar
    24   25   24 1
    25   26   24 ar
    26   27   26 1
    27   28   26 ar
    28   29   28 ar
    29   30   29 1
    30   31   23 ar
    31   32   31 1
    32   33   28 1
    33   34   33 1
    34   35   33 1
    35   36   33 1
    36   37   21 1
    37   38   37 ar
    38   39   38 1
    39   40   38 ar
    40   41   40 1
    41   42   40 ar
    42   43   42 1
    43   44   42 ar
    44   45   44 1
    45   46   37 ar
    46   47   46 1
    47   48   22 2
    48   49   48 1
    49   50   48 1
    50   51   50 ar
    51   52   51 1
    52   53   51 ar
    53   54   53 1
    54   55   53 ar
    55   56   55 ar
    56   57   56 1
    57   58   50 ar
    58   59   58 1
    59   60   55 1
    60   61   60 1
    61   62   60 1
    62   63   60 1
    63    5    6 1
    64   14   16 ar
    65   21   22 1
    66   29   31 ar
    67   44   46 ar
    68   56   58 ar
@<TRIPOS>SUBSTRUCTURE
     1 RES1 1

@<TRIPOS>CRYSIN
  10.9090   18.5020   13.0920  90.0000  97.1430  90.0000  14 1

