# MOL2 file generated by ConQuest
# Please check atom types

@<TRIPOS>MOLECULE
QOQSUM
    60    63     1
SMALL
NO_CHARGES
****
Generated from CSD

@<TRIPOS>ATOM
      1 O1         1.1120    7.6883   12.7961 O.3       1 RES1    0.0000
      2 C1        -6.0697    6.9874    9.4854 C.ar      1 RES1    0.0000
      3 H1        -6.3735    6.1091    9.4744 H         1 RES1    0.0000
      4 C2        -5.1337    9.6639    9.4894 C.ar      1 RES1    0.0000
      5 H2        -4.8301   10.5420    9.4801 H         1 RES1    0.0000
      6 C3        -0.7436   12.2701    8.5119 C.ar      1 RES1    0.0000
      7 H3        -0.4495   13.1532    8.5008 H         1 RES1    0.0000
      8 O2        -0.1615   11.9196    6.1644 O.3       1 RES1    0.0000
      9 O3        -1.9251    9.8034   14.3075 O.3       1 RES1    0.0000
     10 O4        -3.1385    7.9171   14.2889 O.2       1 RES1    0.0000
     11 O5         0.8014    4.4631   11.2934 O.2       1 RES1    0.0000
     12 O6         0.0637    7.5459   14.7726 O.2       1 RES1    0.0000
     13 N1        -3.9874    6.5510   10.8267 N.pl3     1 RES1    0.0000
     14 O7        -0.1671    4.9581   13.1623 O.2       1 RES1    0.0000
     15 C4        -0.6674   11.4939    7.3687 C.ar      1 RES1    0.0000
     16 C5        -4.8762    7.3346   10.1121 C.ar      1 RES1    0.0000
     17 C6        -4.2267    5.1800   11.2523 C.3       1 RES1    0.0000
     18 H4        -3.5843    4.5991   10.8380 H         1 RES1    0.0000
     19 H5        -5.1121    4.9154   10.9934 H         1 RES1    0.0000
     20 H6        -4.1416    5.1209   12.2063 H         1 RES1    0.0000
     21 C7        -1.2188    8.1191   12.8036 C.3       1 RES1    0.0000
     22 C8        -6.3306    9.3287    8.8891 C.ar      1 RES1    0.0000
     23 H7        -6.8423    9.9925    8.4859 H         1 RES1    0.0000
     24 C9        -3.1402    8.6455   10.8278 C.2       1 RES1    0.0000
     25 C10       -2.9537    7.3676   11.2554 C.2       1 RES1    0.0000
     26 C11       -0.9178    9.2338   11.7767 C.3       1 RES1    0.0000
     27 H8        -0.4913    9.9740   12.2362 H         1 RES1    0.0000
     28 H9        -0.2889    8.8935   11.1211 H         1 RES1    0.0000
     29 C12       -1.8186    6.8650   12.0933 C.3       1 RES1    0.0000
     30 H10       -2.1766    6.2592   12.7760 H         1 RES1    0.0000
     31 C13       -2.2268    8.5758   13.8695 C.2       1 RES1    0.0000
     32 N2        -0.0093    5.0937   11.9556 N.pl3     1 RES1    0.0000
     33 C14       -1.2679   11.7169    9.6855 C.ar      1 RES1    0.0000
     34 H11       -1.3178   12.2413   10.4525 H         1 RES1    0.0000
     35 C15       -1.6290    9.6545    8.5626 C.ar      1 RES1    0.0000
     36 H12       -1.9236    8.7734    8.5699 H         1 RES1    0.0000
     37 C16       -1.7135   10.4111    9.7318 C.ar      1 RES1    0.0000
     38 C17       -0.8570    6.0872   11.2115 C.3       1 RES1    0.0000
     39 H13       -1.3666    5.6150   10.5342 H         1 RES1    0.0000
     40 H14       -0.2737    6.7140   10.7563 H         1 RES1    0.0000
     41 C18       -1.1178   10.1839    7.3985 C.ar      1 RES1    0.0000
     42 H15       -1.0753    9.6600    6.6308 H         1 RES1    0.0000
     43 C19       -2.1670    9.7621   11.0382 C.3       1 RES1    0.0000
     44 H16       -2.5931   10.4473   11.5953 H         1 RES1    0.0000
     45 C20       -4.3855    8.6587   10.1114 C.ar      1 RES1    0.0000
     46 C21       -6.7833    8.0046    8.8788 C.ar      1 RES1    0.0000
     47 H17       -7.5861    7.8037    8.4536 H         1 RES1    0.0000
     48 C22        0.0400    7.7490   13.5805 C.2       1 RES1    0.0000
     49 C23        2.3572    7.3159   13.4514 C.3       1 RES1    0.0000
     50 H18        2.4616    7.8291   14.2559 H         1 RES1    0.0000
     51 H19        3.0945    7.4921   12.8611 H         1 RES1    0.0000
     52 H20        2.3367    6.3815   13.6701 H         1 RES1    0.0000
     53 C24       -2.7406   10.2933   15.4063 C.3       1 RES1    0.0000
     54 H21       -3.6343   10.4542   15.0948 H         1 RES1    0.0000
     55 H22       -2.3670   11.1123   15.7427 H         1 RES1    0.0000
     56 H23       -2.7593    9.6392   16.1075 H         1 RES1    0.0000
     57 C25        0.2650   13.2749    6.0747 C.3       1 RES1    0.0000
     58 H24       -0.4613   13.8551    6.3155 H         1 RES1    0.0000
     59 H25        0.5412   13.4649    5.1751 H         1 RES1    0.0000
     60 H26        1.0013   13.4187    6.6734 H         1 RES1    0.0000
@<TRIPOS>BOND
     1    1   48 1
     2    2    3 1
     3    4    5 1
     4    6    7 1
     5    8   15 1
     6    9   31 1
     7   10   31 2
     8   11   32 2
     9   12   48 2
    10   13   16 1
    11   14   32 2
    12   15    6 ar
    13   16    2 ar
    14   17   13 1
    15   18   17 1
    16   19   17 1
    17   20   17 1
    18   21   26 1
    19   22    4 ar
    20   23   22 1
    21   24   25 2
    22   25   13 1
    23   26   27 1
    24   28   26 1
    25   29   21 1
    26   30   29 1
    27   31   21 1
    28   32   38 1
    29   33    6 ar
    30   34   33 1
    31   35   36 1
    32   37   33 ar
    33   38   29 1
    34   39   38 1
    35   40   38 1
    36   41   15 ar
    37   42   41 1
    38   43   24 1
    39   44   43 1
    40   45    4 ar
    41   46    2 ar
    42   47   46 1
    43   48   21 1
    44   49    1 1
    45   50   49 1
    46   51   49 1
    47   52   49 1
    48   53    9 1
    49   54   53 1
    50   55   53 1
    51   56   53 1
    52   57    8 1
    53   58   57 1
    54   59   57 1
    55   60   57 1
    56   16   45 ar
    57   22   46 ar
    58   24   45 1
    59   25   29 1
    60   26   43 1
    61   35   37 ar
    62   35   41 ar
    63   37   43 1
@<TRIPOS>SUBSTRUCTURE
     1 RES1 1

@<TRIPOS>CRYSIN
   8.3980   23.0880   12.0830  90.0000 107.7500  90.0000 231 1

