# MOL2 file generated by ConQuest
# Please check atom types

@<TRIPOS>MOLECULE
QOQTIZ
    49    52     1
SMALL
NO_CHARGES
****
Generated from CSD

@<TRIPOS>ATOM
      1 C1        -0.9100    7.9538    2.0256 C.ar      1 RES1    0.0000
      2 C2        -2.2948    8.1017    2.2859 C.ar      1 RES1    0.0000
      3 C3        -2.7571    8.4971    3.5268 C.ar      1 RES1    0.0000
      4 C4        -1.8637    8.7812    4.5505 C.ar      1 RES1    0.0000
      5 C5        -0.5029    8.6167    4.3216 C.ar      1 RES1    0.0000
      6 H1         0.0982    8.7853    5.0101 H         1 RES1    0.0000
      7 C6        -0.0257    8.2072    3.0924 C.ar      1 RES1    0.0000
      8 C7         1.4814    8.0054    2.9938 C.3       1 RES1    0.0000
      9 H2         1.8641    8.0680    3.8941 H         1 RES1    0.0000
     10 C8         1.8684    6.6804    2.4005 C.2       1 RES1    0.0000
     11 H3         2.1933    5.9856    2.9267 H         1 RES1    0.0000
     12 C9         1.7251    6.5532    1.1035 C.2       1 RES1    0.0000
     13 H4         2.0122    5.7904    0.6567 H         1 RES1    0.0000
     14 C10        1.0798    7.6879    0.3755 C.3       1 RES1    0.0000
     15 O1         1.4837    9.0100    0.8452 O.3       1 RES1    0.0000
     16 N1         2.0515    9.1005    2.1594 N.3       1 RES1    0.0000
     17 C11        3.4984    9.1033    2.1051 C.ar      1 RES1    0.0000
     18 C12        4.1499    9.6119    3.2179 C.ar      1 RES1    0.0000
     19 H5         3.6561    9.8970    3.9527 H         1 RES1    0.0000
     20 C13        5.5261    9.6977    3.2420 C.ar      1 RES1    0.0000
     21 H6         5.9566   10.0318    3.9950 H         1 RES1    0.0000
     22 C14        6.2621    9.2900    2.1549 C.ar      1 RES1    0.0000
     23 H7         7.1895    9.3544    2.1692 H         1 RES1    0.0000
     24 C15        5.6228    8.7873    1.0490 C.ar      1 RES1    0.0000
     25 H8         6.1240    8.5073    0.3161 H         1 RES1    0.0000
     26 C16        4.2374    8.6902    1.0111 C.ar      1 RES1    0.0000
     27 H9         3.8111    8.3500    0.2575 H         1 RES1    0.0000
     28 O2        -1.1525    7.0858   -0.1997 O.2       1 RES1    0.0000
     29 C17       -3.6082    8.9600    0.5454 C.3       1 RES1    0.0000
     30 H10       -4.2673    8.6994   -0.1022 H         1 RES1    0.0000
     31 H11       -2.8332    9.3013    0.0927 H         1 RES1    0.0000
     32 H12       -3.9709    9.6415    1.1159 H         1 RES1    0.0000
     33 C18       -4.8172    7.5040    4.0631 C.3       1 RES1    0.0000
     34 H13       -5.7453    7.7114    4.1898 H         1 RES1    0.0000
     35 H14       -4.4582    7.1341    4.8725 H         1 RES1    0.0000
     36 H15       -4.7260    6.8653    3.3519 H         1 RES1    0.0000
     37 C19       -1.5459    9.8489    6.6643 C.3       1 RES1    0.0000
     38 H16       -2.0471   10.0748    7.4517 H         1 RES1    0.0000
     39 H17       -1.2015   10.6500    6.2636 H         1 RES1    0.0000
     40 H18       -0.8169    9.2727    6.9040 H         1 RES1    0.0000
     41 C20        0.9505    8.6964   -1.7836 C.3       1 RES1    0.0000
     42 H19        1.2141    8.5441   -2.6937 H         1 RES1    0.0000
     43 H20        1.3439    9.5138   -1.4688 H         1 RES1    0.0000
     44 H21       -0.0059    8.7628   -1.7345 H         1 RES1    0.0000
     45 C21       -0.4361    7.5540    0.6611 C.2       1 RES1    0.0000
     46 O3        -3.2395    7.8257    1.3335 O.3       1 RES1    0.0000
     47 O4        -4.1091    8.6889    3.7287 O.3       1 RES1    0.0000
     48 O5        -2.3991    9.1765    5.7309 O.3       1 RES1    0.0000
     49 O6         1.3965    7.6030   -0.9660 O.3       1 RES1    0.0000
@<TRIPOS>BOND
     1    1    2 ar
     2    2    3 ar
     3    3    4 ar
     4    4    5 ar
     5    5    6 1
     6    7    1 ar
     7    8    7 1
     8    9    8 1
     9   10    8 1
    10   11   10 1
    11   12   10 2
    12   13   12 1
    13   14   12 1
    14   15   14 1
    15   16    8 1
    16   17   16 1
    17   18   17 ar
    18   19   18 1
    19   20   18 ar
    20   21   20 1
    21   22   20 ar
    22   23   22 1
    23   24   22 ar
    24   25   24 1
    25   26   17 ar
    26   27   26 1
    27   28   45 2
    28   29   30 1
    29   31   29 1
    30   32   29 1
    31   33   34 1
    32   35   33 1
    33   36   33 1
    34   37   38 1
    35   39   37 1
    36   40   37 1
    37   41   42 1
    38   43   41 1
    39   44   41 1
    40   45    1 1
    41   46    2 1
    42   47    3 1
    43   48    4 1
    44   49   14 1
    45    5    7 ar
    46   14   45 1
    47   15   16 1
    48   24   26 ar
    49   29   46 1
    50   33   47 1
    51   37   48 1
    52   41   49 1
@<TRIPOS>SUBSTRUCTURE
     1 RES1 1

@<TRIPOS>CRYSIN
  13.4950   10.2178   15.1540  90.0000 115.9560  90.0000 231 1

