# MOL2 file generated by ConQuest
# Please check atom types

@<TRIPOS>MOLECULE
QOTGOV02
    39    42     1
SMALL
NO_CHARGES
****
Generated from CSD

@<TRIPOS>ATOM
      1 O1        -3.3682   19.4181   -0.4796 O.2       1 RES1    0.0000
      2 O2        -3.0110   21.3714   -1.3360 O.2       1 RES1    0.0000
      3 N1        -0.7663   22.6193    1.8150 N.ar      1 RES1    0.0000
      4 N2         0.3053   22.0217    3.7631 N.3       1 RES1    0.0000
      5 H1         0.4019   21.4346    4.3850 H         1 RES1    0.0000
      6 N3        -2.8352   20.4948   -0.5356 N.pl3     1 RES1    0.0000
      7 C1        -0.5194   21.6689    2.8216 C.ar      1 RES1    0.0000
      8 C2        -1.0165   20.3605    2.7202 C.ar      1 RES1    0.0000
      9 H2        -0.7567   19.7182    3.3414 H         1 RES1    0.0000
     10 C3        -1.8579   20.0315    1.7412 C.ar      1 RES1    0.0000
     11 H3        -2.2886   19.2048    1.7280 H         1 RES1    0.0000
     12 C4        -2.0697   20.9924    0.7201 C.ar      1 RES1    0.0000
     13 C5        -1.5598   22.2218    0.7794 C.ar      1 RES1    0.0000
     14 H4        -1.7508   22.8273    0.0975 H         1 RES1    0.0000
     15 C6         1.0940   23.2274    3.9528 C.3       1 RES1    0.0000
     16 C7         2.0617   23.4433    2.8091 C.3       1 RES1    0.0000
     17 H5         1.5614   23.5512    1.9856 H         1 RES1    0.0000
     18 H6         2.6226   22.6588    2.7156 H         1 RES1    0.0000
     19 C8         2.9511   24.6701    3.0206 C.3       1 RES1    0.0000
     20 H7         3.5480   24.7991    2.2544 H         1 RES1    0.0000
     21 C9         2.0825   25.8627    3.2097 C.3       1 RES1    0.0000
     22 H8         1.5734   26.0206    2.3993 H         1 RES1    0.0000
     23 H9         2.6370   26.6419    3.3724 H         1 RES1    0.0000
     24 C10        1.1283   25.6757    4.3718 C.3       1 RES1    0.0000
     25 H10        0.5642   26.4708    4.4785 H         1 RES1    0.0000
     26 C11        1.9882   25.4493    5.6486 C.3       1 RES1    0.0000
     27 H11        2.5643   26.2154    5.7994 H         1 RES1    0.0000
     28 H12        1.4104   25.3467    6.4213 H         1 RES1    0.0000
     29 C12        2.8032   24.2383    5.4667 C.3       1 RES1    0.0000
     30 H13        3.3139   24.0883    6.2896 H         1 RES1    0.0000
     31 C13        1.9450   23.0142    5.2131 C.3       1 RES1    0.0000
     32 H14        1.3665   22.8589    5.9753 H         1 RES1    0.0000
     33 H15        2.5116   22.2376    5.0971 H         1 RES1    0.0000
     34 C14        3.7821   24.4332    4.3342 C.3       1 RES1    0.0000
     35 H16        4.3415   23.6460    4.2374 H         1 RES1    0.0000
     36 H17        4.3527   25.1966    4.5121 H         1 RES1    0.0000
     37 C15        0.2525   24.4253    4.1689 C.3       1 RES1    0.0000
     38 H18       -0.3069   24.2910    4.9496 H         1 RES1    0.0000
     39 H19       -0.3276   24.5543    3.4020 H         1 RES1    0.0000
@<TRIPOS>BOND
     1    1    6 2
     2    2    6 2
     3    3    7 ar
     4    4    5 1
     5    6   12 1
     6    7    4 1
     7    8    7 ar
     8    9    8 1
     9   10    8 ar
    10   11   10 1
    11   12   10 ar
    12   13    3 ar
    13   14   13 1
    14   15    4 1
    15   16   15 1
    16   17   16 1
    17   18   16 1
    18   19   16 1
    19   20   19 1
    20   21   19 1
    21   22   21 1
    22   23   21 1
    23   24   21 1
    24   25   24 1
    25   26   24 1
    26   27   26 1
    27   28   26 1
    28   29   26 1
    29   30   29 1
    30   31   15 1
    31   32   31 1
    32   33   31 1
    33   34   19 1
    34   35   34 1
    35   36   34 1
    36   37   15 1
    37   38   37 1
    38   39   37 1
    39   12   13 ar
    40   24   37 1
    41   29   31 1
    42   29   34 1
@<TRIPOS>SUBSTRUCTURE
     1 RES1 1

@<TRIPOS>CRYSIN
   7.9910   26.3260    6.5880  90.0000  90.0000  90.0000  33 1

