# MOL2 file generated by ConQuest
# Please check atom types

@<TRIPOS>MOLECULE
QOTGOV01
    39    42     1
SMALL
NO_CHARGES
****
Generated from CSD

@<TRIPOS>ATOM
      1 O1         6.5783   -3.1564   -3.1702 O.2       1 RES1    0.0000
      2 O2         8.5854   -3.9609   -3.1037 O.2       1 RES1    0.0000
      3 N1         9.9595   -0.7486   -1.0301 N.ar      1 RES1    0.0000
      4 N2         9.4701    1.2701    0.0266 N.3       1 RES1    0.0000
      5 N3         7.7795   -3.0754   -2.8559 N.pl3     1 RES1    0.0000
      6 C1         9.0764    0.2364   -0.7402 C.ar      1 RES1    0.0000
      7 C2         7.7232    0.2061   -1.1876 C.ar      1 RES1    0.0000
      8 C3         7.2842   -0.8724   -1.8924 C.ar      1 RES1    0.0000
      9 C4         8.2052   -1.8857   -2.1793 C.ar      1 RES1    0.0000
     10 C5         9.5182   -1.7783   -1.7445 C.ar      1 RES1    0.0000
     11 C6        10.7133    1.4208    0.8009 C.3       1 RES1    0.0000
     12 C7        10.8529    0.2950    1.8406 C.3       1 RES1    0.0000
     13 C8        12.1040    0.5346    2.6962 C.3       1 RES1    0.0000
     14 C9        13.3410    0.5695    1.7925 C.3       1 RES1    0.0000
     15 C10       13.2033    1.6960    0.7713 C.3       1 RES1    0.0000
     16 C11       13.0743    3.0365    1.5071 C.3       1 RES1    0.0000
     17 C12       11.8328    3.0030    2.4026 C.3       1 RES1    0.0000
     18 C13       10.5888    2.7666    1.5359 C.3       1 RES1    0.0000
     19 C14       11.9576    1.4649   -0.0984 C.3       1 RES1    0.0000
     20 C15       11.9666    1.8738    3.4342 C.3       1 RES1    0.0000
     21 H1         8.8838    1.8152    0.1804 H         1 RES1    0.0000
     22 H2         7.1043    0.9257   -0.9318 H         1 RES1    0.0000
     23 H3         6.3975   -0.9593   -2.1275 H         1 RES1    0.0000
     24 H4        10.1031   -2.4571   -1.9708 H         1 RES1    0.0000
     25 H5        10.8943   -0.5721    1.3355 H         1 RES1    0.0000
     26 H6        10.0271    0.2087    2.3272 H         1 RES1    0.0000
     27 H7        12.2093   -0.1962    3.2893 H         1 RES1    0.0000
     28 H8        13.3863   -0.3101    1.3659 H         1 RES1    0.0000
     29 H9        14.1353    0.7921    2.3383 H         1 RES1    0.0000
     30 H10       14.0480    1.7290    0.2115 H         1 RES1    0.0000
     31 H11       12.9499    3.7891    0.8356 H         1 RES1    0.0000
     32 H12       13.9044    3.2044    2.0558 H         1 RES1    0.0000
     33 H13       11.7363    3.8339    2.8131 H         1 RES1    0.0000
     34 H14       10.5029    3.4454    0.8881 H         1 RES1    0.0000
     35 H15        9.8046    2.7159    2.0943 H         1 RES1    0.0000
     36 H16       12.0573    0.6215   -0.6389 H         1 RES1    0.0000
     37 H17       11.8348    2.1187   -0.7536 H         1 RES1    0.0000
     38 H18       12.7697    2.0667    3.9844 H         1 RES1    0.0000
     39 H19       11.1337    1.8626    4.0436 H         1 RES1    0.0000
@<TRIPOS>BOND
     1    1    5 2
     2    2    5 2
     3    3    6 ar
     4    4    6 1
     5    5    9 1
     6    6    7 ar
     7    7    8 ar
     8    8    9 ar
     9    9   10 ar
    10   10    3 ar
    11   11    4 1
    12   12   11 1
    13   13   12 1
    14   14   13 1
    15   15   14 1
    16   16   15 1
    17   17   16 1
    18   18   11 1
    19   19   11 1
    20   20   13 1
    21   21    4 1
    22   22    7 1
    23   23    8 1
    24   24   10 1
    25   25   12 1
    26   26   12 1
    27   27   13 1
    28   28   14 1
    29   29   14 1
    30   30   15 1
    31   31   16 1
    32   32   16 1
    33   33   17 1
    34   34   18 1
    35   35   18 1
    36   36   19 1
    37   37   19 1
    38   38   20 1
    39   39   20 1
    40   15   19 1
    41   17   18 1
    42   17   20 1
@<TRIPOS>SUBSTRUCTURE
     1 RES1 1

@<TRIPOS>CRYSIN
  28.1580    6.5840    7.3950  90.0000  90.0000  90.0000  29 1

