# MOL2 file generated by ConQuest
# Please check atom types

@<TRIPOS>MOLECULE
QOTPUL
    38    41     1
SMALL
NO_CHARGES
****
Generated from CSD

@<TRIPOS>ATOM
      1 O1         2.8692   10.3255    2.3477 O.2       1 RES1    0.0000
      2 O2         4.1811    9.9980    0.6019 O.2       1 RES1    0.0000
      3 N1         3.4752    9.5407    1.5529 N.pl3     1 RES1    0.0000
      4 N2         2.6356    6.2176    2.4254 N.pl3     1 RES1    0.0000
      5 N3         1.3168    6.5578   -0.0469 N.ar      1 RES1    0.0000
      6 N4         5.9365    6.4176    2.1475 N.ar      1 RES1    0.0000
      7 C1         3.3820    8.2102    1.7093 C.2       1 RES1    0.0000
      8 C2         4.0707    7.2143    0.8026 C.3       1 RES1    0.0000
      9 H1         3.9196    7.4637   -0.1541 H         1 RES1    0.0000
     10 C3         3.3065    5.9133    1.1344 C.3       1 RES1    0.0000
     11 H2         3.9369    5.1436    1.2331 H         1 RES1    0.0000
     12 C4         2.6071    7.5593    2.6898 C.2       1 RES1    0.0000
     13 C5         1.8673    7.9927    3.7961 C.2       1 RES1    0.0000
     14 H3         1.8300    8.9153    4.0169 H         1 RES1    0.0000
     15 C6         1.2004    7.0717    4.5548 C.2       1 RES1    0.0000
     16 H4         0.6907    7.3633    5.3024 H         1 RES1    0.0000
     17 C7         1.2539    5.7045    4.2501 C.2       1 RES1    0.0000
     18 H5         0.7840    5.0711    4.7797 H         1 RES1    0.0000
     19 C8         1.9947    5.3014    3.1796 C.2       1 RES1    0.0000
     20 H6         2.0587    4.3788    2.9650 H         1 RES1    0.0000
     21 C9         2.2284    5.6017    0.1130 C.ar      1 RES1    0.0000
     22 C10        2.2197    4.4250   -0.5949 C.ar      1 RES1    0.0000
     23 H7         2.8764    3.7557   -0.4417 H         1 RES1    0.0000
     24 C11        1.2161    4.2449   -1.5470 C.ar      1 RES1    0.0000
     25 H8         1.1831    3.4482   -2.0641 H         1 RES1    0.0000
     26 C12        0.2876    5.2169   -1.7272 C.ar      1 RES1    0.0000
     27 H9        -0.4018    5.1157   -2.3739 H         1 RES1    0.0000
     28 C13        0.3644    6.3522   -0.9534 C.ar      1 RES1    0.0000
     29 H10       -0.2976    7.0247   -1.0726 H         1 RES1    0.0000
     30 C14        5.5607    7.1617    1.0956 C.ar      1 RES1    0.0000
     31 C15        6.4626    7.8923    0.3469 C.ar      1 RES1    0.0000
     32 H11        6.1634    8.4014   -0.3972 H         1 RES1    0.0000
     33 C16        7.7986    7.8764    0.6901 C.ar      1 RES1    0.0000
     34 H12        8.4335    8.3815    0.1954 H         1 RES1    0.0000
     35 C17        8.1977    7.1028    1.7797 C.ar      1 RES1    0.0000
     36 H13        9.1083    7.0629    2.0434 H         1 RES1    0.0000
     37 C18        7.2351    6.4032    2.4583 C.ar      1 RES1    0.0000
     38 H14        7.5086    5.8742    3.1986 H         1 RES1    0.0000
@<TRIPOS>BOND
     1    1    3 2
     2    2    3 2
     3    3    7 1
     4    4   10 1
     5    5   21 ar
     6    6   30 ar
     7    7    8 1
     8    8    9 1
     9   10    8 1
    10   11   10 1
    11   12    4 1
    12   13   12 1
    13   14   13 1
    14   15   13 2
    15   16   15 1
    16   17   15 1
    17   18   17 1
    18   19    4 1
    19   20   19 1
    20   21   10 1
    21   22   21 ar
    22   23   22 1
    23   24   22 ar
    24   25   24 1
    25   26   24 ar
    26   27   26 1
    27   28    5 ar
    28   29   28 1
    29   30    8 1
    30   31   30 ar
    31   32   31 1
    32   33   31 ar
    33   34   33 1
    34   35   33 ar
    35   36   35 1
    36   37    6 ar
    37   38   37 1
    38    7   12 2
    39   17   19 2
    40   26   28 ar
    41   35   37 ar
@<TRIPOS>SUBSTRUCTURE
     1 RES1 1

@<TRIPOS>CRYSIN
  28.0688    7.9672   21.1859  90.0000 131.4080  90.0000  15 1

