# MOL2 file generated by ConQuest
# Please check atom types

@<TRIPOS>MOLECULE
QOTVAW
    24    26     1
SMALL
NO_CHARGES
****
Generated from CSD

@<TRIPOS>ATOM
      1 C1        -0.4959   12.9273   10.8321 C.2       1 RES1    0.0000
      2 C2        -0.9778   12.9789    8.5717 C.3       1 RES1    0.0000
      3 C3        -0.3428   11.6308    8.8888 C.3       1 RES1    0.0000
      4 C4         0.4791   10.6993   11.0303 C.2       1 RES1    0.0000
      5 C5         1.2389    8.5195   11.0746 C.2       1 RES1    0.0000
      6 C6         1.5898    8.2113   12.3849 C.2       1 RES1    0.0000
      7 C7         2.0416    6.8872   12.3347 C.2       1 RES1    0.0000
      8 C8         1.4903    9.0308   13.5354 C.1       1 RES1    0.0000
      9 C9         1.2139    7.1472    8.9611 C.ar      1 RES1    0.0000
     10 C10        1.5701    8.0563    7.9888 C.ar      1 RES1    0.0000
     11 C11        1.2710    7.7791    6.6797 C.ar      1 RES1    0.0000
     12 C12        0.6209    6.6083    6.3416 C.ar      1 RES1    0.0000
     13 C13        0.2880    5.7026    7.3162 C.ar      1 RES1    0.0000
     14 C14        0.5735    5.9609    8.6347 C.ar      1 RES1    0.0000
     15 N1        -0.8120   14.2858   12.6425 N.pl3     1 RES1    0.0000
     16 N2        -0.2831   13.1391   12.1249 N.2       1 RES1    0.0000
     17 N3        -1.0473   13.6212    9.8692 N.3       1 RES1    0.0000
     18 N4        -0.0452   11.7341   10.3133 N.pl3     1 RES1    0.0000
     19 N5         0.7156    9.6111   10.4311 N.2       1 RES1    0.0000
     20 N6         1.4897    7.3951   10.3506 N.pl3     1 RES1    0.0000
     21 N7         1.9733    6.3965   11.1293 N.2       1 RES1    0.0000
     22 N8         1.4179    9.6800   14.4715 N.1       1 RES1    0.0000
     23 O1        -1.5163   15.0382   11.9932 O.2       1 RES1    0.0000
     24 O2        -0.5552   14.4889   13.8187 O.2       1 RES1    0.0000
@<TRIPOS>BOND
     1    1   16 2
     2    2    3 1
     3    3   18 1
     4    4   18 1
     5    5    6 2
     6    6    7 1
     7    7   21 2
     8    8    6 1
     9    9   10 ar
    10   10   11 ar
    11   11   12 ar
    12   12   13 ar
    13   13   14 ar
    14   14    9 ar
    15   15   16 1
    16   17    1 1
    17   18    1 1
    18   19    4 2
    19   20    5 1
    20   21   20 1
    21   22    8 3
    22   23   15 2
    23   24   15 2
    24    2   17 1
    25    5   19 1
    26    9   20 1
@<TRIPOS>SUBSTRUCTURE
     1 RES1 1

@<TRIPOS>CRYSIN
   7.3100   17.2180   11.6690  90.0000  92.5520  90.0000 231 1

