# MOL2 file generated by ConQuest
# Please check atom types

@<TRIPOS>MOLECULE
QOTZOQ
    76    57     2
SMALL
NO_CHARGES
****
Generated from CSD

@<TRIPOS>ATOM
      1 N1         6.0950    8.6005    8.3440 N.3       1 RES1    0.0000
      2 C1         5.2534    9.7480    8.7451 C.3       1 RES1    0.0000
      3 H1         4.5046    9.4173    9.3010 H         1 RES1    0.0000
      4 H2         4.8667   10.1617    7.9332 H         1 RES1    0.0000
      5 C2         6.0113   10.8035    9.5198 C.3       1 RES1    0.0000
      6 H3         5.3790   11.4931    9.8425 H         1 RES1    0.0000
      7 H4         6.4398   10.3887   10.3094 H         1 RES1    0.0000
      8 N2         7.0212   11.4237    8.6958 N.3       1 RES1    0.0000
      9 H5         7.6472   10.8181    8.2795 H         1 RES1    0.0000
     10 C3         7.9520   12.3481    9.3756 C.3       1 RES1    0.0000
     11 H6         8.3187   11.8952   10.1757 H         1 RES1    0.0000
     12 H7         7.4425   13.1375    9.6868 H         1 RES1    0.0000
     13 C4         9.1048   12.8245    8.5185 C.3       1 RES1    0.0000
     14 H8         9.5733   13.5542    8.9963 H         1 RES1    0.0000
     15 H9         8.7390   13.2030    7.6811 H         1 RES1    0.0000
     16 C5        10.1247   11.7455    8.1590 C.3       1 RES1    0.0000
     17 H10       10.9281   12.1837    7.7819 H         1 RES1    0.0000
     18 H11       10.3995   11.2828    8.9898 H         1 RES1    0.0000
     19 N3         9.6425   10.7369    7.1966 N.3       1 RES1    0.0000
     20 C6        10.5851    9.6051    7.1309 C.3       1 RES1    0.0000
     21 H12       11.5122    9.9514    7.1440 H         1 RES1    0.0000
     22 H13       10.4532    9.1199    6.2781 H         1 RES1    0.0000
     23 C7        10.3940    8.6533    8.2795 C.3       1 RES1    0.0000
     24 H14       11.1355    7.9969    8.3058 H         1 RES1    0.0000
     25 H15       10.3858    9.1503    9.1366 H         1 RES1    0.0000
     26 N4         9.1111    7.9588    8.0866 N.3       1 RES1    0.0000
     27 H16        8.4406    8.5369    8.0362 H         1 RES1    0.0000
     28 C8         8.8027    7.2652    9.3265 C.3       1 RES1    0.0000
     29 H17        8.8991    7.8962   10.0836 H         1 RES1    0.0000
     30 H18        9.4541    6.5316    9.4589 H         1 RES1    0.0000
     31 C9         7.4170    6.6969    9.3376 C.3       1 RES1    0.0000
     32 H19        7.3497    6.0356   10.0727 H         1 RES1    0.0000
     33 H20        7.2633    6.2156    8.4856 H         1 RES1    0.0000
     34 C10        6.3279    7.7309    9.5141 C.3       1 RES1    0.0000
     35 H21        5.4827    7.2633    9.7307 H         1 RES1    0.0000
     36 H22        6.5590    8.3022   10.2897 H         1 RES1    0.0000
     37 C11        5.3981    7.8346    7.3104 C.3       1 RES1    0.0000
     38 H23        4.4710    7.6692    7.6153 H         1 RES1    0.0000
     39 H24        5.8421    6.9542    7.2207 H         1 RES1    0.0000
     40 C12        5.3435    8.4802    5.9471 C.ar      1 RES1    0.0000
     41 C13        6.3079    9.3938    5.5087 C.ar      1 RES1    0.0000
     42 H25        6.9803    9.6961    6.1072 H         1 RES1    0.0000
     43 C14        6.2834    9.8595    4.2009 C.ar      1 RES1    0.0000
     44 H26        6.9357   10.4787    3.8975 H         1 RES1    0.0000
     45 C15        5.2971    9.4066    3.3500 C.ar      1 RES1    0.0000
     46 N5         5.2971    9.8565    1.9542 N.pl3     1 RES1    0.0000
     47 O1         6.1660   10.6509    1.6147 O.2       1 RES1    0.0000
     48 O2         4.4355    9.4418    1.2006 O.2       1 RES1    0.0000
     49 C16        4.3190    8.5193    3.7551 C.ar      1 RES1    0.0000
     50 H27        3.6439    8.2278    3.1544 H         1 RES1    0.0000
     51 C17        4.3527    8.0684    5.0596 C.ar      1 RES1    0.0000
     52 H28        3.6839    7.4638    5.3575 H         1 RES1    0.0000
     53 C18        9.4896   11.2955    5.8792 C.3       1 RES1    0.0000
     54 H29       10.3240   11.7328    5.6118 H         1 RES1    0.0000
     55 H30        8.7627   11.9529    5.8858 H         1 RES1    0.0000
     56 H31        9.2767   10.5804    5.2435 H         1 RES1    0.0000
     57 C19        7.4698   12.3158    9.8600 Du        2 SUP2    0.0000
     58 H32        7.7236   11.7876   10.6579 Du        2 SUP2    0.0000
     59 H33        6.7792   12.9839   10.1055 Du        2 SUP2    0.0000
     60 C20        8.6799   12.9516    9.1651 Du        2 SUP2    0.0000
     61 H34        8.4078   13.2891    8.2751 Du        2 SUP2    0.0000
     62 H35        8.9956   13.7225    9.7000 Du        2 SUP2    0.0000
     63 C21        9.7899   11.9930    9.0007 Du        2 SUP2    0.0000
     64 H36        9.9409   11.5313    9.8622 Du        2 SUP2    0.0000
     65 H37       10.6142   12.4958    8.7837 Du        2 SUP2    0.0000
     66 N6         9.5715   10.9707    7.9529 Du        2 SUP2    0.0000
     67 C22       10.7179    9.9192    8.1195 Du        2 SUP2    0.0000
     68 H38       11.5531   10.2742    7.7337 Du        2 SUP2    0.0000
     69 H39       10.8689    9.7470    9.0840 Du        2 SUP2    0.0000
     70 C23       10.3449    8.6083    7.4202 Du        2 SUP2    0.0000
     71 H40       11.1110    7.9823    7.4663 Du        2 SUP2    0.0000
     72 H41       10.1493    8.7864    6.4667 Du        2 SUP2    0.0000
     73 C24        9.2622   11.6506    6.7516 Du        2 SUP2    0.0000
     74 H42       10.0610   11.7132    6.1905 Du        2 SUP2    0.0000
     75 H43        8.9419   12.5574    6.9643 Du        2 SUP2    0.0000
     76 H44        8.5589   11.1664    6.2716 Du        2 SUP2    0.0000
@<TRIPOS>BOND
     1    1    2 1
     2    2    3 1
     3    4    2 1
     4    5    2 1
     5    6    5 1
     6    7    5 1
     7    8    5 1
     8    9    8 1
     9   10    8 1
    10   11   10 1
    11   12   10 1
    12   13   10 1
    13   14   13 1
    14   15   13 1
    15   16   13 1
    16   17   16 1
    17   18   16 1
    18   19   16 1
    19   20   19 1
    20   21   20 1
    21   22   20 1
    22   23   20 1
    23   24   23 1
    24   25   23 1
    25   26   23 1
    26   27   26 1
    27   28   26 1
    28   29   28 1
    29   30   28 1
    30   31   28 1
    31   32   31 1
    32   33   31 1
    33   34    1 1
    34   35   34 1
    35   36   34 1
    36   37    1 1
    37   38   37 1
    38   39   37 1
    39   40   37 1
    40   41   40 ar
    41   42   41 1
    42   43   41 ar
    43   44   43 1
    44   45   43 ar
    45   46   45 1
    46   47   46 2
    47   48   46 2
    48   49   45 ar
    49   50   49 1
    50   51   40 ar
    51   52   51 1
    52   53   19 1
    53   54   53 1
    54   55   53 1
    55   56   53 1
    56   31   34 1
    57   49   51 ar
@<TRIPOS>SUBSTRUCTURE
     1 RES1 1
     2 SUP2 57

@<TRIPOS>CRYSIN
   9.0984    9.7822   21.9209  90.0000  90.0000  90.0000  19 1

