# MOL2 file generated by ConQuest
# Please check atom types

@<TRIPOS>MOLECULE
QOVTAX
    86    86     1
SMALL
NO_CHARGES
****
Generated from CSD

@<TRIPOS>ATOM
      1 O1         6.2961    8.2664   -0.8802 O.2       1 RES1    0.0000
      2 O2         4.6699    8.7641   -2.1810 O.2       1 RES1    0.0000
      3 O3         3.0994   14.4809   -0.9286 O.2       1 RES1    0.0000
      4 O4         2.5922   12.8574   -2.2364 O.2       1 RES1    0.0000
      5 N1         5.4313    9.0585   -1.2725 N.pl3     1 RES1    0.0000
      6 N2         3.2605   13.3192   -1.3234 N.pl3     1 RES1    0.0000
      7 N3         6.9407    9.8672    1.1249 N.3       1 RES1    0.0000
      8 H1         7.0152    9.0614    0.7446 H         1 RES1    0.0000
      9 N4         4.8802   14.1689    1.0033 N.3       1 RES1    0.0000
     10 H2         4.3630   14.6509    0.6241 H         1 RES1    0.0000
     11 C1         6.0808   10.7079    0.5269 C.ar      1 RES1    0.0000
     12 C2         5.3223   10.3463   -0.6429 C.ar      1 RES1    0.0000
     13 C3         4.4287   11.2357   -1.1881 C.ar      1 RES1    0.0000
     14 H3         3.9601   10.9651   -1.8960 H         1 RES1    0.0000
     15 C4         4.2428   12.4978   -0.6752 C.ar      1 RES1    0.0000
     16 C5         4.9962   12.9391    0.4681 C.ar      1 RES1    0.0000
     17 C6         5.8773   12.0024    1.0256 C.ar      1 RES1    0.0000
     18 H4         6.3596   12.2483    1.7893 H         1 RES1    0.0000
     19 C7         7.6470   10.1411    2.3628 C.3       1 RES1    0.0000
     20 H5         8.0285   11.0396    2.3127 H         1 RES1    0.0000
     21 H6         8.3494    9.5014    2.3956 H         1 RES1    0.0000
     22 C8         6.7794   10.0318    3.6075 C.3       1 RES1    0.0000
     23 H7         6.0219   10.6836    3.5589 H         1 RES1    0.0000
     24 H8         6.3379    9.1595    3.6063 H         1 RES1    0.0000
     25 C9         7.5835   10.2499    4.8788 C.3       1 RES1    0.0000
     26 H9         8.3494    9.5797    4.8979 H         1 RES1    0.0000
     27 H10        7.9819   11.1248    4.8308 H         1 RES1    0.0000
     28 C10        6.7612   10.1339    6.1534 C.3       1 RES1    0.0000
     29 H11        6.0031   10.8246    6.1342 H         1 RES1    0.0000
     30 H12        6.2994    9.2821    6.1895 H         1 RES1    0.0000
     31 C11        7.5807   10.2817    7.4227 C.3       1 RES1    0.0000
     32 H13        8.2997    9.5986    7.4318 H         1 RES1    0.0000
     33 H14        8.0084   11.1218    7.4318 H         1 RES1    0.0000
     34 C12        6.7726   10.1367    8.7001 C.3       1 RES1    0.0000
     35 H15        6.0397   10.8482    8.7037 H         1 RES1    0.0000
     36 H16        6.3093    9.2704    8.7037 H         1 RES1    0.0000
     37 C13        7.6061   10.2745    9.9647 C.3       1 RES1    0.0000
     38 H17        8.0591   11.1553    9.9775 H         1 RES1    0.0000
     39 H18        8.3107    9.6003    9.9657 H         1 RES1    0.0000
     40 C14        6.8079   10.1251   11.2528 C.3       1 RES1    0.0000
     41 H19        6.0679   10.8044   11.2652 H         1 RES1    0.0000
     42 H20        6.4076    9.2207   11.2395 H         1 RES1    0.0000
     43 C15        7.6421   10.2794   12.5104 C.3       1 RES1    0.0000
     44 H21        8.3600    9.6084   12.5035 H         1 RES1    0.0000
     45 H22        8.0789   11.1486   12.4996 H         1 RES1    0.0000
     46 C16        6.8680   10.1342   13.8032 C.3       1 RES1    0.0000
     47 H23        6.1016   10.8085   13.7497 H         1 RES1    0.0000
     48 H24        6.4539    9.2532   13.7991 H         1 RES1    0.0000
     49 C17        7.7109   10.3176   15.0473 C.3       1 RES1    0.0000
     50 H25        8.4682    9.6685   15.0176 H         1 RES1    0.0000
     51 H26        7.1960   10.2527   15.8392 H         1 RES1    0.0000
     52 H27        8.1692   11.2007   15.0769 H         1 RES1    0.0000
     53 C18        5.5539   14.6047    2.2126 C.3       1 RES1    0.0000
     54 H28        6.4985   14.3092    2.2120 H         1 RES1    0.0000
     55 H29        5.5809   15.5439    2.1823 H         1 RES1    0.0000
     56 C19        4.8554   14.1340    3.4821 C.3       1 RES1    0.0000
     57 H30        4.0501   14.6849    3.6201 H         1 RES1    0.0000
     58 H31        4.5211   13.1724    3.3792 H         1 RES1    0.0000
     59 C20        5.7132   14.2455    4.7308 C.3       1 RES1    0.0000
     60 H32        6.4221   13.5460    4.7083 H         1 RES1    0.0000
     61 H33        6.1882   15.1582    4.7419 H         1 RES1    0.0000
     62 C21        4.9183   14.1044    6.0199 C.3       1 RES1    0.0000
     63 H34        4.3313   13.3025    5.9565 H         1 RES1    0.0000
     64 H35        4.3017   14.8805    6.0947 H         1 RES1    0.0000
     65 C22        5.7626   14.1096    7.2872 C.3       1 RES1    0.0000
     66 H36        6.3593   14.9585    7.2738 H         1 RES1    0.0000
     67 H37        6.3621   13.3452    7.2837 H         1 RES1    0.0000
     68 C23        4.9404   14.1045    8.5642 C.3       1 RES1    0.0000
     69 H38        4.3208   13.3209    8.5476 H         1 RES1    0.0000
     70 H39        4.3693   14.9089    8.5634 H         1 RES1    0.0000
     71 C24        5.7643   14.0701    9.8385 C.3       1 RES1    0.0000
     72 H40        6.4144   14.8835    9.8373 H         1 RES1    0.0000
     73 H41        6.3382   13.2899    9.8669 H         1 RES1    0.0000
     74 C25        4.9349   14.1101   11.1139 C.3       1 RES1    0.0000
     75 H42        4.3665   14.9240   11.0835 H         1 RES1    0.0000
     76 H43        4.2814   13.3512   11.0914 H         1 RES1    0.0000
     77 C26        5.7473   14.0436   12.3923 C.3       1 RES1    0.0000
     78 H44        6.4132   14.8195   12.4008 H         1 RES1    0.0000
     79 H45        6.2701   13.2317   12.3890 H         1 RES1    0.0000
     80 C27        4.9174   14.0961   13.6589 C.3       1 RES1    0.0000
     81 H46        4.3887   14.9458   13.6470 H         1 RES1    0.0000
     82 H47        4.2523   13.3971   13.6371 H         1 RES1    0.0000
     83 C28        5.7303   13.9846   14.9333 C.3       1 RES1    0.0000
     84 H48        6.1830   13.1608   14.9386 H         1 RES1    0.0000
     85 H49        6.4892   14.6914   14.9623 H         1 RES1    0.0000
     86 H50        5.1557   14.1167   15.6970 H         1 RES1    0.0000
@<TRIPOS>BOND
     1    1    5 2
     2    2    5 2
     3    3    6 2
     4    4    6 2
     5    5   12 1
     6    6   15 1
     7    7    8 1
     8    9   10 1
     9   11    7 1
    10   12   11 ar
    11   13   12 ar
    12   14   13 1
    13   15   13 ar
    14   16    9 1
    15   17   11 ar
    16   18   17 1
    17   19    7 1
    18   20   19 1
    19   21   19 1
    20   22   19 1
    21   23   22 1
    22   24   22 1
    23   25   22 1
    24   26   25 1
    25   27   25 1
    26   28   25 1
    27   29   28 1
    28   30   28 1
    29   31   28 1
    30   32   31 1
    31   33   31 1
    32   34   31 1
    33   35   34 1
    34   36   34 1
    35   37   34 1
    36   38   37 1
    37   39   37 1
    38   40   37 1
    39   41   40 1
    40   42   40 1
    41   43   40 1
    42   44   43 1
    43   45   43 1
    44   46   43 1
    45   47   46 1
    46   48   46 1
    47   49   46 1
    48   50   49 1
    49   51   49 1
    50   52   49 1
    51   53    9 1
    52   54   53 1
    53   55   53 1
    54   56   53 1
    55   57   56 1
    56   58   56 1
    57   59   56 1
    58   60   59 1
    59   61   59 1
    60   62   59 1
    61   63   62 1
    62   64   62 1
    63   65   62 1
    64   66   65 1
    65   67   65 1
    66   68   65 1
    67   69   68 1
    68   70   68 1
    69   71   68 1
    70   72   71 1
    71   73   71 1
    72   74   71 1
    73   75   74 1
    74   76   74 1
    75   77   74 1
    76   78   77 1
    77   79   77 1
    78   80   77 1
    79   81   80 1
    80   82   80 1
    81   83   80 1
    82   84   83 1
    83   85   83 1
    84   86   83 1
    85   15   16 ar
    86   16   17 ar
@<TRIPOS>SUBSTRUCTURE
     1 RES1 1

@<TRIPOS>CRYSIN
   4.7349   15.6273   19.7771  87.2820  88.5490  87.0690   2 1

