# MOL2 file generated by ConQuest
# Please check atom types

@<TRIPOS>MOLECULE
QOVTEB
    58    59     1
SMALL
NO_CHARGES
****
Generated from CSD

@<TRIPOS>ATOM
      1 O1         0.8955   13.4151    5.1659 O.2       1 RES1    0.0000
      2 O2        -0.8068   13.9857    6.3588 O.2       1 RES1    0.0000
      3 O3        -0.8925   20.0594    6.2960 O.2       1 RES1    0.0000
      4 O4        -1.7548   18.4450    7.4566 O.2       1 RES1    0.0000
      5 N1         0.1655   14.2771    5.6672 N.pl3     1 RES1    0.0000
      6 N2        -0.9836   18.8694    6.5984 N.pl3     1 RES1    0.0000
      7 N3         2.1663   15.2240    3.7261 N.3       1 RES1    0.0000
      8 H1         2.0792   14.4009    3.8948 H         1 RES1    0.0000
      9 C1         1.4182   16.0765    4.4355 C.ar      1 RES1    0.0000
     10 C2         0.4532   15.6737    5.4103 C.ar      1 RES1    0.0000
     11 C3        -0.3104   16.5864    6.1219 C.ar      1 RES1    0.0000
     12 H2        -0.9062   16.2773    6.7402 H         1 RES1    0.0000
     13 C4        -0.1394   17.9279    5.8849 C.ar      1 RES1    0.0000
     14 C5         0.7906   18.3848    4.9477 C.ar      1 RES1    0.0000
     15 H3         0.8984   19.2913    4.7929 H         1 RES1    0.0000
     16 C6         1.5418   17.4888    4.2439 C.ar      1 RES1    0.0000
     17 H4         2.1436   17.7779    3.6369 H         1 RES1    0.0000
     18 C7         3.0717   15.5921    2.6352 C.3       1 RES1    0.0000
     19 H5         3.5723   16.3983    2.8988 H         1 RES1    0.0000
     20 H6         3.7184   14.8539    2.5609 H         1 RES1    0.0000
     21 C8         2.3307   15.8111    1.3196 C.3       1 RES1    0.0000
     22 H7         1.6226   16.5192    1.4494 H         1 RES1    0.0000
     23 H8         2.9819   16.1306    0.7025 H         1 RES1    0.0000
     24 C9         1.6704   14.5407    0.7674 C.3       1 RES1    0.0000
     25 H9         0.9925   14.7767    0.0889 H         1 RES1    0.0000
     26 H10        1.1069   14.1178    1.4672 H         1 RES1    0.0000
     27 C10        2.6665   13.5181    0.2321 C.3       1 RES1    0.0000
     28 H11        3.3725   13.3122    0.9426 H         1 RES1    0.0000
     29 H12        3.1388   13.9839   -0.5157 H         1 RES1    0.0000
     30 O1B        3.7785   12.3238   -5.1659 O.2       1 RES1    0.0000
     31 O2B        5.4808   11.7532   -6.3588 O.2       1 RES1    0.0000
     32 O3B        5.5665    5.6795   -6.2960 O.2       1 RES1    0.0000
     33 O4B        6.4288    7.2939   -7.4566 O.2       1 RES1    0.0000
     34 N1B        4.5085   11.4618   -5.6672 N.pl3     1 RES1    0.0000
     35 N2B        5.6576    6.8695   -6.5984 N.pl3     1 RES1    0.0000
     36 N3B        2.5077   10.5149   -3.7261 N.3       1 RES1    0.0000
     37 H1B        2.5948   11.3380   -3.8948 H         1 RES1    0.0000
     38 C1B        3.2558    9.6624   -4.4355 C.ar      1 RES1    0.0000
     39 C2B        4.2208   10.0652   -5.4103 C.ar      1 RES1    0.0000
     40 C3B        4.9844    9.1525   -6.1219 C.ar      1 RES1    0.0000
     41 H2B        5.5802    9.4616   -6.7402 H         1 RES1    0.0000
     42 C4B        4.8134    7.8110   -5.8849 C.ar      1 RES1    0.0000
     43 C5B        3.8834    7.3541   -4.9477 C.ar      1 RES1    0.0000
     44 H3B        3.7756    6.4476   -4.7929 H         1 RES1    0.0000
     45 C6B        3.1322    8.2501   -4.2439 C.ar      1 RES1    0.0000
     46 H4B        2.5304    7.9610   -3.6369 H         1 RES1    0.0000
     47 C7B        1.6023   10.1468   -2.6352 C.3       1 RES1    0.0000
     48 H5B        1.1017    9.3406   -2.8988 H         1 RES1    0.0000
     49 H6B        0.9556   10.8850   -2.5609 H         1 RES1    0.0000
     50 C8B        2.3433    9.9278   -1.3196 C.3       1 RES1    0.0000
     51 H7B        3.0514    9.2197   -1.4494 H         1 RES1    0.0000
     52 H8B        1.6921    9.6083   -0.7025 H         1 RES1    0.0000
     53 C9B        3.0036   11.1982   -0.7674 C.3       1 RES1    0.0000
     54 H9B        3.6815   10.9622   -0.0889 H         1 RES1    0.0000
     55 H10B       3.5671   11.6211   -1.4672 H         1 RES1    0.0000
     56 C10B       2.0075   12.2208   -0.2321 C.3       1 RES1    0.0000
     57 H11B       1.3015   12.4267   -0.9426 H         1 RES1    0.0000
     58 H12B       1.5352   11.7550    0.5157 H         1 RES1    0.0000
@<TRIPOS>BOND
     1    1    5 2
     2    2    5 2
     3    3    6 2
     4    4    6 2
     5    5   10 1
     6    6   13 1
     7    7    8 1
     8    9    7 1
     9   10    9 ar
    10   11   10 ar
    11   12   11 1
    12   13   11 ar
    13   14   13 ar
    14   15   14 1
    15   16    9 ar
    16   17   16 1
    17   18    7 1
    18   19   18 1
    19   20   18 1
    20   21   18 1
    21   22   21 1
    22   23   21 1
    23   24   21 1
    24   25   24 1
    25   26   24 1
    26   27   24 1
    27   28   27 1
    28   29   27 1
    29   30   34 2
    30   31   34 2
    31   32   35 2
    32   33   35 2
    33   34   39 1
    34   35   42 1
    35   36   37 1
    36   38   36 1
    37   39   38 ar
    38   40   39 ar
    39   41   40 1
    40   42   40 ar
    41   43   42 ar
    42   44   43 1
    43   45   38 ar
    44   46   45 1
    45   47   36 1
    46   48   47 1
    47   49   47 1
    48   50   47 1
    49   51   50 1
    50   52   50 1
    51   53   50 1
    52   54   53 1
    53   55   53 1
    54   56   27 1
    55   57   56 1
    56   58   56 1
    57   14   16 ar
    58   43   45 ar
    59   53   56 1
@<TRIPOS>SUBSTRUCTURE
     1 RES1 1

@<TRIPOS>CRYSIN
   4.6740   25.7389    8.9254  90.0000  94.9490  90.0000  14 1

