# MOL2 file generated by ConQuest
# Please check atom types

@<TRIPOS>MOLECULE
QOWFUF
    25    24     1
SMALL
NO_CHARGES
****
Generated from CSD

@<TRIPOS>ATOM
      1 O1         6.7079   -1.4543    4.9792 O.3       1 RES1    0.0000
      2 O2         4.9445    1.7888    8.4907 O.2       1 RES1    0.0000
      3 N1         6.6745   -0.0034    4.9637 N.3       1 RES1    0.0000
      4 O3         6.4623    1.6974    1.0426 O.2       1 RES1    0.0000
      5 C1         4.9867    0.5601    8.3072 C.2       1 RES1    0.0000
      6 N2         6.3434   -0.3924    0.2209 N.am      1 RES1    0.0000
      7 C2         5.6473    0.3841    5.9398 C.3       1 RES1    0.0000
      8 H1         4.8022   -0.0180    5.6860 H         1 RES1    0.0000
      9 H2         5.5360    1.3478    5.9159 H         1 RES1    0.0000
     10 C3         5.9925   -0.0408    7.3598 C.3       1 RES1    0.0000
     11 H3         5.9736   -1.0079    7.4287 H         1 RES1    0.0000
     12 H4         6.8844    0.2640    7.5878 H         1 RES1    0.0000
     13 C4         6.1909    0.3739    3.6271 C.3       1 RES1    0.0000
     14 H5         6.1052    1.3390    3.5844 H         1 RES1    0.0000
     15 H6         5.3092   -0.0063    3.4941 H         1 RES1    0.0000
     16 C5         6.6190    0.4765    1.1845 C.2       1 RES1    0.0000
     17 N3         4.1299   -0.2771    8.8887 N.am      1 RES1    0.0000
     18 C6         7.1041   -0.0909    2.4990 C.3       1 RES1    0.0000
     19 H7         8.0110    0.2066    2.6689 H         1 RES1    0.0000
     20 H8         7.1055   -1.0600    2.4562 H         1 RES1    0.0000
     21 H9         6.1776   -0.0924   -0.6017 H         1 RES1    0.0000
     22 H10        4.1555   -1.1329    8.7331 H         1 RES1    0.0000
     23 H11        6.5468   -1.2350    0.3546 H         1 RES1    0.0000
     24 H12        3.5003    0.0778    9.5003 H         1 RES1    0.0000
     25 H13        7.4699   -1.6483    5.2412 H         1 RES1    0.0000
@<TRIPOS>BOND
     1    1    3 1
     2    2    5 2
     3    3    7 1
     4    4   16 2
     5    5   10 1
     6    6   16 1
     7    7    8 1
     8    9    7 1
     9   10    7 1
    10   11   10 1
    11   12   10 1
    12   13    3 1
    13   14   13 1
    14   15   13 1
    15   16   18 1
    16   17    5 1
    17   18   13 1
    18   19   18 1
    19   20   18 1
    20   21    6 1
    21   22   17 1
    22   23    6 1
    23   24   17 1
    24   25    1 1
@<TRIPOS>SUBSTRUCTURE
     1 RES1 1

