# MOL2 file generated by ConQuest
# Please check atom types

@<TRIPOS>MOLECULE
QOYGUH
    33    34     1
SMALL
NO_CHARGES
****
Generated from CSD

@<TRIPOS>ATOM
      1 O1         1.7961    8.8389   12.7989 O.3       1 RES1    0.0000
      2 H1         2.0515    8.5373   12.0563 H         1 RES1    0.0000
      3 O2         3.5477    5.0022    8.0192 O.2       1 RES1    0.0000
      4 O3         4.5564    5.7078    6.2344 O.2       1 RES1    0.0000
      5 N1         2.6139    6.6848    9.7499 N.pl3     1 RES1    0.0000
      6 H2         2.6648    5.8318    9.5380 H         1 RES1    0.0000
      7 N2         2.2156    7.0436   11.0094 N.2       1 RES1    0.0000
      8 N3         3.9113    5.9319    7.2669 N.pl3     1 RES1    0.0000
      9 C1         2.9329    7.6272    8.8153 C.ar      1 RES1    0.0000
     10 C2         3.5731    7.2928    7.5977 C.ar      1 RES1    0.0000
     11 C3         3.9452    8.2774    6.6761 C.ar      1 RES1    0.0000
     12 H3         4.4057    8.0317    5.8812 H         1 RES1    0.0000
     13 C4         3.6495    9.5949    6.9115 C.ar      1 RES1    0.0000
     14 H4         3.9056   10.2642    6.2872 H         1 RES1    0.0000
     15 C5         2.9662    9.9380    8.0830 C.ar      1 RES1    0.0000
     16 H5         2.7306   10.8460    8.2352 H         1 RES1    0.0000
     17 C6         2.6287    8.9880    9.0168 C.ar      1 RES1    0.0000
     18 H6         2.1831    9.2532    9.8120 H         1 RES1    0.0000
     19 C7         1.9065    6.0876   11.8274 C.2       1 RES1    0.0000
     20 C8         1.5047    6.4627   13.1982 C.ar      1 RES1    0.0000
     21 C9         1.4544    7.8086   13.6115 C.ar      1 RES1    0.0000
     22 C10        1.0484    8.1405   14.9018 C.ar      1 RES1    0.0000
     23 H7         1.0187    9.0512   15.1701 H         1 RES1    0.0000
     24 C11        0.6890    7.1506   15.7941 C.ar      1 RES1    0.0000
     25 H8         0.3961    7.3850   16.6671 H         1 RES1    0.0000
     26 C12        0.7527    5.8233   15.4254 C.ar      1 RES1    0.0000
     27 H9         0.5242    5.1427   16.0494 H         1 RES1    0.0000
     28 C13        1.1502    5.4872   14.1468 C.ar      1 RES1    0.0000
     29 H10        1.1856    4.5708   13.8997 H         1 RES1    0.0000
     30 C14        1.9447    4.6428   11.4107 C.3       1 RES1    0.0000
     31 H11        1.4785    4.5369   10.5543 H         1 RES1    0.0000
     32 H12        1.5047    4.0949   12.0937 H         1 RES1    0.0000
     33 H13        2.8770    4.3562   11.3115 H         1 RES1    0.0000
@<TRIPOS>BOND
     1    1    2 1
     2    3    8 2
     3    4    8 2
     4    5    6 1
     5    7    5 1
     6    8   10 1
     7    9    5 1
     8   10    9 ar
     9   11   10 ar
    10   12   11 1
    11   13   11 ar
    12   14   13 1
    13   15   13 ar
    14   16   15 1
    15   17    9 ar
    16   18   17 1
    17   19    7 2
    18   20   19 1
    19   21    1 1
    20   22   21 ar
    21   23   22 1
    22   24   22 ar
    23   25   24 1
    24   26   24 ar
    25   27   26 1
    26   28   20 ar
    27   29   28 1
    28   30   19 1
    29   31   30 1
    30   32   30 1
    31   33   30 1
    32   15   17 ar
    33   20   21 ar
    34   26   28 ar
@<TRIPOS>SUBSTRUCTURE
     1 RES1 1

@<TRIPOS>CRYSIN
   7.0741   14.1205   24.9098  90.0000  90.0000  90.0000  61 1

