# MOL2 file generated by ConQuest
# Please check atom types

@<TRIPOS>MOLECULE
QOYJOD01
    11    11     1
SMALL
NO_CHARGES
****
Generated from CSD

@<TRIPOS>ATOM
      1 N1         5.6667    4.0016    2.0859 N.am      1 RES1    0.0000
      2 H1         5.0767    3.4652    1.7577 H         1 RES1    0.0000
      3 O1         7.7526    3.2119    1.4145 O.2       1 RES1    0.0000
      4 N2         5.1601    5.0450    2.8157 N.2       1 RES1    0.0000
      5 N3         7.3884    5.1528    2.7069 N.am      1 RES1    0.0000
      6 H2         8.2417    5.4333    2.8113 H         1 RES1    0.0000
      7 C1         7.0303    4.0304    1.9930 C.2       1 RES1    0.0000
      8 O2         7.2455    7.4237    4.2151 O.2       1 RES1    0.0000
      9 O3         5.0764    7.2146    4.4044 O.2       1 RES1    0.0000
     10 N4         6.1819    6.8661    3.9904 N.pl3     1 RES1    0.0000
     11 C2         6.2319    5.6854    3.1607 C.2       1 RES1    0.0000
@<TRIPOS>BOND
     1    1    2 1
     2    3    7 2
     3    4    1 1
     4    5    6 1
     5    7    1 1
     6    8   10 2
     7    9   10 2
     8   10   11 1
     9   11    4 2
    10    5    7 1
    11    5   11 1
@<TRIPOS>SUBSTRUCTURE
     1 RES1 1

@<TRIPOS>CRYSIN
   9.3129    5.4458    9.0261  90.0000 101.4640  90.0000  14 1

