# MOL2 file generated by ConQuest
# Please check atom types

@<TRIPOS>MOLECULE
QOYJOD
    11    11     1
SMALL
NO_CHARGES
****
Generated from CSD

@<TRIPOS>ATOM
      1 N1         5.6700    4.0046    2.0866 N.am      1 RES1    0.0000
      2 H1         5.0444    3.3295    1.6733 H         1 RES1    0.0000
      3 O1         7.7598    3.2148    1.4171 O.2       1 RES1    0.0000
      4 N2         5.1694    5.0439    2.8179 N.2       1 RES1    0.0000
      5 N3         7.3976    5.1577    2.7118 N.am      1 RES1    0.0000
      6 H2         8.3278    5.5201    2.8583 H         1 RES1    0.0000
      7 C1         7.0405    4.0338    1.9962 C.2       1 RES1    0.0000
      8 O2         7.2529    7.4296    4.2229 O.2       1 RES1    0.0000
      9 O3         5.0838    7.2227    4.4119 O.2       1 RES1    0.0000
     10 N4         6.1855    6.8715    3.9987 N.pl3     1 RES1    0.0000
     11 C2         6.2385    5.6927    3.1681 C.2       1 RES1    0.0000
@<TRIPOS>BOND
     1    1    2 1
     2    3    7 2
     3    4    1 1
     4    5    6 1
     5    7    1 1
     6    8   10 2
     7    9   10 2
     8   10   11 1
     9   11    4 2
    10    5    7 1
    11    5   11 1
@<TRIPOS>SUBSTRUCTURE
     1 RES1 1

@<TRIPOS>CRYSIN
   9.3255    5.4503    9.0400  90.0000 101.4740  90.0000  14 1

