# MOL2 file generated by ConQuest
# Please check atom types

@<TRIPOS>MOLECULE
QOYJOD03
    11    11     1
SMALL
NO_CHARGES
****
Generated from CSD

@<TRIPOS>ATOM
      1 N1         5.6823    4.0430    2.0960 N.am      1 RES1    0.0000
      2 H1         5.0754    3.5329    1.7704 H         1 RES1    0.0000
      3 O1         7.7617    3.2409    1.4279 O.2       1 RES1    0.0000
      4 N2         5.1805    5.0852    2.8281 N.2       1 RES1    0.0000
      5 N3         7.4062    5.1794    2.7214 N.am      1 RES1    0.0000
      6 H2         8.2479    5.4583    2.8397 H         1 RES1    0.0000
      7 C1         7.0478    4.0638    2.0026 C.2       1 RES1    0.0000
      8 O2         7.2733    7.4472    4.2382 O.2       1 RES1    0.0000
      9 O3         5.1075    7.2527    4.4188 O.2       1 RES1    0.0000
     10 N4         6.2089    6.8982    4.0060 N.pl3     1 RES1    0.0000
     11 C2         6.2513    5.7147    3.1787 C.2       1 RES1    0.0000
@<TRIPOS>BOND
     1    1    2 1
     2    3    7 2
     3    4    1 1
     4    5    6 1
     5    7    1 1
     6    8   10 2
     7    9   10 2
     8   10   11 1
     9   11    4 2
    10    5    7 1
    11    5   11 1
@<TRIPOS>SUBSTRUCTURE
     1 RES1 1

@<TRIPOS>CRYSIN
   9.3220    5.4791    9.0685  90.0000 101.1820  90.0000  14 1

