# MOL2 file generated by ConQuest
# Please check atom types

@<TRIPOS>MOLECULE
QOZYUB
    54    57     1
SMALL
NO_CHARGES
****
Generated from CSD

@<TRIPOS>ATOM
      1 O1         4.3860    3.7750    7.1437 O.2       1 RES1    0.0000
      2 O2         2.4304    2.1234    3.4741 O.3       1 RES1    0.0000
      3 N1         2.7698    5.1785    7.9502 N.am      1 RES1    0.0000
      4 N2         1.7479    1.0759    2.8177 N.2       1 RES1    0.0000
      5 N3        -3.7278   -3.1331   -0.1863 N.1       1 RES1    0.0000
      6 C1         2.1104    6.3281    7.5044 C.ar      1 RES1    0.0000
      7 C2         1.2007    7.0993    8.1763 C.ar      1 RES1    0.0000
      8 H1         0.9344    6.8902    9.0429 H         1 RES1    0.0000
      9 C3         0.6875    8.2162    7.5032 C.ar      1 RES1    0.0000
     10 H2         0.0804    8.7692    7.9410 H         1 RES1    0.0000
     11 C4         1.0555    8.5135    6.2236 C.ar      1 RES1    0.0000
     12 H3         0.6855    9.2445    5.7858 H         1 RES1    0.0000
     13 C5         1.9848    7.7134    5.5883 C.ar      1 RES1    0.0000
     14 H4         2.2431    7.9130    4.7180 H         1 RES1    0.0000
     15 C6         2.5296    6.6332    6.2220 C.ar      1 RES1    0.0000
     16 C7         3.5843    5.6629    5.8071 C.3       1 RES1    0.0000
     17 C8         3.6543    4.7498    7.0213 C.2       1 RES1    0.0000
     18 C9         4.9451    6.3299    5.5761 C.3       1 RES1    0.0000
     19 H5         4.9068    6.8675    4.7808 H         1 RES1    0.0000
     20 H6         5.6190    5.6552    5.4735 H         1 RES1    0.0000
     21 H7         5.1602    6.8867    6.3277 H         1 RES1    0.0000
     22 C10        3.2198    4.8202    4.5776 C.3       1 RES1    0.0000
     23 H8         3.2269    5.3927    3.7938 H         1 RES1    0.0000
     24 H9         3.9015    4.1411    4.4524 H         1 RES1    0.0000
     25 C11        2.5221    4.5187    9.2152 C.3       1 RES1    0.0000
     26 H10        2.5940    5.1578    9.9277 H         1 RES1    0.0000
     27 H11        3.1682    3.8206    9.3444 H         1 RES1    0.0000
     28 H12        1.6391    4.1415    9.2116 H         1 RES1    0.0000
     29 C12        1.8643    4.1397    4.6736 C.3       1 RES1    0.0000
     30 H13        1.8398    3.6045    5.4825 H         1 RES1    0.0000
     31 H14        1.1784    4.8204    4.7503 H         1 RES1    0.0000
     32 C13        1.5412    3.2582    3.4996 C.3       1 RES1    0.0000
     33 H15        1.6978    3.7785    2.6847 H         1 RES1    0.0000
     34 C14        0.1458    2.6631    3.4085 C.3       1 RES1    0.0000
     35 C15        0.5069    1.3558    2.7315 C.2       1 RES1    0.0000
     36 C16       -0.7433    3.6136    2.6043 C.3       1 RES1    0.0000
     37 H16       -0.4376    3.6437    1.6941 H         1 RES1    0.0000
     38 H17       -0.6987    4.4930    2.9862 H         1 RES1    0.0000
     39 H18       -1.6499    3.2999    2.6273 H         1 RES1    0.0000
     40 C17       -0.4833    2.3406    4.7659 C.3       1 RES1    0.0000
     41 H19       -1.3331    1.9144    4.6318 H         1 RES1    0.0000
     42 H20       -0.6070    3.1535    5.2617 H         1 RES1    0.0000
     43 H21        0.0962    1.7519    5.2546 H         1 RES1    0.0000
     44 C18       -0.3911    0.3632    2.1239 C.ar      1 RES1    0.0000
     45 C19       -1.7613    0.5544    2.0753 C.ar      1 RES1    0.0000
     46 H22       -2.1250    1.3257    2.4478 H         1 RES1    0.0000
     47 C20       -2.5936   -0.3597    1.4936 C.ar      1 RES1    0.0000
     48 H23       -3.5108   -0.2071    1.4734 H         1 RES1    0.0000
     49 C21       -2.0786   -1.5006    0.9416 C.ar      1 RES1    0.0000
     50 C22       -0.7160   -1.7381    0.9955 C.ar      1 RES1    0.0000
     51 H24       -0.3614   -2.5206    0.6389 H         1 RES1    0.0000
     52 C23        0.1062   -0.8118    1.5785 C.ar      1 RES1    0.0000
     53 H25        1.0215   -0.9741    1.6097 H         1 RES1    0.0000
     54 C24       -2.9806   -2.4265    0.3119 C.1       1 RES1    0.0000
@<TRIPOS>BOND
     1    1   17 2
     2    2    4 1
     3    3    6 1
     4    4   35 2
     5    5   54 3
     6    6    7 ar
     7    7    8 1
     8    9    7 ar
     9   10    9 1
    10   11    9 ar
    11   12   11 1
    12   13   11 ar
    13   14   13 1
    14   15    6 ar
    15   16   15 1
    16   17    3 1
    17   18   16 1
    18   19   18 1
    19   20   18 1
    20   21   18 1
    21   22   16 1
    22   23   22 1
    23   24   22 1
    24   25    3 1
    25   26   25 1
    26   27   25 1
    27   28   25 1
    28   29   22 1
    29   30   29 1
    30   31   29 1
    31   32    2 1
    32   33   32 1
    33   34   32 1
    34   35   34 1
    35   36   34 1
    36   37   36 1
    37   38   36 1
    38   39   36 1
    39   40   34 1
    40   41   40 1
    41   42   40 1
    42   43   40 1
    43   44   35 1
    44   45   44 ar
    45   46   45 1
    46   47   45 ar
    47   48   47 1
    48   49   47 ar
    49   50   49 ar
    50   51   50 1
    51   52   44 ar
    52   53   52 1
    53   54   49 1
    54   13   15 ar
    55   16   17 1
    56   29   32 1
    57   50   52 ar
@<TRIPOS>SUBSTRUCTURE
     1 RES1 1

@<TRIPOS>CRYSIN
   7.1121    8.5933   18.4260  94.3390 100.7190 105.4180   2 1

