# MOL2 file generated by ConQuest
# Please check atom types

@<TRIPOS>MOLECULE
QQQAZG31
    41    42     1
SMALL
NO_CHARGES
****
Generated from CSD

@<TRIPOS>ATOM
      1 C1        -1.1895    9.5341    7.5263 C.ar      1 RES1    0.0000
      2 N1        -1.3987   10.9757    7.3895 N.pl3     1 RES1    0.0000
      3 O1        -0.9843   11.7252    8.2563 O.2       1 RES1    0.0000
      4 O2        -2.0238   11.3801    6.4278 O.2       1 RES1    0.0000
      5 C2        -1.6313    8.7296    6.4799 C.ar      1 RES1    0.0000
      6 H1        -2.0805    9.1645    5.6366 H         1 RES1    0.0000
      7 C3        -1.4816    7.3798    6.5503 C.ar      1 RES1    0.0000
      8 C4        -1.8154    6.4772    5.4916 C.3       1 RES1    0.0000
      9 H2        -2.2666    7.0102    4.7065 H         1 RES1    0.0000
     10 H3        -2.4823    5.7482    5.8489 H         1 RES1    0.0000
     11 H4        -0.9432    6.0096    5.1414 H         1 RES1    0.0000
     12 C5        -0.8774    6.8203    7.6580 C.ar      1 RES1    0.0000
     13 H5        -0.7516    5.7789    7.7080 H         1 RES1    0.0000
     14 C6        -0.4380    7.6065    8.6963 C.ar      1 RES1    0.0000
     15 H6        -0.0077    7.1531    9.5396 H         1 RES1    0.0000
     16 C7        -0.5519    8.9930    8.6524 C.ar      1 RES1    0.0000
     17 N2        -0.0609    9.7669    9.6937 N.pl3     1 RES1    0.0000
     18 H7        -0.4646   10.8083    9.7050 H         1 RES1    0.0000
     19 N3         0.5824    9.1522   10.6687 N.2       1 RES1    0.0000
     20 C8         1.1110    9.8200   11.6703 C.2       1 RES1    0.0000
     21 C9         1.7909    8.9358   12.6534 C.2       1 RES1    0.0000
     22 C10        1.8391    7.4656   12.3676 C.3       1 RES1    0.0000
     23 H8         0.9641    7.0755   12.1379 H         1 RES1    0.0000
     24 H9         2.3825    7.0041   13.1077 H         1 RES1    0.0000
     25 H10        2.1705    7.3165   11.5120 H         1 RES1    0.0000
     26 O3         2.3032    9.3748   13.6662 O.2       1 RES1    0.0000
     27 C11        1.0470   11.2963   11.7979 C.2       1 RES1    0.0000
     28 O4         0.5229   11.9804   10.9035 O.2       1 RES1    0.0000
     29 N4         1.5727   11.8232   12.9229 N.am      1 RES1    0.0000
     30 H11        1.9788   11.1289   13.5957 H         1 RES1    0.0000
     31 C12        1.6553   13.1505   13.3201 C.ar      1 RES1    0.0000
     32 C13        2.0112   13.3914   14.6463 C.ar      1 RES1    0.0000
     33 H12        2.1686   12.5767   15.2895 H         1 RES1    0.0000
     34 C14        2.1610   14.6656   15.1322 C.ar      1 RES1    0.0000
     35 H13        2.4320   14.8127   16.1358 H         1 RES1    0.0000
     36 C15        1.9580   15.7479   14.3104 C.ar      1 RES1    0.0000
     37 H14        2.0763   16.7260   14.6738 H         1 RES1    0.0000
     38 C16        1.5952   15.5233   12.9985 C.ar      1 RES1    0.0000
     39 H15        1.4313   16.3462   12.3676 H         1 RES1    0.0000
     40 C17        1.4402   14.2470   12.4891 C.ar      1 RES1    0.0000
     41 H16        1.1632   14.1061   11.4855 H         1 RES1    0.0000
@<TRIPOS>BOND
     1    1    2 1
     2    2    3 2
     3    4    2 2
     4    5    1 ar
     5    6    5 1
     6    7    5 ar
     7    8    7 1
     8    9    8 1
     9   10    8 1
    10   11    8 1
    11   12    7 ar
    12   13   12 1
    13   14   12 ar
    14   15   14 1
    15   16    1 ar
    16   17   16 1
    17   18   17 1
    18   19   17 1
    19   20   19 2
    20   21   20 1
    21   22   21 1
    22   23   22 1
    23   24   22 1
    24   25   22 1
    25   26   21 2
    26   27   20 1
    27   28   27 2
    28   29   27 1
    29   30   29 1
    30   31   29 1
    31   32   31 ar
    32   33   32 1
    33   34   32 ar
    34   35   34 1
    35   36   34 ar
    36   37   36 1
    37   38   36 ar
    38   39   38 1
    39   40   31 ar
    40   41   40 1
    41   14   16 ar
    42   38   40 ar
@<TRIPOS>SUBSTRUCTURE
     1 RES1 1

@<TRIPOS>CRYSIN
   7.5670   20.4200   10.3450  90.0000  99.2900  90.0000 231 1

