# MOL2 file generated by ConQuest
# Please check atom types

@<TRIPOS>MOLECULE
QQQAZG03
    41    42     1
SMALL
NO_CHARGES
****
Generated from CSD

@<TRIPOS>ATOM
      1 O1         4.0402   11.0922    3.5021 O.2       1 RES1    0.0000
      2 O2         2.3056    8.3945    0.7957 O.2       1 RES1    0.0000
      3 O3         0.7447    8.5983   -1.8611 O.2       1 RES1    0.0000
      4 O4        -0.2736    8.9181   -3.7098 O.2       1 RES1    0.0000
      5 N1         1.6261   10.5828   -0.4237 N.3       1 RES1    0.0000
      6 N2         2.2651   11.2307    0.5436 N.2       1 RES1    0.0000
      7 N3         3.3636    8.6207    2.8015 N.am      1 RES1    0.0000
      8 N4         0.3157    9.3481   -2.7302 N.pl3     1 RES1    0.0000
      9 C1         1.0903   11.3529   -1.4643 C.ar      1 RES1    0.0000
     10 C2         1.1592   12.7446   -1.4199 C.ar      1 RES1    0.0000
     11 C3         0.6924   13.5066   -2.4594 C.ar      1 RES1    0.0000
     12 C4         0.1325   12.9422   -3.5962 C.ar      1 RES1    0.0000
     13 C5         0.0216   11.5832   -3.6385 C.ar      1 RES1    0.0000
     14 C6         0.4886   10.7845   -2.5907 C.ar      1 RES1    0.0000
     15 C7         2.8229   10.5869    1.5418 C.2       1 RES1    0.0000
     16 C8         3.4950   11.5098    2.4956 C.2       1 RES1    0.0000
     17 C9         3.5009   12.9728    2.1846 C.3       1 RES1    0.0000
     18 C10        2.8095    9.1036    1.6720 C.2       1 RES1    0.0000
     19 C11        3.5000    7.2820    3.2272 C.ar      1 RES1    0.0000
     20 C12        3.9693    7.1109    4.5293 C.ar      1 RES1    0.0000
     21 C13        4.1618    5.8456    5.0295 C.ar      1 RES1    0.0000
     22 C14        3.8982    4.7311    4.2679 C.ar      1 RES1    0.0000
     23 C15        3.4370    4.9083    2.9679 C.ar      1 RES1    0.0000
     24 C16        3.2348    6.1716    2.4501 C.ar      1 RES1    0.0000
     25 C17       -0.3108   13.8224   -4.7463 C.3       1 RES1    0.0000
     26 H1         1.5518   13.1215   -0.6469 H         1 RES1    0.0000
     27 H2         0.7408   14.4907   -2.3520 H         1 RES1    0.0000
     28 H3        -0.4118   11.1349   -4.3237 H         1 RES1    0.0000
     29 H4         3.8535   13.1459    1.4447 H         1 RES1    0.0000
     30 H5         3.8679   13.4781    2.9245 H         1 RES1    0.0000
     31 H6         2.5270   13.3151    2.1308 H         1 RES1    0.0000
     32 H7         1.5787    9.6231   -0.3844 H         1 RES1    0.0000
     33 H8         4.2014    7.8933    5.0501 H         1 RES1    0.0000
     34 H9         4.4866    5.7804    5.9574 H         1 RES1    0.0000
     35 H10        4.0230    3.8387    4.5996 H         1 RES1    0.0000
     36 H11        3.2732    4.0954    2.4160 H         1 RES1    0.0000
     37 H12        2.8784    6.2775    1.5997 H         1 RES1    0.0000
     38 H13       -1.0943   14.2870   -4.5603 H         1 RES1    0.0000
     39 H14        0.4108   14.2808   -5.0884 H         1 RES1    0.0000
     40 H15       -0.7670   13.3191   -5.3622 H         1 RES1    0.0000
     41 H16        3.6547    9.2584    3.2872 H         1 RES1    0.0000
@<TRIPOS>BOND
     1    1   16 2
     2    2   18 2
     3    3    8 2
     4    4    8 2
     5    5    6 1
     6    6   15 2
     7    7   18 1
     8    8   14 1
     9    9    5 1
    10   10    9 ar
    11   11   10 ar
    12   12   11 ar
    13   13   12 ar
    14   14    9 ar
    15   15   16 1
    16   16   17 1
    17   17   29 1
    18   18   15 1
    19   19    7 1
    20   20   19 ar
    21   21   20 ar
    22   22   21 ar
    23   23   22 ar
    24   24   19 ar
    25   25   12 1
    26   26   10 1
    27   27   11 1
    28   28   13 1
    29   30   17 1
    30   31   17 1
    31   32    5 1
    32   33   20 1
    33   34   21 1
    34   35   22 1
    35   36   23 1
    36   37   24 1
    37   38   25 1
    38   39   25 1
    39   40   25 1
    40   41    7 1
    41   13   14 ar
    42   23   24 ar
@<TRIPOS>SUBSTRUCTURE
     1 RES1 1

@<TRIPOS>CRYSIN
   7.5980   20.3750   10.4400  90.0000  98.1800  90.0000 231 1

