# MOL2 file generated by ConQuest
# Please check atom types

@<TRIPOS>MOLECULE
QQQCOY10
    36    37     1
SMALL
NO_CHARGES
****
Generated from CSD

@<TRIPOS>ATOM
      1 C1        -0.3946   -1.4278    5.8659 C.3       1 RES1    0.0000
      2 C2         0.7961   -0.7564    6.5243 C.ar      1 RES1    0.0000
      3 C3         1.4139   -1.3416    7.6027 C.ar      1 RES1    0.0000
      4 C4         2.5294   -0.7381    8.2039 C.ar      1 RES1    0.0000
      5 C5         3.0550    0.4594    7.7267 C.ar      1 RES1    0.0000
      6 C6         2.3795    1.0712    6.6316 C.ar      1 RES1    0.0000
      7 C7         1.2968    0.4494    6.0576 C.ar      1 RES1    0.0000
      8 C8         5.7229    2.6549    8.3122 C.2       1 RES1    0.0000
      9 C9         6.3471    3.8831    7.8652 C.2       1 RES1    0.0000
     10 C10        8.3464    5.2614    8.4716 C.ar      1 RES1    0.0000
     11 C11        9.3669    5.3434    9.4281 C.ar      1 RES1    0.0000
     12 C12       10.3069    6.3632    9.3635 C.ar      1 RES1    0.0000
     13 C13       10.2346    7.3216    8.3831 C.ar      1 RES1    0.0000
     14 C14        9.2234    7.2324    7.4151 C.ar      1 RES1    0.0000
     15 C15        8.2912    6.2050    7.4631 C.ar      1 RES1    0.0000
     16 N1         3.1089   -1.4231    9.3458 N.pl3     1 RES1    0.0000
     17 N2         4.1664    1.0865    8.2726 N.pl3     1 RES1    0.0000
     18 N3         4.6430    2.2256    7.7683 N.2       1 RES1    0.0000
     19 N4         7.4705    4.1890    8.6081 N.am      1 RES1    0.0000
     20 O1         2.5790   -2.4523    9.7448 O.2       1 RES1    0.0000
     21 O2         4.1165   -0.9336    9.8896 O.2       1 RES1    0.0000
     22 O3         5.9382    4.5823    6.9515 O.2       1 RES1    0.0000
     23 H1        -0.1120   -2.4151    5.5324 H         1 RES1    0.0000
     24 H2        -0.7159   -0.8397    5.0198 H         1 RES1    0.0000
     25 H3        -1.2021   -1.5058    6.5785 H         1 RES1    0.0000
     26 H4         1.0397   -2.2764    7.9913 H         1 RES1    0.0000
     27 H5         2.7171    2.0242    6.2534 H         1 RES1    0.0000
     28 H6         0.8167    0.9176    5.2115 H         1 RES1    0.0000
     29 H7         6.1733    2.0910    9.1145 H         1 RES1    0.0000
     30 H8         9.4220    4.6100   10.2199 H         1 RES1    0.0000
     31 H9        11.1059    6.4022   10.0907 H         1 RES1    0.0000
     32 H10       10.9454    8.1335    8.3581 H         1 RES1    0.0000
     33 H11        9.1705    7.9688    6.6275 H         1 RES1    0.0000
     34 H12        7.5195    6.1424    6.7098 H         1 RES1    0.0000
     35 H13        4.6560    0.6413    9.1259 H         1 RES1    0.0000
     36 H14        7.7010    3.4993    9.4072 H         1 RES1    0.0000
@<TRIPOS>BOND
     1    1    2 1
     2    2    3 ar
     3    3    4 ar
     4    4    5 ar
     5    5    6 ar
     6    6    7 ar
     7    7    2 ar
     8    8    9 1
     9    9   19 1
    10   10   11 ar
    11   11   12 ar
    12   12   13 ar
    13   13   14 ar
    14   14   15 ar
    15   15   10 ar
    16   16    4 1
    17   17    5 1
    18   18    8 2
    19   19   10 1
    20   20   16 2
    21   21   16 2
    22   22    9 2
    23   23    1 1
    24   24    1 1
    25   25    1 1
    26   26    3 1
    27   27    6 1
    28   28    7 1
    29   29    8 1
    30   30   11 1
    31   31   12 1
    32   32   13 1
    33   33   14 1
    34   34   15 1
    35   35   17 1
    36   36   19 1
    37   17   18 1
@<TRIPOS>SUBSTRUCTURE
     1 RES1 1

@<TRIPOS>CRYSIN
  23.3440    5.9050   12.1640  90.0000 121.0700  90.0000  14 2

