# MOL2 file generated by ConQuest
# Please check atom types

@<TRIPOS>MOLECULE
QQQELA03
    38    39     1
SMALL
NO_CHARGES
****
Generated from CSD

@<TRIPOS>ATOM
      1 C1         4.4224   -2.1162   11.8344 C.ar      1 RES1    0.0000
      2 H1         4.0135   -2.1633   10.8678 H         1 RES1    0.0000
      3 C2         4.8377   -3.2717   12.4656 C.ar      1 RES1    0.0000
      4 H2         4.7188   -4.2051   12.0011 H         1 RES1    0.0000
      5 C3         5.4050   -3.1812   13.7114 C.ar      1 RES1    0.0000
      6 N1         5.8644   -4.3916   14.3832 N.pl3     1 RES1    0.0000
      7 O1         5.6348   -5.4703   13.8634 O.2       1 RES1    0.0000
      8 O2         6.4528   -4.2888   15.4435 O.2       1 RES1    0.0000
      9 C4         5.5881   -1.9647   14.3561 C.ar      1 RES1    0.0000
     10 H3         6.0551   -1.9239   15.2956 H         1 RES1    0.0000
     11 C5         5.1458   -0.8099   13.7426 C.ar      1 RES1    0.0000
     12 H4         5.2573    0.1181   14.2207 H         1 RES1    0.0000
     13 C6         4.5513   -0.8855   12.4792 C.ar      1 RES1    0.0000
     14 N2         4.0773    0.2446   11.8251 N.pl3     1 RES1    0.0000
     15 H5         3.4903    0.1489   10.9595 H         1 RES1    0.0000
     16 N3         4.3733    1.4364   12.2990 N.2       1 RES1    0.0000
     17 C7         3.9452    2.5219   11.7115 C.3       1 RES1    0.0000
     18 C8         4.4699    3.7605   12.3479 C.2       1 RES1    0.0000
     19 O3         4.2211    4.8680   11.8896 O.2       1 RES1    0.0000
     20 C9         5.3387    3.6451   13.5530 C.3       1 RES1    0.0000
     21 H6         5.4779    4.5960   13.8749 H         1 RES1    0.0000
     22 H7         6.3110    3.2328   13.3104 H         1 RES1    0.0000
     23 H8         4.8260    3.1620   14.1072 H         1 RES1    0.0000
     24 C10        3.0834    2.5056   10.4835 C.2       1 RES1    0.0000
     25 O4         2.7627    1.4323    9.9690 O.2       1 RES1    0.0000
     26 N4         2.7323    3.7148   10.0096 N.am      1 RES1    0.0000
     27 H9         3.0248    4.5343   10.5970 H         1 RES1    0.0000
     28 C11        2.0284    4.0297    8.8368 C.ar      1 RES1    0.0000
     29 C12        1.7832    5.3870    8.6076 C.ar      1 RES1    0.0000
     30 H10        2.0874    6.0991    9.3180 H         1 RES1    0.0000
     31 C13        1.1474    5.7964    7.4619 C.ar      1 RES1    0.0000
     32 H11        0.9794    6.8204    7.2973 H         1 RES1    0.0000
     33 C14        0.7229    4.8654    6.5130 C.ar      1 RES1    0.0000
     34 H12        0.2426    5.1750    5.6318 H         1 RES1    0.0000
     35 C15        0.9517    3.5195    6.7609 C.ar      1 RES1    0.0000
     36 H13        0.6272    2.8087    6.0599 H         1 RES1    0.0000
     37 C16        1.5935    3.0874    7.9098 C.ar      1 RES1    0.0000
     38 H14        1.7524    2.0627    8.0775 H         1 RES1    0.0000
@<TRIPOS>BOND
     1    1    2 1
     2    3    1 ar
     3    4    3 1
     4    5    3 ar
     5    6    5 1
     6    7    6 2
     7    8    6 2
     8    9    5 ar
     9   10    9 1
    10   11    9 ar
    11   12   11 1
    12   13    1 ar
    13   14   13 1
    14   15   14 1
    15   16   14 2
    16   17   16 1
    17   18   17 1
    18   19   18 2
    19   20   18 1
    20   21   20 1
    21   22   20 1
    22   23   20 1
    23   24   17 1
    24   25   24 2
    25   26   24 1
    26   27   26 1
    27   28   26 1
    28   29   28 ar
    29   30   29 1
    30   31   29 ar
    31   32   31 1
    32   33   31 ar
    33   34   33 1
    34   35   33 ar
    35   36   35 1
    36   37   28 ar
    37   38   37 1
    38   11   13 ar
    39   35   37 ar
@<TRIPOS>SUBSTRUCTURE
     1 RES1 1

@<TRIPOS>CRYSIN
   7.6910   10.2470   11.1950 109.0000  73.8000 112.2100   2 1

