# MOL2 file generated by ConQuest
# Please check atom types

@<TRIPOS>MOLECULE
QQQFNG03
    18    18     1
SMALL
NO_CHARGES
****
Generated from CSD

@<TRIPOS>ATOM
      1 O1         1.9456   10.7244    3.7966 O.2       1 RES1    0.0000
      2 O2         1.5346   12.7826    4.3136 O.2       1 RES1    0.0000
      3 O3         5.1232   13.6775    9.2461 O.2       1 RES1    0.0000
      4 O4         3.7785   14.7790    7.9678 O.2       1 RES1    0.0000
      5 N1         5.4844   11.0940    8.9019 N.3       1 RES1    0.0000
      6 N2         2.0871   11.7023    4.5260 N.pl3     1 RES1    0.0000
      7 N3         4.3480   13.7302    8.2922 N.pl3     1 RES1    0.0000
      8 C1         4.6454   11.2906    7.8892 C.ar      1 RES1    0.0000
      9 C2         4.2630   10.1817    7.0854 C.ar      1 RES1    0.0000
     10 C3         3.4403   10.3102    6.0295 C.ar      1 RES1    0.0000
     11 C4         2.9444   11.5721    5.6811 C.ar      1 RES1    0.0000
     12 C5         3.2518   12.6818    6.4247 C.ar      1 RES1    0.0000
     13 C6         4.0841   12.5459    7.5231 C.ar      1 RES1    0.0000
     14 H1         4.6007    9.3201    7.3014 H         1 RES1    0.0000
     15 H2         3.1958    9.5455    5.5210 H         1 RES1    0.0000
     16 H3         2.8984   13.5315    6.1903 H         1 RES1    0.0000
     17 H4         5.7728   11.7702    9.4330 H         1 RES1    0.0000
     18 H5         5.7942   10.3154    9.0131 H         1 RES1    0.0000
@<TRIPOS>BOND
     1    1    6 2
     2    2    6 2
     3    3    7 2
     4    4    7 2
     5    5    8 1
     6    6   11 1
     7    7   13 1
     8    8    9 ar
     9    9   10 ar
    10   10   11 ar
    11   11   12 ar
    12   12   13 ar
    13   13    8 ar
    14   14    9 1
    15   15   10 1
    16   16   12 1
    17   17    5 1
    18   18    5 1
@<TRIPOS>SUBSTRUCTURE
     1 RES1 1

@<TRIPOS>CRYSIN
   7.9970   12.8749    7.4383  90.0000 107.8090  90.0000  14 1

