# MOL2 file generated by ConQuest
# Please check atom types

@<TRIPOS>MOLECULE
QUBBAS
    97   106     1
SMALL
NO_CHARGES
****
Generated from CSD

@<TRIPOS>ATOM
      1 O1         2.0347    8.0390    4.7082 O.3       1 RES1    0.0000
      2 O2         0.2774   -0.8772    1.3910 O.2       1 RES1    0.0000
      3 O3         1.1435   -2.4130    0.1386 O.2       1 RES1    0.0000
      4 O4         6.1991    0.3429   -2.1030 O.2       1 RES1    0.0000
      5 O5         5.1209   -1.5169   -2.3737 O.2       1 RES1    0.0000
      6 N1         2.4944    3.3335    1.7502 N.2       1 RES1    0.0000
      7 N2         3.5608    2.9358    1.2461 N.2       1 RES1    0.0000
      8 N3         1.1507   -1.2870    0.6217 N.pl3     1 RES1    0.0000
      9 N4         5.2406   -0.4112   -1.8787 N.pl3     1 RES1    0.0000
     10 C1         2.2056    6.9054    3.9717 C.ar      1 RES1    0.0000
     11 C2         1.1279    6.3358    3.3144 C.ar      1 RES1    0.0000
     12 C3         1.2767    5.1665    2.5870 C.ar      1 RES1    0.0000
     13 C4         2.5087    4.5307    2.4749 C.ar      1 RES1    0.0000
     14 C5         3.6156    5.0974    3.1567 C.ar      1 RES1    0.0000
     15 C6         3.4438    6.2596    3.9024 C.ar      1 RES1    0.0000
     16 C7         4.7085    6.7070    4.6225 C.3       1 RES1    0.0000
     17 H1         4.5813    7.5487    5.1458 H         1 RES1    0.0000
     18 C8         5.7411    6.8471    3.5113 C.ar      1 RES1    0.0000
     19 C9         6.4493    7.9878    3.1768 C.ar      1 RES1    0.0000
     20 H2         6.3190    8.7967    3.6590 H         1 RES1    0.0000
     21 C10        7.3666    7.9328    2.1103 C.ar      1 RES1    0.0000
     22 H3         7.8524    8.7073    1.8550 H         1 RES1    0.0000
     23 C11        7.5528    6.7459    1.4403 C.ar      1 RES1    0.0000
     24 H4         8.1852    6.7084    0.7320 H         1 RES1    0.0000
     25 C12        6.8429    5.6006    1.7721 C.ar      1 RES1    0.0000
     26 H5         6.9777    4.7881    1.2962 H         1 RES1    0.0000
     27 C13        5.9305    5.6685    2.8158 C.ar      1 RES1    0.0000
     28 C14        5.0286    4.5335    3.2780 C.3       1 RES1    0.0000
     29 H6         5.1614    3.6903    2.7566 H         1 RES1    0.0000
     30 C15        5.2955    4.3644    4.7556 C.ar      1 RES1    0.0000
     31 C16        5.6441    3.2011    5.3609 C.ar      1 RES1    0.0000
     32 H7         5.7139    2.3994    4.8568 H         1 RES1    0.0000
     33 C17        5.9057    3.1969    6.7483 C.ar      1 RES1    0.0000
     34 H8         6.1404    2.3887    7.1886 H         1 RES1    0.0000
     35 C18        5.8152    4.3876    7.4693 C.ar      1 RES1    0.0000
     36 H9         6.0306    4.4019    8.3946 H         1 RES1    0.0000
     37 C19        5.4072    5.5587    6.8258 C.ar      1 RES1    0.0000
     38 H10        5.3045    6.3651    7.3180 H         1 RES1    0.0000
     39 C20        5.1582    5.5351    5.4849 C.ar      1 RES1    0.0000
     40 C21       -0.2866    6.8900    3.2935 C.3       1 RES1    0.0000
     41 H11       -0.3887    7.7347    3.8213 H         1 RES1    0.0000
     42 C22       -0.6095    7.0631    1.8058 C.ar      1 RES1    0.0000
     43 C23       -1.0337    8.2214    1.1823 C.ar      1 RES1    0.0000
     44 H12       -1.1082    9.0256    1.6809 H         1 RES1    0.0000
     45 C24       -1.3513    8.2117   -0.1595 C.ar      1 RES1    0.0000
     46 H13       -1.6246    9.0113   -0.5916 H         1 RES1    0.0000
     47 C25       -1.2705    7.0249   -0.8742 C.ar      1 RES1    0.0000
     48 H14       -1.5261    7.0088   -1.7894 H         1 RES1    0.0000
     49 C26       -0.8231    5.8652   -0.2707 C.ar      1 RES1    0.0000
     50 H15       -0.7417    5.0635   -0.7739 H         1 RES1    0.0000
     51 C27       -0.4932    5.8845    1.0747 C.ar      1 RES1    0.0000
     52 C28       -0.0259    4.7002    1.9216 C.3       1 RES1    0.0000
     53 H16        0.0780    3.8548    1.3965 H         1 RES1    0.0000
     54 C29       -1.0543    4.5929    3.0300 C.ar      1 RES1    0.0000
     55 C30       -1.8322    3.4833    3.3081 C.ar      1 RES1    0.0000
     56 H17       -1.7298    2.6855    2.8012 H         1 RES1    0.0000
     57 C31       -2.7659    3.5469    4.3354 C.ar      1 RES1    0.0000
     58 H18       -3.2903    2.7821    4.5441 H         1 RES1    0.0000
     59 C32       -2.9363    4.7059    5.0528 C.ar      1 RES1    0.0000
     60 H19       -3.5934    4.7488    5.7383 H         1 RES1    0.0000
     61 C33       -2.1345    5.8305    4.7684 C.ar      1 RES1    0.0000
     62 H20       -2.2299    6.6261    5.2761 H         1 RES1    0.0000
     63 C34       -1.2201    5.7633    3.7593 C.ar      1 RES1    0.0000
     64 C35        2.5738    9.2151    4.1239 C.3       1 RES1    0.0000
     65 H21        3.5051    9.2830    4.4539 H         1 RES1    0.0000
     66 H22        2.6365    9.0327    3.1522 H         1 RES1    0.0000
     67 C36        2.0896   10.3558    4.2287 C.3       1 RES1    0.0000
     68 H23        1.9992   10.5418    5.1968 H         1 RES1    0.0000
     69 H24        1.1727   10.3129    3.8595 H         1 RES1    0.0000
     70 C37        2.7538   11.5537    3.6143 C.3       1 RES1    0.0000
     71 H25        3.2348   12.0472    4.3263 H         1 RES1    0.0000
     72 H26        3.4277   11.2426    2.9607 H         1 RES1    0.0000
     73 C38        1.8303   12.5049    2.9243 C.3       1 RES1    0.0000
     74 H27        1.2254   12.9126    3.5934 H         1 RES1    0.0000
     75 H28        1.2734   12.0007    2.2780 H         1 RES1    0.0000
     76 C39        2.5702   13.6063    2.1905 C.3       1 RES1    0.0000
     77 H29        3.0618   13.2022    1.4302 H         1 RES1    0.0000
     78 H30        3.2385   13.9996    2.8040 H         1 RES1    0.0000
     79 C40        1.6828   14.7077    1.6627 C.3       1 RES1    0.0000
     80 H31        0.9566   14.3072    1.1249 H         1 RES1    0.0000
     81 H32        1.2671   15.1797    2.4284 H         1 RES1    0.0000
     82 C41        2.4206   15.7161    0.8122 C.3       1 RES1    0.0000
     83 H33        3.2148   16.0272    1.3154 H         1 RES1    0.0000
     84 H34        2.7461   15.2584   -0.0027 H         1 RES1    0.0000
     85 C42        1.6154   16.9247    0.3929 C.3       1 RES1    0.0000
     86 H35        2.1786   17.5255   -0.1386 H         1 RES1    0.0000
     87 H36        1.2960   17.3968    1.1905 H         1 RES1    0.0000
     88 H37        0.8486   16.6387   -0.1440 H         1 RES1    0.0000
     89 C43        3.4000    1.6671    0.6226 C.ar      1 RES1    0.0000
     90 C44        2.3380    0.8178    0.9143 C.ar      1 RES1    0.0000
     91 H38        1.6643    1.0835    1.5287 H         1 RES1    0.0000
     92 C45        2.2740   -0.4184    0.2990 C.ar      1 RES1    0.0000
     93 C46        3.2140   -0.8536   -0.6253 C.ar      1 RES1    0.0000
     94 H39        3.1471   -1.7021   -1.0465 H         1 RES1    0.0000
     95 C47        4.2629    0.0243   -0.9006 C.ar      1 RES1    0.0000
     96 C48        4.3639    1.2609   -0.3026 C.ar      1 RES1    0.0000
     97 H40        5.0879    1.8344   -0.5178 H         1 RES1    0.0000
@<TRIPOS>BOND
     1    1   10 1
     2    2    8 2
     3    3    8 2
     4    4    9 2
     5    5    9 2
     6    6    7 2
     7    7   89 1
     8    8   92 1
     9    9   95 1
    10   10   11 ar
    11   11   12 ar
    12   12   13 ar
    13   13    6 1
    14   14   13 ar
    15   15   10 ar
    16   16   15 1
    17   17   16 1
    18   18   16 1
    19   19   18 ar
    20   20   19 1
    21   21   19 ar
    22   22   21 1
    23   23   21 ar
    24   24   23 1
    25   25   23 ar
    26   26   25 1
    27   27   18 ar
    28   28   14 1
    29   29   28 1
    30   30   28 1
    31   31   30 ar
    32   32   31 1
    33   33   31 ar
    34   34   33 1
    35   35   33 ar
    36   36   35 1
    37   37   35 ar
    38   38   37 1
    39   39   16 1
    40   40   11 1
    41   41   40 1
    42   42   40 1
    43   43   42 ar
    44   44   43 1
    45   45   43 ar
    46   46   45 1
    47   47   45 ar
    48   48   47 1
    49   49   47 ar
    50   50   49 1
    51   51   42 ar
    52   52   12 1
    53   53   52 1
    54   54   52 1
    55   55   54 ar
    56   56   55 1
    57   57   55 ar
    58   58   57 1
    59   59   57 ar
    60   60   59 1
    61   61   59 ar
    62   62   61 1
    63   63   40 1
    64   64    1 1
    65   65   64 1
    66   66   64 1
    67   67   64 1
    68   68   67 1
    69   69   67 1
    70   70   67 1
    71   71   70 1
    72   72   70 1
    73   73   70 1
    74   74   73 1
    75   75   73 1
    76   76   73 1
    77   77   76 1
    78   78   76 1
    79   79   76 1
    80   80   79 1
    81   81   79 1
    82   82   79 1
    83   83   82 1
    84   84   82 1
    85   85   82 1
    86   86   85 1
    87   87   85 1
    88   88   85 1
    89   89   90 ar
    90   90   91 1
    91   92   90 ar
    92   93   92 ar
    93   94   93 1
    94   95   93 ar
    95   96   89 ar
    96   97   96 1
    97   14   15 ar
    98   25   27 ar
    99   27   28 1
   100   30   39 ar
   101   37   39 ar
   102   49   51 ar
   103   51   52 1
   104   54   63 ar
   105   61   63 ar
   106   95   96 ar
@<TRIPOS>SUBSTRUCTURE
     1 RES1 1

@<TRIPOS>CRYSIN
  11.8647   35.7590    9.3258  90.0000 102.1880  90.0000  14 1

