# MOL2 file generated by ConQuest
# Please check atom types

@<TRIPOS>MOLECULE
QUBMUW
    44    47     1
SMALL
NO_CHARGES
****
Generated from CSD

@<TRIPOS>ATOM
      1 N1         4.3315    5.9558    6.4968 N.3       1 RES1    0.0000
      2 N2         3.6762    7.4645    5.0079 N.2       1 RES1    0.0000
      3 N3         6.8309   11.4699    5.6158 N.pl3     1 RES1    0.0000
      4 O1         6.7312   11.3132    4.4159 O.2       1 RES1    0.0000
      5 O2         7.3439   12.4512    6.1219 O.2       1 RES1    0.0000
      6 C1         5.1823    8.3228    6.7217 C.ar      1 RES1    0.0000
      7 C2         5.3052    8.4541    8.1116 C.ar      1 RES1    0.0000
      8 H1         4.9510    7.7718    8.6860 H         1 RES1    0.0000
      9 C3         5.9441    9.5514    8.6640 C.ar      1 RES1    0.0000
     10 H2         6.0186    9.6472    9.6172 H         1 RES1    0.0000
     11 C4         6.4566   10.5509    7.8614 C.ar      1 RES1    0.0000
     12 H3         6.9167   11.3175    8.2112 H         1 RES1    0.0000
     13 C5         6.3166   10.4100    6.5029 C.ar      1 RES1    0.0000
     14 C6         5.7127    9.3233    5.9216 C.ar      1 RES1    0.0000
     15 H4         5.6503    9.2371    4.9673 H         1 RES1    0.0000
     16 C7         4.4282    7.2562    6.0692 C.2       1 RES1    0.0000
     17 C8         3.4459    5.3128    5.6517 C.2       1 RES1    0.0000
     18 C9         3.0425    6.2654    4.7433 C.2       1 RES1    0.0000
     19 C10        2.0587    6.1820    3.6485 C.ar      1 RES1    0.0000
     20 C11        1.0316    5.2381    3.6354 C.ar      1 RES1    0.0000
     21 H5         0.9627    4.6046    4.3523 H         1 RES1    0.0000
     22 C12        0.1218    5.2237    2.5931 C.ar      1 RES1    0.0000
     23 H6        -0.5857    4.5759    2.5908 H         1 RES1    0.0000
     24 C13        0.2184    6.1178    1.5623 C.ar      1 RES1    0.0000
     25 H7        -0.4238    6.0986    0.8501 H         1 RES1    0.0000
     26 C14        1.2098    7.0540    1.5670 C.ar      1 RES1    0.0000
     27 H8         1.2991    7.6683    0.8339 H         1 RES1    0.0000
     28 C15        2.1175    7.0914    2.6023 C.ar      1 RES1    0.0000
     29 H9         2.7991    7.7670    2.6128 H         1 RES1    0.0000
     30 C16        3.1019    3.8936    5.8220 C.ar      1 RES1    0.0000
     31 C17        2.4118    3.4652    6.9407 C.ar      1 RES1    0.0000
     32 H10        2.1542    4.1140    7.5985 H         1 RES1    0.0000
     33 C18        2.0968    2.1284    7.1156 C.ar      1 RES1    0.0000
     34 H11        1.6206    1.8141    7.8869 H         1 RES1    0.0000
     35 C19        2.4733    1.2170    6.1613 C.ar      1 RES1    0.0000
     36 H12        2.2647    0.2894    6.2980 H         1 RES1    0.0000
     37 C20        3.1334    1.6224    5.0425 C.ar      1 RES1    0.0000
     38 H13        3.3643    0.9669    4.3812 H         1 RES1    0.0000
     39 C21        3.4569    2.9544    4.8665 C.ar      1 RES1    0.0000
     40 H14        3.9388    3.2438    4.0882 H         1 RES1    0.0000
     41 C22        5.1390    5.2936    7.5233 C.3       1 RES1    0.0000
     42 H15        4.8654    4.3804    7.6356 H         1 RES1    0.0000
     43 H16        5.0333    5.7642    8.3525 H         1 RES1    0.0000
     44 H17        6.0606    5.3205    7.2546 H         1 RES1    0.0000
@<TRIPOS>BOND
     1    1   16 1
     2    2   16 2
     3    3    4 2
     4    5    3 2
     5    6    7 ar
     6    7    8 1
     7    9    7 ar
     8   10    9 1
     9   11    9 ar
    10   12   11 1
    11   13    3 1
    12   14    6 ar
    13   15   14 1
    14   16    6 1
    15   17    1 1
    16   18    2 1
    17   19   18 1
    18   20   19 ar
    19   21   20 1
    20   22   20 ar
    21   23   22 1
    22   24   22 ar
    23   25   24 1
    24   26   24 ar
    25   27   26 1
    26   28   19 ar
    27   29   28 1
    28   30   17 1
    29   31   30 ar
    30   32   31 1
    31   33   31 ar
    32   34   33 1
    33   35   33 ar
    34   36   35 1
    35   37   35 ar
    36   38   37 1
    37   39   30 ar
    38   40   39 1
    39   41    1 1
    40   42   41 1
    41   43   41 1
    42   44   41 1
    43   11   13 ar
    44   13   14 ar
    45   17   18 2
    46   26   28 ar
    47   37   39 ar
@<TRIPOS>SUBSTRUCTURE
     1 RES1 1

@<TRIPOS>CRYSIN
  16.2420    9.5830   11.6150  90.0000  94.3600  90.0000  14 1

