# MOL2 file generated by ConQuest
# Please check atom types

@<TRIPOS>MOLECULE
QUBQOV
    28    28     1
SMALL
NO_CHARGES
****
Generated from CSD

@<TRIPOS>ATOM
      1 O1        -0.4744    4.3949    5.4049 O.3       1 RES1    0.0000
      2 H1        -0.4255    4.3575    6.3645 H         1 RES1    0.0000
      3 O2         1.8220    4.4125    0.4848 O.2       1 RES1    0.0000
      4 C1         1.2689    4.2828    2.8244 C.3       1 RES1    0.0000
      5 C2         0.4172    3.2360    3.5040 C.2       1 RES1    0.0000
      6 C3         1.3637    1.4328    0.7342 C.3       1 RES1    0.0000
      7 H2         2.0759    1.2761    1.3883 H         1 RES1    0.0000
      8 H3         1.7591    1.6911   -0.1239 H         1 RES1    0.0000
      9 H4         0.8407    0.6111    0.6180 H         1 RES1    0.0000
     10 C4         0.1952    3.2246    4.9831 C.3       1 RES1    0.0000
     11 H5        -0.3427    2.4298    5.2294 H         1 RES1    0.0000
     12 H6         1.0677    3.1592    5.4464 H         1 RES1    0.0000
     13 C5        -0.7055    2.7847    0.2663 C.3       1 RES1    0.0000
     14 H7        -1.2926    3.4819    0.6264 H         1 RES1    0.0000
     15 H8        -1.2136    1.9536    0.1562 H         1 RES1    0.0000
     16 H9        -0.3543    3.0700   -0.6026 H         1 RES1    0.0000
     17 N1         1.2257    3.7921    1.4237 N.3       1 RES1    0.0000
     18 C6         0.4543    2.5471    1.2306 C.3       1 RES1    0.0000
     19 C7         0.6809    5.6970    2.8714 C.3       1 RES1    0.0000
     20 H10        1.1977    6.2852    2.2811 H         1 RES1    0.0000
     21 H11        0.7223    6.0373    3.7887 H         1 RES1    0.0000
     22 H12       -0.2517    5.6731    2.5728 H         1 RES1    0.0000
     23 C8        -0.0142    2.3240    2.6528 C.2       1 RES1    0.0000
     24 H13       -0.5670    1.5957    2.9083 H         1 RES1    0.0000
     25 C9         2.7081    4.2828    3.3185 C.3       1 RES1    0.0000
     26 H14        3.0777    3.3771    3.2492 H         1 RES1    0.0000
     27 H15        2.7324    4.5744    4.2543 H         1 RES1    0.0000
     28 H16        3.2416    4.8960    2.7713 H         1 RES1    0.0000
@<TRIPOS>BOND
     1    1    2 1
     2    3   17 1
     3    4    5 1
     4    5   10 1
     5    6    7 1
     6    8    6 1
     7    9    6 1
     8   10    1 1
     9   11   10 1
    10   12   10 1
    11   13   14 1
    12   15   13 1
    13   16   13 1
    14   17    4 1
    15   18    6 1
    16   19    4 1
    17   20   19 1
    18   21   19 1
    19   22   19 1
    20   23    5 2
    21   24   23 1
    22   25    4 1
    23   26   25 1
    24   27   25 1
    25   28   25 1
    26   13   18 1
    27   17   18 1
    28   18   23 1
@<TRIPOS>SUBSTRUCTURE
     1 RES1 1

@<TRIPOS>CRYSIN
   5.9127   10.3751    7.9969  90.0000 105.7690  90.0000   4 1

