# MOL2 file generated by ConQuest
# Please check atom types

@<TRIPOS>MOLECULE
QUBTEN
    53    56     1
SMALL
NO_CHARGES
****
Generated from CSD

@<TRIPOS>ATOM
      1 N1         2.7462    4.8639    2.6557 N.pl3     1 RES1    0.0000
      2 N2         2.1232    3.8628    1.9625 N.2       1 RES1    0.0000
      3 C1         3.0459    2.9329    1.7768 C.2       1 RES1    0.0000
      4 C2         4.2750    3.3260    2.3437 C.2       1 RES1    0.0000
      5 C3         5.6027    2.6861    2.5038 C.3       1 RES1    0.0000
      6 H1         5.5475    1.9654    3.1808 H         1 RES1    0.0000
      7 H2         5.8854    2.2823    1.6443 H         1 RES1    0.0000
      8 O1         6.5597    3.6628    2.9162 O.3       1 RES1    0.0000
      9 C4         6.0618    4.4760    3.9648 C.3       1 RES1    0.0000
     10 H3         6.8017    5.0281    4.3225 H         1 RES1    0.0000
     11 H4         5.7388    3.8940    4.6977 H         1 RES1    0.0000
     12 N3         4.9815    5.3495    3.5445 N.3       1 RES1    0.0000
     13 C5         4.0386    4.5506    2.8776 C.2       1 RES1    0.0000
     14 C6         1.9778    5.9400    3.1486 C.ar      1 RES1    0.0000
     15 C7         2.2602    6.4668    4.3945 C.ar      1 RES1    0.0000
     16 H5         2.9769    6.1201    4.9123 H         1 RES1    0.0000
     17 C8         1.4904    7.4983    4.8743 C.ar      1 RES1    0.0000
     18 H6         1.6947    7.8862    5.7167 H         1 RES1    0.0000
     19 C9         0.4325    7.9705    4.1489 C.ar      1 RES1    0.0000
     20 H7        -0.1048    8.6728    4.4969 H         1 RES1    0.0000
     21 C10        0.1437    7.4333    2.9164 C.ar      1 RES1    0.0000
     22 H8        -0.5953    7.7598    2.4177 H         1 RES1    0.0000
     23 C11        0.9267    6.4194    2.4036 C.ar      1 RES1    0.0000
     24 H9         0.7411    6.0569    1.5456 H         1 RES1    0.0000
     25 C12        2.7491    1.6933    0.9800 C.3       1 RES1    0.0000
     26 C13        1.2611    1.5353    0.7600 C.3       1 RES1    0.0000
     27 H10        0.8109    1.4396    1.6248 H         1 RES1    0.0000
     28 H11        1.0936    0.7374    0.2157 H         1 RES1    0.0000
     29 H12        0.9140    2.3262    0.2960 H         1 RES1    0.0000
     30 C14        3.4424    1.8188   -0.3715 C.3       1 RES1    0.0000
     31 H13        3.0993    2.6062   -0.8434 H         1 RES1    0.0000
     32 H14        3.2655    1.0156   -0.9053 H         1 RES1    0.0000
     33 H15        4.4086    1.9145   -0.2352 H         1 RES1    0.0000
     34 C15        3.2768    0.4714    1.7145 C.3       1 RES1    0.0000
     35 H16        4.2513    0.5302    1.7889 H         1 RES1    0.0000
     36 H17        3.0360   -0.3380    1.2175 H         1 RES1    0.0000
     37 H18        2.8832    0.4328    2.6105 H         1 RES1    0.0000
     38 C16        5.4368    6.4730    2.7103 C.3       1 RES1    0.0000
     39 H19        4.6573    6.8636    2.2433 H         1 RES1    0.0000
     40 H20        6.0619    6.1315    2.0218 H         1 RES1    0.0000
     41 C17        6.1225    7.5500    3.4994 C.ar      1 RES1    0.0000
     42 C18        7.2598    8.1540    2.9982 C.ar      1 RES1    0.0000
     43 H21        7.6312    7.8459    2.1802 H         1 RES1    0.0000
     44 C19        7.8621    9.1951    3.6660 C.ar      1 RES1    0.0000
     45 H22        8.6444    9.6085    3.3196 H         1 RES1    0.0000
     46 C20        7.3052    9.6199    4.8422 C.ar      1 RES1    0.0000
     47 C21        6.1944    9.0318    5.3793 C.ar      1 RES1    0.0000
     48 H23        5.8360    9.3329    6.2066 H         1 RES1    0.0000
     49 C22        5.6067    7.9951    4.6966 C.ar      1 RES1    0.0000
     50 H24        4.8329    7.5773    5.0557 H         1 RES1    0.0000
     51 N4         7.9007   10.7535    5.5415 N.pl3     1 RES1    0.0000
     52 O2         8.9870   11.1519    5.1726 O.2       1 RES1    0.0000
     53 O3         7.2789   11.2565    6.4614 O.2       1 RES1    0.0000
@<TRIPOS>BOND
     1    1    2 1
     2    2    3 2
     3    3    4 1
     4    4    5 1
     5    5    6 1
     6    7    5 1
     7    8    5 1
     8    9    8 1
     9   10    9 1
    10   11    9 1
    11   12    9 1
    12   13    1 1
    13   14    1 1
    14   15   14 ar
    15   16   15 1
    16   17   15 ar
    17   18   17 1
    18   19   17 ar
    19   20   19 1
    20   21   19 ar
    21   22   21 1
    22   23   14 ar
    23   24   23 1
    24   25    3 1
    25   26   25 1
    26   27   26 1
    27   28   26 1
    28   29   26 1
    29   30   25 1
    30   31   30 1
    31   32   30 1
    32   33   30 1
    33   34   25 1
    34   35   34 1
    35   36   34 1
    36   37   34 1
    37   38   12 1
    38   39   38 1
    39   40   38 1
    40   41   38 1
    41   42   41 ar
    42   43   42 1
    43   44   42 ar
    44   45   44 1
    45   46   44 ar
    46   47   46 ar
    47   48   47 1
    48   49   41 ar
    49   50   49 1
    50   51   46 1
    51   52   51 2
    52   53   51 2
    53    4   13 2
    54   12   13 1
    55   21   23 ar
    56   47   49 ar
@<TRIPOS>SUBSTRUCTURE
     1 RES1 1

@<TRIPOS>CRYSIN
  19.1640    8.7781   11.7188  90.0000 101.7170  90.0000  14 1

