# MOL2 file generated by ConQuest
# Please check atom types

@<TRIPOS>MOLECULE
QUCJEE
    34    35     1
SMALL
NO_CHARGES
****
Generated from CSD

@<TRIPOS>ATOM
      1 N1         5.2245    5.7889   15.3432 N.2       1 RES1    0.0000
      2 N2         4.5283    7.4959    9.2848 N.2       1 RES1    0.0000
      3 N3         4.6322    9.2913    3.0955 N.pl3     1 RES1    0.0000
      4 O1         5.2731    5.6726   16.7423 O.3       1 RES1    0.0000
      5 H1         5.7820    4.8896   16.8891 H         1 RES1    0.0000
      6 O2         4.9656   10.3769    2.6355 O.2       1 RES1    0.0000
      7 O3         4.3468    8.3177    2.4194 O.2       1 RES1    0.0000
      8 C1         4.0813    7.8815   15.8950 C.3       1 RES1    0.0000
      9 H2         4.2930    7.6359   16.7978 H         1 RES1    0.0000
     10 H3         3.1277    7.9181   15.7885 H         1 RES1    0.0000
     11 H4         4.4589    8.7420   15.6989 H         1 RES1    0.0000
     12 C2         4.6492    6.8616   14.9550 C.2       1 RES1    0.0000
     13 C3         4.5828    7.0457   13.4913 C.ar      1 RES1    0.0000
     14 C4         4.0791    8.1970   12.9263 C.ar      1 RES1    0.0000
     15 H5         3.7495    8.8691   13.4775 H         1 RES1    0.0000
     16 C5         4.0548    8.3748   11.5502 C.ar      1 RES1    0.0000
     17 H6         3.7177    9.1653   11.1935 H         1 RES1    0.0000
     18 C6         4.5231    7.3979   10.7054 C.ar      1 RES1    0.0000
     19 C7         5.0054    6.2218   11.2645 C.ar      1 RES1    0.0000
     20 H7         5.3107    5.5412   10.7083 H         1 RES1    0.0000
     21 C8         5.0386    6.0506   12.6271 C.ar      1 RES1    0.0000
     22 H8         5.3712    5.2558   12.9787 H         1 RES1    0.0000
     23 C9         4.6086    8.6365    8.7404 C.2       1 RES1    0.0000
     24 H9         4.6935    9.3904    9.2797 H         1 RES1    0.0000
     25 C10        4.5710    8.8002    7.2816 C.ar      1 RES1    0.0000
     26 C11        4.9759   10.0139    6.7235 C.ar      1 RES1    0.0000
     27 H10        5.2348   10.7140    7.2780 H         1 RES1    0.0000
     28 C12        4.9951   10.1809    5.3541 C.ar      1 RES1    0.0000
     29 H11        5.2776   10.9832    4.9771 H         1 RES1    0.0000
     30 C13        4.5895    9.1373    4.5629 C.ar      1 RES1    0.0000
     31 C14        4.1462    7.9461    5.0836 C.ar      1 RES1    0.0000
     32 H12        3.8520    7.2622    4.5274 H         1 RES1    0.0000
     33 C15        4.1499    7.7889    6.4513 C.ar      1 RES1    0.0000
     34 H13        3.8623    6.9843    6.8199 H         1 RES1    0.0000
@<TRIPOS>BOND
     1    1    4 1
     2    2   18 1
     3    3    6 2
     4    4    5 1
     5    7    3 2
     6    8    9 1
     7   10    8 1
     8   11    8 1
     9   12    1 2
    10   13   12 1
    11   14   13 ar
    12   15   14 1
    13   16   14 ar
    14   17   16 1
    15   18   16 ar
    16   19   18 ar
    17   20   19 1
    18   21   13 ar
    19   22   21 1
    20   23    2 2
    21   24   23 1
    22   25   23 1
    23   26   25 ar
    24   27   26 1
    25   28   26 ar
    26   29   28 1
    27   30    3 1
    28   31   30 ar
    29   32   31 1
    30   33   25 ar
    31   34   33 1
    32    8   12 1
    33   19   21 ar
    34   28   30 ar
    35   31   33 ar
@<TRIPOS>SUBSTRUCTURE
     1 RES1 1

@<TRIPOS>CRYSIN
   7.3750   10.7700   16.9060  90.0000  90.0000  90.0000  19 1

