# MOL2 file generated by ConQuest
# Please check atom types

@<TRIPOS>MOLECULE
QUDNOU
    13    14     1
SMALL
NO_CHARGES
****
Generated from CSD

@<TRIPOS>ATOM
      1 O1         3.9771   -1.3390    5.7898 O.3       1 RES1    0.0000
      2 N1         3.0058   -0.4832    6.0888 N.pl3     1 RES1    0.0000
      3 N2         2.1371   -0.6953    7.1002 N.2       1 RES1    0.0000
      4 N3         1.3509    0.3438    7.1332 N.2       1 RES1    0.0000
      5 N4         1.7145    1.1977    6.1614 N.2       1 RES1    0.0000
      6 N5         3.4252    2.6166    4.1870 N.2       1 RES1    0.0000
      7 N6         4.3266    2.7347    3.2220 N.3       1 RES1    0.0000
      8 N7         4.9396    1.6154    2.8970 N.2       1 RES1    0.0000
      9 N8         4.4223    0.6791    3.6780 N.2       1 RES1    0.0000
     10 C1         2.7471    0.6835    5.5089 C.2       1 RES1    0.0000
     11 C2         3.5111    1.3129    4.4461 C.2       1 RES1    0.0000
     12 H1         4.5408    3.5737    2.8654 H         1 RES1    0.0000
     13 H2         3.4570   -2.5458    6.0112 H         1 RES1    0.0000
@<TRIPOS>BOND
     1    1    2 1
     2    2    3 1
     3    3    4 2
     4    4    5 1
     5    5   10 2
     6    6    7 1
     7    7    8 1
     8    8    9 2
     9    9   11 1
    10   10    2 1
    11   11    6 2
    12   12    7 1
    13   13    1 1
    14   10   11 1
@<TRIPOS>SUBSTRUCTURE
     1 RES1 1

@<TRIPOS>CRYSIN
   9.3433    9.6067   12.5732  90.0000  90.0000  90.0000  61 1

