# MOL2 file generated by ConQuest
# Please check atom types

@<TRIPOS>MOLECULE
QUDQAH
    36    38     1
SMALL
NO_CHARGES
****
Generated from CSD

@<TRIPOS>ATOM
      1 O1        -5.3750   -4.4616   -5.6874 O.3       1 RES1    0.0000
      2 C1        -4.5836   -5.2105   -4.8745 C.2       1 RES1    0.0000
      3 H1        -4.2594   -6.0497   -5.1098 H         1 RES1    0.0000
      4 C2        -4.3170   -4.6230   -3.7029 C.2       1 RES1    0.0000
      5 C3        -5.0019   -3.3484   -3.7530 C.ar      1 RES1    0.0000
      6 C4        -5.1767   -2.2538   -2.9044 C.ar      1 RES1    0.0000
      7 H2        -4.7807   -2.2251   -2.0634 H         1 RES1    0.0000
      8 C5        -5.9697   -1.2065   -3.3688 C.ar      1 RES1    0.0000
      9 H3        -6.1079   -0.4698   -2.8180 H         1 RES1    0.0000
     10 C6        -6.5528   -1.2216   -4.6042 C.ar      1 RES1    0.0000
     11 H4        -7.0738   -0.4971   -4.8677 H         1 RES1    0.0000
     12 C7        -6.3958   -2.2581   -5.4535 C.ar      1 RES1    0.0000
     13 H5        -6.7863   -2.2638   -6.2979 H         1 RES1    0.0000
     14 C8        -5.6235   -3.3125   -4.9973 C.ar      1 RES1    0.0000
     15 C9        -3.5202   -5.2133   -2.6012 C.3       1 RES1    0.0000
     16 H6        -3.1927   -6.0956   -2.8749 H         1 RES1    0.0000
     17 O2        -2.3730   -4.3160   -2.3838 O.3       1 RES1    0.0000
     18 C10       -1.2392   -4.8626   -1.9811 C.2       1 RES1    0.0000
     19 O3        -1.0926   -6.0433   -1.7876 O.2       1 RES1    0.0000
     20 C11       -0.1497   -3.8627   -1.7918 C.ar      1 RES1    0.0000
     21 C12        1.1446   -4.3318   -1.5441 C.ar      1 RES1    0.0000
     22 H7         1.3039   -5.2470   -1.5098 H         1 RES1    0.0000
     23 C13        2.1807   -3.4524   -1.3500 C.ar      1 RES1    0.0000
     24 H8         3.0398   -3.7601   -1.1764 H         1 RES1    0.0000
     25 C14        1.9146   -2.1031   -1.4193 C.ar      1 RES1    0.0000
     26 C15        0.6480   -1.5946   -1.6751 C.ar      1 RES1    0.0000
     27 H9         0.4980   -0.6778   -1.7238 H         1 RES1    0.0000
     28 C16       -0.3859   -2.5005   -1.8549 C.ar      1 RES1    0.0000
     29 H10       -1.2467   -2.1899   -2.0188 H         1 RES1    0.0000
     30 C17       -4.2731   -5.3410   -1.3006 C.3       1 RES1    0.0000
     31 H11       -3.7018   -5.7406   -0.6393 H         1 RES1    0.0000
     32 H12       -5.0483   -5.8933   -1.4323 H         1 RES1    0.0000
     33 H13       -4.5480   -4.4709   -1.0029 H         1 RES1    0.0000
     34 N1         3.0204   -1.1527   -1.2210 N.pl3     1 RES1    0.0000
     35 O4         2.8856   -0.0129   -1.6038 O.2       1 RES1    0.0000
     36 O5         4.0291   -1.5472   -0.6798 O.2       1 RES1    0.0000
@<TRIPOS>BOND
     1    1    2 1
     2    2    3 1
     3    4    2 2
     4    5    4 1
     5    6    5 ar
     6    7    6 1
     7    8    6 ar
     8    9    8 1
     9   10    8 ar
    10   11   10 1
    11   12   10 ar
    12   13   12 1
    13   14    1 1
    14   15    4 1
    15   16   15 1
    16   17   15 1
    17   18   17 1
    18   19   18 2
    19   20   18 1
    20   21   20 ar
    21   22   21 1
    22   23   21 ar
    23   24   23 1
    24   25   23 ar
    25   26   25 ar
    26   27   26 1
    27   28   20 ar
    28   29   28 1
    29   30   15 1
    30   31   30 1
    31   32   30 1
    32   33   30 1
    33   34   25 1
    34   35   34 2
    35   36   34 2
    36    5   14 ar
    37   12   14 ar
    38   26   28 ar
@<TRIPOS>SUBSTRUCTURE
     1 RES1 1

@<TRIPOS>CRYSIN
  31.3890    7.1730    6.9370  90.0000  98.5600  90.0000   5 1

