# MOL2 file generated by ConQuest
# Please check atom types

@<TRIPOS>MOLECULE
QUFFIG
    57    58     2
SMALL
USER_CHARGES
****
Generated from CSD

@<TRIPOS>ATOM
      1 O1         9.2014   -3.4803    6.6577 O.2       1 RES1    0.0000
      2 O2         5.2955   -5.5761    7.8878 O.2       1 RES1   -1.0000
      3 O3         3.3582   -1.2761    8.1178 O.2       1 RES1    0.0000
      4 O4         1.8977   -2.0467    3.8055 O.2       1 RES1   -1.0000
      5 O5         4.2817   -1.1247    3.4924 Du        2 SUP2    0.0000
      6 O6         8.0674   -3.5918    4.4018 O.3       1 RES1    0.0000
      7 N1         8.3725   -4.3036    7.2135 N.3       1 RES1    0.0000
      8 N2         6.5299   -5.2740    7.8175 N.pl3     1 RES1    1.0000
      9 N3         2.6108   -1.3668    7.0843 N.3       1 RES1    0.0000
     10 N4         1.9483   -1.6568    5.0207 N.pl3     1 RES1    1.0000
     11 C1         6.0913   -2.4950    3.8864 C.ar      1 RES1    0.0000
     12 C2         6.8410   -3.2118    4.7893 C.ar      1 RES1    0.0000
     13 C3         6.3197   -3.5057    6.0656 C.ar      1 RES1    0.0000
     14 C4         5.0496   -3.0224    6.4035 C.ar      1 RES1    0.0000
     15 C5         4.3128   -2.2772    5.5049 C.ar      1 RES1    0.0000
     16 C6         4.8404   -2.0112    4.2229 C.ar      1 RES1    0.0000
     17 C7         7.0638   -4.3289    7.0083 C.2       1 RES1    0.0000
     18 C8         8.8044   -5.1825    8.3435 C.3       1 RES1    0.0000
     19 C9         7.5976   -6.1071    8.4529 C.3       1 RES1    0.0000
     20 C10       10.1432   -5.8107    8.0092 C.3       1 RES1    0.0000
     21 C11        8.9600   -4.2909    9.5865 C.3       1 RES1    0.0000
     22 C12        7.7474   -7.3330    7.4868 C.3       1 RES1    0.0000
     23 C13        7.1900   -6.5833    9.7952 C.3       1 RES1    0.0000
     24 C14        2.9963   -1.7711    5.8577 C.2       1 RES1    0.0000
     25 C15        1.1201   -1.1778    7.1503 C.3       1 RES1    0.0000
     26 C16        0.8207   -0.9043    5.6490 C.3       1 RES1    0.0000
     27 C17        0.5504   -2.4975    7.6543 C.3       1 RES1    0.0000
     28 C18        0.7656   -0.0507    8.0908 C.3       1 RES1    0.0000
     29 C19       -0.4915   -1.4362    5.1407 C.3       1 RES1    0.0000
     30 C20        1.0271    0.5573    5.2571 C.3       1 RES1    0.0000
     31 H1         4.7489   -3.2498    7.3008 H         1 RES1    0.0000
     32 H2         6.4231   -2.2417    2.9693 H         1 RES1    0.0000
     33 H3        10.7853   -5.1268    7.8743 H         1 RES1    0.0000
     34 H4        10.4172   -6.3730    8.7226 H         1 RES1    0.0000
     35 H5        10.0557   -6.3274    7.2149 H         1 RES1    0.0000
     36 H6         9.2325   -4.8254   10.3233 H         1 RES1    0.0000
     37 H7         8.1321   -3.8755    9.7817 H         1 RES1    0.0000
     38 H8         9.6190   -3.6298    9.4140 H         1 RES1    0.0000
     39 H9         8.4122   -7.9207    7.8204 H         1 RES1    0.0000
     40 H10        6.9159   -7.7915    7.4293 H         1 RES1    0.0000
     41 H11        7.9977   -7.0240    6.6243 H         1 RES1    0.0000
     42 H12        7.8854   -7.1076   10.1742 H         1 RES1    0.0000
     43 H13        6.4012   -7.1076    9.7235 H         1 RES1    0.0000
     44 H14        7.0200   -5.8335   10.3595 H         1 RES1    0.0000
     45 H15        8.6736   -3.5107    5.0413 H         1 RES1    0.0000
     46 H16        0.7799   -3.1916    7.0516 H         1 RES1    0.0000
     47 H17        0.9149   -2.6900    8.5132 H         1 RES1    0.0000
     48 H18       -0.3925   -2.4291    7.7203 H         1 RES1    0.0000
     49 H19        1.0932   -0.2457    8.9604 H         1 RES1    0.0000
     50 H20       -0.1757    0.0583    8.1192 H         1 RES1    0.0000
     51 H21        1.1658    0.7574    7.7792 H         1 RES1    0.0000
     52 H22       -0.5613   -2.3633    5.3671 H         1 RES1    0.0000
     53 H23       -0.5212   -1.3501    4.1931 H         1 RES1    0.0000
     54 H24       -1.2049   -0.9625    5.5304 H         1 RES1    0.0000
     55 H25        1.8643    0.8536    5.5908 H         1 RES1    0.0000
     56 H26        1.0073    0.6358    4.3166 H         1 RES1    0.0000
     57 H27        0.3295    1.0791    5.6404 H         1 RES1    0.0000
@<TRIPOS>BOND
     1    1    7 1
     2    2    8 1
     3    3    9 1
     4    4   10 1
     5    6   12 1
     6    7   17 1
     7    8   17 2
     8    9   24 1
     9   10   24 2
    10   11   12 ar
    11   12   13 ar
    12   13   14 ar
    13   14   15 ar
    14   15   16 ar
    15   16   11 ar
    16   17   13 1
    17   18    7 1
    18   19    8 1
    19   20   18 1
    20   21   18 1
    21   22   19 1
    22   23   19 1
    23   24   15 1
    24   25    9 1
    25   26   10 1
    26   27   25 1
    27   28   25 1
    28   29   26 1
    29   30   26 1
    30   31   14 1
    31   32   11 1
    32   33   20 1
    33   34   20 1
    34   35   20 1
    35   36   21 1
    36   37   21 1
    37   38   21 1
    38   39   22 1
    39   40   22 1
    40   41   22 1
    41   42   23 1
    42   43   23 1
    43   44   23 1
    44   45    6 1
    45   46   27 1
    46   47   27 1
    47   48   27 1
    48   49   28 1
    49   50   28 1
    50   51   28 1
    51   52   29 1
    52   53   29 1
    53   54   29 1
    54   55   30 1
    55   56   30 1
    56   57   30 1
    57   18   19 1
    58   25   26 1
@<TRIPOS>SUBSTRUCTURE
     1 RES1 1
     2 SUP2 5

@<TRIPOS>CRYSIN
  11.8060   25.3300    7.3370  90.0000 104.6500  90.0000 231 1

