# MOL2 file generated by ConQuest
# Please check atom types

@<TRIPOS>MOLECULE
QUFGON
    51    54     1
SMALL
NO_CHARGES
****
Generated from CSD

@<TRIPOS>ATOM
      1 O1        14.3761    2.3683    9.5599 O.2       1 RES1    0.0000
      2 O2        16.6718    3.7703    7.2563 O.3       1 RES1    0.0000
      3 N1        15.1330    3.2191    8.9845 N.3       1 RES1    0.0000
      4 C1        15.1524    4.5669    9.3857 C.ar      1 RES1    0.0000
      5 C2        14.7931    4.9724   10.6840 C.ar      1 RES1    0.0000
      6 C3        14.7469    6.3455   10.9299 C.ar      1 RES1    0.0000
      7 C4        15.0700    7.2914    9.9635 C.ar      1 RES1    0.0000
      8 C5        15.4497    6.8510    8.6944 C.ar      1 RES1    0.0000
      9 C6        15.4967    5.5031    8.3952 C.ar      1 RES1    0.0000
     10 C7        15.0423    8.7427   10.2902 C.ar      1 RES1    0.0000
     11 C8        14.5037    9.6561    9.3891 C.ar      1 RES1    0.0000
     12 C9        14.4221   11.0051    9.7124 C.ar      1 RES1    0.0000
     13 C10       14.8989   11.4588   10.9110 C.ar      1 RES1    0.0000
     14 C11       15.4572   10.5707   11.8035 C.ar      1 RES1    0.0000
     15 C12       15.5249    9.2144   11.5025 C.ar      1 RES1    0.0000
     16 C13       14.5429    4.0434   11.8241 C.ar      1 RES1    0.0000
     17 C14       15.4868    3.0915   12.1835 C.ar      1 RES1    0.0000
     18 C15       15.2865    2.2720   13.2823 C.ar      1 RES1    0.0000
     19 C16       14.1427    2.3887   14.0338 C.ar      1 RES1    0.0000
     20 C17       13.2118    3.3418   13.7071 C.ar      1 RES1    0.0000
     21 C18       13.4009    4.1722   12.6082 C.ar      1 RES1    0.0000
     22 C19       16.1134    2.6920    7.9962 C.3       1 RES1    0.0000
     23 C20       15.8765    4.9652    7.0315 C.3       1 RES1    0.0000
     24 C21       16.8419    5.8702    6.2835 C.3       1 RES1    0.0000
     25 C22       14.6290    4.7029    6.2027 C.3       1 RES1    0.0000
     26 C23       15.4424    1.6715    7.1072 C.3       1 RES1    0.0000
     27 C24       17.2642    2.0915    8.7718 C.3       1 RES1    0.0000
     28 H1        14.4782    6.6452   11.8017 H         1 RES1    0.0000
     29 H2        15.6682    7.4924    8.0083 H         1 RES1    0.0000
     30 H3        14.1739    9.3408    8.5276 H         1 RES1    0.0000
     31 H4        14.0353   11.6321    9.0779 H         1 RES1    0.0000
     32 H5        14.8392   12.3890   11.1448 H         1 RES1    0.0000
     33 H6        15.8257   10.8920   12.6392 H         1 RES1    0.0000
     34 H7        15.9120    8.5947   12.1353 H         1 RES1    0.0000
     35 H8        16.3014    3.0133   11.6642 H         1 RES1    0.0000
     36 H9        15.9718    1.6174   13.5179 H         1 RES1    0.0000
     37 H10       13.9855    1.8099   14.7870 H         1 RES1    0.0000
     38 H11       12.4151    3.4345   14.2488 H         1 RES1    0.0000
     39 H12       12.7389    4.8533   12.3812 H         1 RES1    0.0000
     40 H13       17.6168    6.0375    6.8200 H         1 RES1    0.0000
     41 H14       17.1262    5.4526    5.4701 H         1 RES1    0.0000
     42 H15       16.4309    6.7017    6.0720 H         1 RES1    0.0000
     43 H16       14.1198    5.5200    6.0926 H         1 RES1    0.0000
     44 H17       14.8503    4.3792    5.3360 H         1 RES1    0.0000
     45 H18       14.0627    4.0675    6.6343 H         1 RES1    0.0000
     46 H19       14.7157    2.0891    6.6068 H         1 RES1    0.0000
     47 H20       16.0446    1.3021    6.4692 H         1 RES1    0.0000
     48 H21       15.0563    0.9591    7.6127 H         1 RES1    0.0000
     49 H22       16.9872    1.3610    9.3203 H         1 RES1    0.0000
     50 H23       17.9708    1.7967    8.2009 H         1 RES1    0.0000
     51 H24       17.6529    2.7618    9.3754 H         1 RES1    0.0000
@<TRIPOS>BOND
     1    1    3 1
     2    2   22 1
     3    3    4 1
     4    4    5 ar
     5    5    6 ar
     6    6    7 ar
     7    7    8 ar
     8    8    9 ar
     9    9    4 ar
    10   10    7 1
    11   11   10 ar
    12   12   11 ar
    13   13   12 ar
    14   14   13 ar
    15   15   10 ar
    16   16    5 1
    17   17   16 ar
    18   18   17 ar
    19   19   18 ar
    20   20   19 ar
    21   21   16 ar
    22   22    3 1
    23   23    2 1
    24   24   23 1
    25   25   23 1
    26   26   22 1
    27   27   22 1
    28   28    6 1
    29   29    8 1
    30   30   11 1
    31   31   12 1
    32   32   13 1
    33   33   14 1
    34   34   15 1
    35   35   17 1
    36   36   18 1
    37   37   19 1
    38   38   20 1
    39   39   21 1
    40   40   24 1
    41   41   24 1
    42   42   24 1
    43   43   25 1
    44   44   25 1
    45   45   25 1
    46   46   26 1
    47   47   26 1
    48   48   26 1
    49   49   27 1
    50   50   27 1
    51   51   27 1
    52    9   23 1
    53   14   15 ar
    54   20   21 ar
@<TRIPOS>SUBSTRUCTURE
     1 RES1 1

@<TRIPOS>CRYSIN
  18.7240   12.0340   17.3180  90.0000  96.8000  90.0000  15 1

