# MOL2 file generated by ConQuest
# Please check atom types

@<TRIPOS>MOLECULE
QUFKAF
    39    41     1
SMALL
NO_CHARGES
****
Generated from CSD

@<TRIPOS>ATOM
      1 C1         3.5807    2.3067    0.6509 C.3       1 RES1    0.0000
      2 H1         4.0085    1.4414    0.8203 H         1 RES1    0.0000
      3 C2         2.5281    2.4887    1.6781 C.3       1 RES1    0.0000
      4 H2         2.1020    3.3517    1.4962 H         1 RES1    0.0000
      5 C3         1.4451    1.4022    1.4783 C.3       1 RES1    0.0000
      6 H3         1.8110    0.5345    1.7084 H         1 RES1    0.0000
      7 H4         0.6967    1.5801    2.0704 H         1 RES1    0.0000
      8 C4         3.1008    2.2996   -0.7989 C.3       1 RES1    0.0000
      9 H5         2.6725    3.1690   -0.9434 H         1 RES1    0.0000
     10 C5         1.9885    1.2494   -0.9790 C.3       1 RES1    0.0000
     11 H6         2.4094    0.3747   -0.8453 H         1 RES1    0.0000
     12 C6         1.4612    1.2622   -2.4128 C.3       1 RES1    0.0000
     13 H7         0.8543    0.5140   -2.5287 H         1 RES1    0.0000
     14 H8         0.9530    2.0772   -2.5519 H         1 RES1    0.0000
     15 C7         0.9638    1.3781    0.0642 C.2       1 RES1    0.0000
     16 C8         3.5875    2.2230   -3.2456 C.3       1 RES1    0.0000
     17 H9         3.2317    3.1029   -3.4453 H         1 RES1    0.0000
     18 H10        4.3133    2.0432   -3.8644 H         1 RES1    0.0000
     19 C9         4.1208    2.1966   -1.8011 C.3       1 RES1    0.0000
     20 H11        4.6087    1.3694   -1.6638 H         1 RES1    0.0000
     21 H12        4.7451    2.9296   -1.6870 H         1 RES1    0.0000
     22 C10        2.4997    1.1820   -3.4239 C.3       1 RES1    0.0000
     23 H13        2.0950    1.2938   -4.2977 H         1 RES1    0.0000
     24 H14        2.9000    0.2992   -3.3936 H         1 RES1    0.0000
     25 C11        3.0191    2.5338    3.1082 C.ar      1 RES1    0.0000
     26 C12        3.7686    1.5274    3.6646 C.ar      1 RES1    0.0000
     27 H15        4.0041    0.7939    3.1439 H         1 RES1    0.0000
     28 C13        2.6919    3.6181    3.9161 C.ar      1 RES1    0.0000
     29 H16        2.1776    4.3136    3.5737 H         1 RES1    0.0000
     30 C14        4.1762    1.5831    4.9718 C.ar      1 RES1    0.0000
     31 H17        4.6779    0.8858    5.3266 H         1 RES1    0.0000
     32 C15        3.1354    3.6661    5.2482 C.ar      1 RES1    0.0000
     33 H18        2.9352    4.3997    5.7832 H         1 RES1    0.0000
     34 C16        3.8569    2.6345    5.7457 C.ar      1 RES1    0.0000
     35 H19        4.1359    2.6538    6.6320 H         1 RES1    0.0000
     36 O1        -0.2783    1.4613   -0.1944 O.2       1 RES1    0.0000
     37 O2         5.7632    2.9998    1.0236 O.2       1 RES1    0.0000
     38 O3         4.3033    4.5431    0.7311 O.2       1 RES1    0.0000
     39 N1         4.6482    3.3763    0.8078 N.pl3     1 RES1    0.0000
@<TRIPOS>BOND
     1    1    2 1
     2    3    1 1
     3    4    3 1
     4    5    3 1
     5    6    5 1
     6    7    5 1
     7    8    1 1
     8    9    8 1
     9   10    8 1
    10   11   10 1
    11   12   10 1
    12   13   12 1
    13   14   12 1
    14   15    5 1
    15   16   17 1
    16   18   16 1
    17   19    8 1
    18   20   19 1
    19   21   19 1
    20   22   12 1
    21   23   22 1
    22   24   22 1
    23   25    3 1
    24   26   25 ar
    25   27   26 1
    26   28   25 ar
    27   29   28 1
    28   30   26 ar
    29   31   30 1
    30   32   28 ar
    31   33   32 1
    32   34   30 ar
    33   35   34 1
    34   36   15 2
    35   37   39 2
    36   38   39 2
    37   39    1 1
    38   10   15 1
    39   16   19 1
    40   16   22 1
    41   32   34 ar
@<TRIPOS>SUBSTRUCTURE
     1 RES1 1

@<TRIPOS>CRYSIN
  13.9327    5.8545   18.9127  90.0000 109.4560  90.0000  14 1

