# MOL2 file generated by ConQuest
# Please check atom types

@<TRIPOS>MOLECULE
QUFTIW
    37    38     1
SMALL
NO_CHARGES
****
Generated from CSD

@<TRIPOS>ATOM
      1 O1        -3.3527    3.5640    2.5031 O.2       1 RES1    0.0000
      2 O2        -2.4706    1.6311    2.0819 O.2       1 RES1    0.0000
      3 O3        -2.7848    4.3421    7.7955 O.2       1 RES1    0.0000
      4 O4        -3.5835    2.5362    8.9008 O.3       1 RES1    0.0000
      5 N1        -3.0000    2.4398    2.8397 N.pl3     1 RES1    0.0000
      6 C1        -2.9911    2.8605    5.2833 C.ar      1 RES1    0.0000
      7 C2        -3.2806    2.0009    4.2146 C.ar      1 RES1    0.0000
      8 C3        -3.8438    0.7464    4.3365 C.ar      1 RES1    0.0000
      9 H1        -3.9822    0.2012    3.5710 H         1 RES1    0.0000
     10 C4        -4.2020    0.2995    5.5890 C.ar      1 RES1    0.0000
     11 H2        -4.5815   -0.5638    5.7012 H         1 RES1    0.0000
     12 C5        -4.0011    1.1283    6.6876 C.ar      1 RES1    0.0000
     13 H3        -4.2770    0.8374    7.5490 H         1 RES1    0.0000
     14 C6        -3.4017    2.3789    6.5455 C.ar      1 RES1    0.0000
     15 C7        -2.2365    4.1447    5.0902 C.3       1 RES1    0.0000
     16 H4        -1.7950    4.1357    4.2154 H         1 RES1    0.0000
     17 H5        -1.5633    4.2375    5.7950 H         1 RES1    0.0000
     18 H6        -2.8613    4.8995    5.1340 H         1 RES1    0.0000
     19 C8        -3.2169    3.2379    7.7536 C.2       1 RES1    0.0000
     20 O1A       -3.8143    3.5640   15.2984 O.2       1 RES1    0.0000
     21 O2A       -4.6964    1.6311   15.7196 O.2       1 RES1    0.0000
     22 O3A       -4.3822    4.3421   10.0060 O.2       1 RES1    0.0000
     23 N1A       -4.1669    2.4398   14.9618 N.pl3     1 RES1    0.0000
     24 C1A       -4.1759    2.8605   12.5183 C.ar      1 RES1    0.0000
     25 C2A       -3.8864    2.0009   13.5870 C.ar      1 RES1    0.0000
     26 C3A       -3.3232    0.7464   13.4651 C.ar      1 RES1    0.0000
     27 H1A       -3.1848    0.2012   14.2305 H         1 RES1    0.0000
     28 C4A       -2.9650    0.2995   12.2126 C.ar      1 RES1    0.0000
     29 H2A       -2.5855   -0.5638   12.1003 H         1 RES1    0.0000
     30 C5A       -3.1659    1.1283   11.1140 C.ar      1 RES1    0.0000
     31 H3A       -2.8900    0.8374   10.2525 H         1 RES1    0.0000
     32 C6A       -3.7653    2.3789   11.2560 C.ar      1 RES1    0.0000
     33 C7A       -4.9305    4.1447   12.7114 C.3       1 RES1    0.0000
     34 H4A       -5.3720    4.1357   13.5861 H         1 RES1    0.0000
     35 H5A       -5.6037    4.2375   12.0065 H         1 RES1    0.0000
     36 H6A       -4.3057    4.8995   12.6676 H         1 RES1    0.0000
     37 C8A       -3.9501    3.2379   10.0479 C.2       1 RES1    0.0000
@<TRIPOS>BOND
     1    1    5 2
     2    2    5 2
     3    3   19 2
     4    4   19 1
     5    5    7 1
     6    6    7 ar
     7    7    8 ar
     8    8    9 1
     9   10    8 ar
    10   11   10 1
    11   12   10 ar
    12   13   12 1
    13   14    6 ar
    14   15    6 1
    15   16   15 1
    16   17   15 1
    17   18   15 1
    18   19   14 1
    19   20   23 2
    20   21   23 2
    21   22   37 2
    22   23   25 1
    23   24   25 ar
    24   25   26 ar
    25   26   27 1
    26   28   26 ar
    27   29   28 1
    28   30   28 ar
    29   31   30 1
    30   32   24 ar
    31   33   24 1
    32   34   33 1
    33   35   33 1
    34   36   33 1
    35   37    4 1
    36   12   14 ar
    37   30   32 ar
    38   32   37 1
@<TRIPOS>SUBSTRUCTURE
     1 RES1 1

@<TRIPOS>CRYSIN
  10.6332   11.6961   12.7934  90.0000 111.9300  90.0000  15 1

