# MOL2 file generated by ConQuest
# Please check atom types

@<TRIPOS>MOLECULE
QUGLEJ
    31    33     1
SMALL
NO_CHARGES
****
Generated from CSD

@<TRIPOS>ATOM
      1 O1        -2.5630    0.2118    0.5750 O.2       1 RES1    0.0000
      2 O2        -0.5769    4.3230    2.9433 O.2       1 RES1    0.0000
      3 N1        -2.2666    3.2576    2.3131 N.3       1 RES1    0.0000
      4 N2        -1.7704    4.3217    2.8995 N.2       1 RES1    0.0000
      5 C1        -2.7100    1.2772    1.1718 C.2       1 RES1    0.0000
      6 C2        -3.9600    1.9431    1.5326 C.ar      1 RES1    0.0000
      7 C3        -5.2808    1.5808    1.2718 C.ar      1 RES1    0.0000
      8 C4        -6.2699    2.4492    1.6639 C.ar      1 RES1    0.0000
      9 C5        -5.9636    3.6172    2.2998 C.ar      1 RES1    0.0000
     10 C6        -4.6553    3.9994    2.6140 C.ar      1 RES1    0.0000
     11 C7        -3.6625    3.1191    2.1856 C.ar      1 RES1    0.0000
     12 C8        -1.5261    2.1415    1.6678 C.3       1 RES1    0.0000
     13 C9        -0.7334    1.3291    2.6892 C.ar      1 RES1    0.0000
     14 C10        0.4028    0.6313    2.2932 C.ar      1 RES1    0.0000
     15 C11        1.0856   -0.1598    3.2099 C.ar      1 RES1    0.0000
     16 C12        0.6342   -0.2530    4.5206 C.ar      1 RES1    0.0000
     17 C13       -0.5015    0.4448    4.9157 C.ar      1 RES1    0.0000
     18 C14       -1.1848    1.2359    3.9999 C.ar      1 RES1    0.0000
     19 C15       -0.7303    2.6516    0.4683 C.3       1 RES1    0.0000
     20 H1        -5.5900    0.4675    0.9643 H         1 RES1    0.0000
     21 H2        -7.2978    2.1082    1.5164 H         1 RES1    0.0000
     22 H3        -6.7079    4.2271    2.8243 H         1 RES1    0.0000
     23 H4        -4.4525    4.7758    3.1813 H         1 RES1    0.0000
     24 H5         0.7384    0.7458    1.2565 H         1 RES1    0.0000
     25 H6         1.9614   -0.8457    3.1356 H         1 RES1    0.0000
     26 H7         1.0317   -0.8444    5.2450 H         1 RES1    0.0000
     27 H8        -0.7615    0.3489    5.8666 H         1 RES1    0.0000
     28 H9        -1.9659    1.7207    4.2551 H         1 RES1    0.0000
     29 H10       -0.5450    1.9498   -0.0838 H         1 RES1    0.0000
     30 H11       -1.2369    3.2296   -0.1390 H         1 RES1    0.0000
     31 H12        0.1610    3.1311    0.7511 H         1 RES1    0.0000
@<TRIPOS>BOND
     1    1    5 2
     2    2    4 2
     3    3    4 1
     4    5    6 1
     5    6    7 ar
     6    7    8 ar
     7    8    9 ar
     8    9   10 ar
     9   10   11 ar
    10   11    3 1
    11   12    3 1
    12   13   12 1
    13   14   13 ar
    14   15   14 ar
    15   16   15 ar
    16   17   16 ar
    17   18   13 ar
    18   19   12 1
    19   20    7 1
    20   21    8 1
    21   22    9 1
    22   23   10 1
    23   24   14 1
    24   25   15 1
    25   26   16 1
    26   27   17 1
    27   28   18 1
    28   29   19 1
    29   30   19 1
    30   31   19 1
    31    5   12 1
    32    6   11 ar
    33   17   18 ar
@<TRIPOS>SUBSTRUCTURE
     1 RES1 1

@<TRIPOS>CRYSIN
  10.0760   13.3180   10.7210  90.0000 117.3900  90.0000 231 1

