# MOL2 file generated by ConQuest
# Please check atom types

@<TRIPOS>MOLECULE
QUISAL
    20    20     1
SMALL
USER_CHARGES
****
Generated from CSD

@<TRIPOS>ATOM
      1 C1         3.9902    1.3425   -2.2595 C.2       1 RES1    0.0000
      2 C2         4.1853    1.7501   -3.6942 C.3       1 RES1    0.0000
      3 C3         3.2121    2.8704   -4.0707 C.3       1 RES1    0.0000
      4 C4         0.8785    3.1728   -3.2655 C.2       1 RES1    0.0000
      5 C5        -0.0506    2.4050   -5.1562 C.2       1 RES1    0.0000
      6 H1         5.1395    1.9647   -3.7537 H         1 RES1    0.0000
      7 H2         3.1963    0.3483   -4.5212 H         1 RES1    0.0000
      8 H3         4.7304   -0.0348   -4.3488 H         1 RES1    0.0000
      9 H4         4.1313    0.7176   -5.4666 H         1 RES1    0.0000
     10 H5         3.1551    3.7134   -3.4812 H         1 RES1    0.0000
     11 H6         2.9903    3.1421   -5.3108 H         1 RES1    0.0000
     12 H7        -1.1076    3.2745   -3.3923 H         1 RES1    0.0000
     13 N1         3.9743    0.5671   -4.5835 N.4       1 RES1    1.0000
     14 N2         1.8253    2.4141   -3.9289 N.am      1 RES1    0.0000
     15 N3        -0.2496    3.0933   -4.0040 N.am      1 RES1    0.0000
     16 O1         3.4046    0.2689   -2.0187 O.co2     1 RES1    0.0000
     17 O2         4.4077    2.1361   -1.3869 O.co2     1 RES1   -1.0000
     18 O3         1.0834    3.7434   -2.2150 O.2       1 RES1    0.0000
     19 O4        -0.8116    2.1514   -6.0683 O.2       1 RES1    0.0000
     20 O5         1.2562    2.0427   -5.1996 O.3       1 RES1    0.0000
@<TRIPOS>BOND
     1    1    2 1
     2    2    3 1
     3    3   10 1
     4    4   14 1
     5    5   15 1
     6    6    2 1
     7    7   13 1
     8    8   13 1
     9    9   13 1
    10   11    3 1
    11   12   15 1
    12   13    2 1
    13   14    3 1
    14   15    4 1
    15   16    1 2
    16   17    1 1
    17   18    4 2
    18   19    5 2
    19   20    5 1
    20   14   20 1
@<TRIPOS>SUBSTRUCTURE
     1 RES1 1

@<TRIPOS>CRYSIN
   9.8040    6.9670    5.5820  90.0000  94.9600  90.0000   4 1

