# MOL2 file generated by ConQuest
# Please check atom types

@<TRIPOS>MOLECULE
QUJNOZ
    49    51     1
SMALL
NO_CHARGES
****
Generated from CSD

@<TRIPOS>ATOM
      1 C1         5.3856   11.2271    0.2731 C.3       1 RES1    0.0000
      2 H1         4.5331   11.6215    0.0766 H         1 RES1    0.0000
      3 H2         5.8128   10.9612   -0.5446 H         1 RES1    0.0000
      4 H3         5.9371   11.8670    0.7295 H         1 RES1    0.0000
      5 H4         2.3010   10.1402    2.7148 H         1 RES1    0.0000
      6 H5         3.0195   12.1875    3.7807 H         1 RES1    0.0000
      7 H6         2.2234   11.6516    5.1964 H         1 RES1    0.0000
      8 H7         3.0001    9.4220    6.7453 H         1 RES1    0.0000
      9 H8         5.8545   10.2581    4.6301 H         1 RES1    0.0000
     10 H9         4.3982    8.4787    5.6460 H         1 RES1    0.0000
     11 H10        4.5341    9.0040    3.3310 H         1 RES1    0.0000
     12 O1         2.1700    9.1272    4.5501 O.3       1 RES1    0.0000
     13 O2         4.6710   10.5968    2.3534 O.3       1 RES1    0.0000
     14 N1         4.2516   11.3793    5.1364 N.3       1 RES1    0.0000
     15 O3         4.0710   11.2549    6.5504 O.3       1 RES1    0.0000
     16 O4         5.8875    9.2076    7.9594 O.3       1 RES1    0.0000
     17 C2         3.8953    9.8626    6.8585 C.3       1 RES1    0.0000
     18 C3         5.1895   10.0244    1.1475 C.3       1 RES1    0.0000
     19 O5         7.1206    8.6352    6.2273 O.2       1 RES1    0.0000
     20 C4         2.7535   10.0812    3.7257 C.3       1 RES1    0.0000
     21 C5         4.7856    9.1840    5.8642 C.3       1 RES1    0.0000
     22 C6         4.9273   10.1477    4.6984 C.3       1 RES1    0.0000
     23 C7         4.1923    9.7800    3.3776 C.3       1 RES1    0.0000
     24 C8        -0.0534    9.0329    3.5742 C.3       1 RES1    0.0000
     25 H11       -0.4000    9.5924    4.2737 H         1 RES1    0.0000
     26 H12       -0.7359    8.4230    3.2844 H         1 RES1    0.0000
     27 H13        0.2223    9.5806    2.8347 H         1 RES1    0.0000
     28 C9         0.7466    7.4154    5.2913 C.3       1 RES1    0.0000
     29 H14        0.4078    7.9803    5.9891 H         1 RES1    0.0000
     30 H15        1.5263    6.9523    5.6044 H         1 RES1    0.0000
     31 H16        0.0738    6.7787    5.0398 H         1 RES1    0.0000
     32 C10        6.0361    8.9986    6.6653 C.2       1 RES1    0.0000
     33 C11        4.4856    9.6224    8.2126 C.3       1 RES1    0.0000
     34 H17        4.4574   10.4307    8.7472 H         1 RES1    0.0000
     35 H18        4.0001    8.9236    8.6773 H         1 RES1    0.0000
     36 C12        1.1136    8.2654    4.0855 C.3       1 RES1    0.0000
     37 C13        6.5109    9.3416    1.4357 C.3       1 RES1    0.0000
     38 H19        7.1672   10.0008    1.6722 H         1 RES1    0.0000
     39 H20        6.8021    8.8646    0.6545 H         1 RES1    0.0000
     40 H21        6.4002    8.7253    2.1635 H         1 RES1    0.0000
     41 C14        1.6651    7.3929    2.9762 C.3       1 RES1    0.0000
     42 H22        2.4166    6.8934    3.3044 H         1 RES1    0.0000
     43 H23        1.9447    7.9460    2.2434 H         1 RES1    0.0000
     44 H24        0.9835    6.7862    2.6765 H         1 RES1    0.0000
     45 C15        2.8904   11.3932    4.4386 C.3       1 RES1    0.0000
     46 C16        4.1972    9.0618    0.5296 C.3       1 RES1    0.0000
     47 H25        3.3982    9.5356    0.2865 H         1 RES1    0.0000
     48 H26        3.9807    8.3737    1.1625 H         1 RES1    0.0000
     49 H27        4.5826    8.6631   -0.2548 H         1 RES1    0.0000
@<TRIPOS>BOND
     1    1    2 1
     2    3    1 1
     3    4    1 1
     4    5   20 1
     5    6   45 1
     6    7   45 1
     7    8   17 1
     8    9   22 1
     9   10   21 1
    10   11   23 1
    11   12   20 1
    12   13   18 1
    13   14   15 1
    14   15   17 1
    15   16   32 1
    16   17   21 1
    17   18    1 1
    18   19   32 2
    19   20   23 1
    20   21   22 1
    21   22   14 1
    22   23   13 1
    23   24   25 1
    24   26   24 1
    25   27   24 1
    26   28   29 1
    27   30   28 1
    28   31   28 1
    29   32   21 1
    30   33   16 1
    31   34   33 1
    32   35   33 1
    33   36   12 1
    34   37   18 1
    35   38   37 1
    36   39   37 1
    37   40   37 1
    38   41   36 1
    39   42   41 1
    40   43   41 1
    41   44   41 1
    42   45   14 1
    43   46   18 1
    44   47   46 1
    45   48   46 1
    46   49   46 1
    47   17   33 1
    48   20   45 1
    49   22   23 1
    50   24   36 1
    51   28   36 1
@<TRIPOS>SUBSTRUCTURE
     1 RES1 1

@<TRIPOS>CRYSIN
   9.7090   10.7190   16.6550  90.0000  90.0000  90.0000  19 1

