# MOL2 file generated by ConQuest
# Please check atom types

@<TRIPOS>MOLECULE
QUMMOB
    61    66     1
SMALL
NO_CHARGES
****
Generated from CSD

@<TRIPOS>ATOM
      1 N1         3.3233    9.1190   17.9756 N.pl3     1 RES1    0.0000
      2 O1         2.8200   14.3419   21.4536 O.3       1 RES1    0.0000
      3 O2         4.4712   13.2514   22.5517 O.3       1 RES1    0.0000
      4 O3         4.8515   14.2919   25.1425 O.3       1 RES1    0.0000
      5 O4         4.1465   17.3912   25.5700 O.3       1 RES1    0.0000
      6 O5         5.1989   15.8607   26.8183 O.3       1 RES1    0.0000
      7 O6         2.2356    9.0722   17.4248 O.2       1 RES1    0.0000
      8 O7         4.0731    8.1613   18.0287 O.2       1 RES1    0.0000
      9 O8         2.6977   16.5394   23.4455 O.3       1 RES1    0.0000
     10 C1         4.2408   14.3273   21.6652 C.3       1 RES1    0.0000
     11 C2         4.6754   15.6194   22.3301 C.3       1 RES1    0.0000
     12 H1         4.5065   16.3578   21.7235 H         1 RES1    0.0000
     13 H2         5.6305   15.5830   22.4924 H         1 RES1    0.0000
     14 C3         3.9549   15.8915   23.6569 C.3       1 RES1    0.0000
     15 C4         3.6582   14.5680   24.4017 C.3       1 RES1    0.0000
     16 H3         2.9036   14.6901   25.0156 H         1 RES1    0.0000
     17 C5         3.3955   13.3856   23.4853 C.3       1 RES1    0.0000
     18 H4         3.2672   12.5615   23.9992 H         1 RES1    0.0000
     19 C6         2.2308   13.6325   22.5429 C.3       1 RES1    0.0000
     20 H5         1.8422   12.7960   22.2425 H         1 RES1    0.0000
     21 H6         1.5425   14.1644   22.9732 H         1 RES1    0.0000
     22 C7         4.8825   16.6208   24.6379 C.3       1 RES1    0.0000
     23 H7         5.5702   17.1471   24.1801 H         1 RES1    0.0000
     24 C8         5.4843   15.4906   25.4927 C.3       1 RES1    0.0000
     25 H8         6.4513   15.4261   25.3513 H         1 RES1    0.0000
     26 C9         4.7840   17.2225   26.8307 C.3       1 RES1    0.0000
     27 C10        3.7728   17.4336   27.9097 C.3       1 RES1    0.0000
     28 H9         2.9920   16.9077   27.7245 H         1 RES1    0.0000
     29 H10        3.5322   18.3619   27.9459 H         1 RES1    0.0000
     30 H11        4.1453   17.1665   28.7529 H         1 RES1    0.0000
     31 C11        5.9726   18.1484   26.9626 C.3       1 RES1    0.0000
     32 H12        5.6735   19.0606   26.9271 H         1 RES1    0.0000
     33 H13        6.5869   17.9850   26.2439 H         1 RES1    0.0000
     34 H14        6.4114   17.9882   27.8007 H         1 RES1    0.0000
     35 C12        4.9422   14.0726   20.3431 C.3       1 RES1    0.0000
     36 H15        4.7423   14.8017   19.7359 H         1 RES1    0.0000
     37 H16        5.9009   14.0658   20.4905 H         1 RES1    0.0000
     38 C13        4.5381   12.7721   19.6983 C.ar      1 RES1    0.0000
     39 C14        5.3201   11.6429   19.8235 C.ar      1 RES1    0.0000
     40 H17        6.1176   11.6897   20.3001 H         1 RES1    0.0000
     41 C15        4.9387   10.4442   19.2539 C.ar      1 RES1    0.0000
     42 H18        5.4819    9.6921   19.3241 H         1 RES1    0.0000
     43 C16        3.7465   10.3805   18.5814 C.ar      1 RES1    0.0000
     44 C17        2.9412   11.4876   18.4398 C.ar      1 RES1    0.0000
     45 H19        2.1365   11.4325   17.9768 H         1 RES1    0.0000
     46 C18        3.3513   12.6747   18.9958 C.ar      1 RES1    0.0000
     47 H20        2.8177   13.4301   18.8980 H         1 RES1    0.0000
     48 C19        2.7932   17.9101   23.0661 C.3       1 RES1    0.0000
     49 H21        3.6367   18.0626   22.6114 H         1 RES1    0.0000
     50 H22        2.7741   18.4686   23.8587 H         1 RES1    0.0000
     51 C20        1.6566   18.2879   22.1577 C.ar      1 RES1    0.0000
     52 C21        1.3730   17.5612   21.0161 C.ar      1 RES1    0.0000
     53 H23        1.8762   16.8058   20.8142 H         1 RES1    0.0000
     54 C22        0.3516   17.9458   20.1753 C.ar      1 RES1    0.0000
     55 H24        0.1671   17.4496   19.4098 H         1 RES1    0.0000
     56 C23       -0.4000   19.0715   20.4683 C.ar      1 RES1    0.0000
     57 H25       -1.0895   19.3340   19.9025 H         1 RES1    0.0000
     58 C24       -0.1206   19.7959   21.5971 C.ar      1 RES1    0.0000
     59 H26       -0.6226   20.5520   21.8021 H         1 RES1    0.0000
     60 C25        0.9026   19.4053   22.4269 C.ar      1 RES1    0.0000
     61 H27        1.0889   19.9082   23.1875 H         1 RES1    0.0000
@<TRIPOS>BOND
     1    1    7 2
     2    2   10 1
     3    3   10 1
     4    4   15 1
     5    5   22 1
     6    6   24 1
     7    8    1 2
     8    9   14 1
     9   10   11 1
    10   11   12 1
    11   13   11 1
    12   14   11 1
    13   15   14 1
    14   16   15 1
    15   17    3 1
    16   18   17 1
    17   19    2 1
    18   20   19 1
    19   21   19 1
    20   22   14 1
    21   23   22 1
    22   24    4 1
    23   25   24 1
    24   26    5 1
    25   27   26 1
    26   28   27 1
    27   29   27 1
    28   30   27 1
    29   31   26 1
    30   32   31 1
    31   33   31 1
    32   34   31 1
    33   35   10 1
    34   36   35 1
    35   37   35 1
    36   38   35 1
    37   39   38 ar
    38   40   39 1
    39   41   39 ar
    40   42   41 1
    41   43    1 1
    42   44   43 ar
    43   45   44 1
    44   46   38 ar
    45   47   46 1
    46   48    9 1
    47   49   48 1
    48   50   48 1
    49   51   48 1
    50   52   51 ar
    51   53   52 1
    52   54   52 ar
    53   55   54 1
    54   56   54 ar
    55   57   56 1
    56   58   56 ar
    57   59   58 1
    58   60   51 ar
    59   61   60 1
    60    6   26 1
    61   15   17 1
    62   17   19 1
    63   22   24 1
    64   41   43 ar
    65   44   46 ar
    66   58   60 ar
@<TRIPOS>SUBSTRUCTURE
     1 RES1 1

@<TRIPOS>CRYSIN
   5.9696   16.1750   23.8040  90.0000  90.0000  90.0000  19 1

