# MOL2 file generated by ConQuest
# Please check atom types

@<TRIPOS>MOLECULE
QUMMER
    47    50     1
SMALL
NO_CHARGES
****
Generated from CSD

@<TRIPOS>ATOM
      1 O1         3.5959    4.4994   16.8845 O.3       1 RES1    0.0000
      2 O2         1.7552    5.0239   15.6999 O.3       1 RES1    0.0000
      3 O3         1.2277    3.5842   13.4458 O.3       1 RES1    0.0000
      4 H1         0.8004    3.4157   14.1258 H         1 RES1    0.0000
      5 O4         4.4024    3.2665   15.1080 O.3       1 RES1    0.0000
      6 O5         4.1852    1.7625   12.5071 O.3       1 RES1    0.0000
      7 O6         2.2023    2.1832   11.3378 O.3       1 RES1    0.0000
      8 H2         1.7673    2.0198   12.0127 H         1 RES1    0.0000
      9 O7         1.6042    1.0835    6.5262 O.2       1 RES1    0.0000
     10 O8         2.0149   -0.9664    6.4015 O.2       1 RES1    0.0000
     11 N1         2.2315    0.1251    6.8456 N.pl3     1 RES1    0.0000
     12 C1         4.0330    4.5625   15.5401 C.3       1 RES1    0.0000
     13 H3         4.7690    5.2000   15.4313 H         1 RES1    0.0000
     14 C2         2.8070    4.9829   14.7408 C.3       1 RES1    0.0000
     15 H4         2.9305    5.8371   14.2769 H         1 RES1    0.0000
     16 C3         2.5860    3.8214   13.7876 C.3       1 RES1    0.0000
     17 C4         3.2144    2.6624   14.5645 C.3       1 RES1    0.0000
     18 H5         2.6185    2.4000   15.2976 H         1 RES1    0.0000
     19 C5         3.5529    1.4533   13.7392 C.3       1 RES1    0.0000
     20 H6         4.1372    0.8757   14.2556 H         1 RES1    0.0000
     21 H7         2.7370    0.9597   13.5583 H         1 RES1    0.0000
     22 C6         3.3235    3.9992   12.4634 C.3       1 RES1    0.0000
     23 H8         2.8423    4.6371   11.9139 H         1 RES1    0.0000
     24 H9         4.2061    4.3622   12.6363 H         1 RES1    0.0000
     25 C7         3.4625    2.6924   11.7035 C.3       1 RES1    0.0000
     26 C8         4.2899    2.8385   10.4341 C.3       1 RES1    0.0000
     27 H10        3.9437    3.5836    9.9189 H         1 RES1    0.0000
     28 H11        5.2044    3.0502   10.6801 H         1 RES1    0.0000
     29 C9         4.2910    1.6010    9.5633 C.ar      1 RES1    0.0000
     30 C10        3.3142    1.4408    8.5973 C.ar      1 RES1    0.0000
     31 H12        2.6924    2.1136    8.4371 H         1 RES1    0.0000
     32 C11        3.2783    0.2681    7.8762 C.ar      1 RES1    0.0000
     33 C12        4.1686   -0.7600    8.0602 C.ar      1 RES1    0.0000
     34 H13        4.1063   -1.5506    7.5752 H         1 RES1    0.0000
     35 C13        5.1587   -0.5646    8.9975 C.ar      1 RES1    0.0000
     36 H14        5.7987   -1.2263    9.1305 H         1 RES1    0.0000
     37 C14        5.2182    0.5923    9.7393 C.ar      1 RES1    0.0000
     38 H15        5.8941    0.6963   10.3702 H         1 RES1    0.0000
     39 C15        2.3445    5.1760   16.9868 C.3       1 RES1    0.0000
     40 C16        1.4708    4.4593   17.9717 C.3       1 RES1    0.0000
     41 H16        1.3649    3.5457   17.6994 H         1 RES1    0.0000
     42 H17        0.6108    4.8856   18.0054 H         1 RES1    0.0000
     43 H18        1.8765    4.4906   18.8402 H         1 RES1    0.0000
     44 C17        2.5711    6.6420   17.3019 C.3       1 RES1    0.0000
     45 H19        1.7442    7.1210   17.2094 H         1 RES1    0.0000
     46 H20        3.2194    7.0042   16.6941 H         1 RES1    0.0000
     47 H21        2.8936    6.7293   18.2030 H         1 RES1    0.0000
@<TRIPOS>BOND
     1    1   12 1
     2    2   14 1
     3    3    4 1
     4    5   12 1
     5    6   19 1
     6    7    8 1
     7    9   11 2
     8   10   11 2
     9   11   32 1
    10   12   13 1
    11   14   12 1
    12   15   14 1
    13   16    3 1
    14   17    5 1
    15   18   17 1
    16   19   17 1
    17   20   19 1
    18   21   19 1
    19   22   16 1
    20   23   22 1
    21   24   22 1
    22   25    6 1
    23   26   25 1
    24   27   26 1
    25   28   26 1
    26   29   26 1
    27   30   29 ar
    28   31   30 1
    29   32   30 ar
    30   33   32 ar
    31   34   33 1
    32   35   33 ar
    33   36   35 1
    34   37   29 ar
    35   38   37 1
    36   39    1 1
    37   40   39 1
    38   41   40 1
    39   42   40 1
    40   43   40 1
    41   44   39 1
    42   45   44 1
    43   46   44 1
    44   47   44 1
    45    2   39 1
    46    7   25 1
    47   14   16 1
    48   16   17 1
    49   22   25 1
    50   35   37 ar
@<TRIPOS>SUBSTRUCTURE
     1 RES1 1

@<TRIPOS>CRYSIN
   5.5126   16.4610   19.3690  90.0000  90.0000  90.0000  19 1

