# MOL2 file generated by ConQuest
# Please check atom types

@<TRIPOS>MOLECULE
QUMYII
    35    35     1
SMALL
NO_CHARGES
****
Generated from CSD

@<TRIPOS>ATOM
      1 O1         5.1914    1.7780   10.9529 O.3       1 RES1    0.0000
      2 O2         2.5742    4.3752    3.4231 O.2       1 RES1    0.0000
      3 O3         3.6172    4.5434    9.5802 O.2       1 RES1    0.0000
      4 O4         0.9359    9.3345    6.7244 O.2       1 RES1    0.0000
      5 O5         2.0088    8.9980    8.5577 O.2       1 RES1    0.0000
      6 O6         1.6910    6.2881    3.0230 O.2       1 RES1    0.0000
      7 O7         3.5235    1.4938    9.4883 O.2       1 RES1    0.0000
      8 N1         4.6911    3.5020    7.9151 N.am      1 RES1    0.0000
      9 H1         4.7677    3.4100    7.0632 H         1 RES1    0.0000
     10 N2         2.1731    5.4642    3.7750 N.pl3     1 RES1    0.0000
     11 N3         1.6625    8.6646    7.4406 N.pl3     1 RES1    0.0000
     12 C1         4.4606    1.0049   11.9256 C.3       1 RES1    0.0000
     13 H2         3.5738    1.3621   12.0175 H         1 RES1    0.0000
     14 H3         4.9114    1.0478   12.7722 H         1 RES1    0.0000
     15 H4         4.4094    0.0921   11.6358 H         1 RES1    0.0000
     16 C2         4.5983    1.9447    9.7676 C.2       1 RES1    0.0000
     17 C3         5.5252    2.6734    8.7949 C.3       1 RES1    0.0000
     18 C4         3.8218    4.3894    8.3878 C.2       1 RES1    0.0000
     19 C5         3.1285    5.2546    7.3758 C.ar      1 RES1    0.0000
     20 C6         2.9363    4.9117    6.0486 C.ar      1 RES1    0.0000
     21 H5         3.2071    4.0783    5.7334 H         1 RES1    0.0000
     22 C7         2.3370    5.8245    5.1950 C.ar      1 RES1    0.0000
     23 C8         6.5839    3.5274    9.4769 C.3       1 RES1    0.0000
     24 H6         7.1252    3.9576    8.8116 H         1 RES1    0.0000
     25 H7         7.1380    2.9702   10.0284 H         1 RES1    0.0000
     26 H8         6.1565    4.1926   10.0223 H         1 RES1    0.0000
     27 C9         2.6900    6.4929    7.8310 C.ar      1 RES1    0.0000
     28 H9         2.7973    6.7326    8.7231 H         1 RES1    0.0000
     29 C10        2.0944    7.3565    6.9424 C.ar      1 RES1    0.0000
     30 C11        1.8929    7.0596    5.6074 C.ar      1 RES1    0.0000
     31 H10        1.4832    7.6581    5.0252 H         1 RES1    0.0000
     32 C12        6.1847    1.6129    7.9291 C.3       1 RES1    0.0000
     33 H11        5.5088    1.0732    7.5141 H         1 RES1    0.0000
     34 H12        6.7478    1.0589    8.4745 H         1 RES1    0.0000
     35 H13        6.7158    2.0384    7.2515 H         1 RES1    0.0000
@<TRIPOS>BOND
     1    1   12 1
     2    2   10 2
     3    3   18 2
     4    4   11 2
     5    5   11 2
     6    6   10 2
     7    7   16 2
     8    8    9 1
     9   10   22 1
    10   11   29 1
    11   12   13 1
    12   14   12 1
    13   15   12 1
    14   16    1 1
    15   17    8 1
    16   18    8 1
    17   19   18 1
    18   20   19 ar
    19   21   20 1
    20   22   20 ar
    21   23   17 1
    22   24   23 1
    23   25   23 1
    24   26   23 1
    25   27   19 ar
    26   28   27 1
    27   29   27 ar
    28   30   22 ar
    29   31   30 1
    30   32   17 1
    31   33   32 1
    32   34   32 1
    33   35   32 1
    34   16   17 1
    35   29   30 ar
@<TRIPOS>SUBSTRUCTURE
     1 RES1 1

@<TRIPOS>CRYSIN
  10.0560   15.8750    9.7090  90.0000 115.6170  90.0000  14 1

