# MOL2 file generated by ConQuest
# Please check atom types

@<TRIPOS>MOLECULE
QUMYOO
    38    38     1
SMALL
NO_CHARGES
****
Generated from CSD

@<TRIPOS>ATOM
      1 O1         3.4348    2.8668   10.7785 O.2       1 RES1    0.0000
      2 O2         1.6844    4.2190    1.6385 O.3       1 RES1    0.0000
      3 O3         1.7661    1.6662   10.0755 O.2       1 RES1    0.0000
      4 O4         6.1843    5.3116    7.4906 O.2       1 RES1    0.0000
      5 O5         5.2905    5.6269    5.5467 O.2       1 RES1    0.0000
      6 O6         0.9139    1.1933    5.1818 O.2       1 RES1    0.0000
      7 O7         0.1155    2.9687    2.5825 O.2       1 RES1    0.0000
      8 O8         2.7779   -0.7373    1.0640 O.3       1 RES1    0.0000
      9 O9         4.0159   -0.7009    2.9233 O.2       1 RES1    0.0000
     10 N1         2.7290    2.4011    9.8839 N.pl3     1 RES1    0.0000
     11 N2         2.7397    1.5341    3.8602 N.am      1 RES1    0.0000
     12 H1         3.5322    1.8651    3.8206 H         1 RES1    0.0000
     13 N3         5.3400    5.0776    6.6397 N.pl3     1 RES1    0.0000
     14 C1         3.0892    2.7528    8.4686 C.ar      1 RES1    0.0000
     15 C2         2.4196    2.0980    7.4433 C.ar      1 RES1    0.0000
     16 H2         1.7646    1.4662    7.6330 H         1 RES1    0.0000
     17 C3         2.7461    2.4060    6.1203 C.ar      1 RES1    0.0000
     18 C4         2.0476    1.6420    5.0126 C.2       1 RES1    0.0000
     19 C5         2.1959    0.8792    2.6766 C.3       1 RES1    0.0000
     20 H3         1.3187    0.5081    2.9064 H         1 RES1    0.0000
     21 C6         2.0065    1.9003    1.5266 C.3       1 RES1    0.0000
     22 H4         2.8734    2.2241    1.2362 H         1 RES1    0.0000
     23 H5         1.5816    1.4625    0.7723 H         1 RES1    0.0000
     24 C7         1.1596    3.0621    1.9758 C.2       1 RES1    0.0000
     25 C8         0.9203    5.3965    2.0959 C.3       1 RES1    0.0000
     26 H6        -0.0039    5.2862    1.8694 H         1 RES1    0.0000
     27 H7         1.2644    6.1848    1.6647 H         1 RES1    0.0000
     28 H8         1.0118    5.4863    3.0456 H         1 RES1    0.0000
     29 C9         3.6918    3.4174    5.8671 C.ar      1 RES1    0.0000
     30 H9         3.8905    3.6696    4.9941 H         1 RES1    0.0000
     31 C10        4.3228    4.0334    6.9393 C.ar      1 RES1    0.0000
     32 C11        4.0531    3.7266    8.2487 C.ar      1 RES1    0.0000
     33 H10        4.4921    4.1486    8.9511 H         1 RES1    0.0000
     34 C12        3.1108   -0.2753    2.2569 C.2       1 RES1    0.0000
     35 C13        3.6639   -1.8336    0.6004 C.3       1 RES1    0.0000
     36 H11        4.5803   -1.5583    0.6741 H         1 RES1    0.0000
     37 H12        3.4652   -2.0398   -0.3166 H         1 RES1    0.0000
     38 H13        3.5185   -2.6134    1.1435 H         1 RES1    0.0000
@<TRIPOS>BOND
     1    1   10 2
     2    2   24 1
     3    3   10 2
     4    4   13 2
     5    5   13 2
     6    6   18 2
     7    7   24 2
     8    8   34 1
     9    9   34 2
    10   10   14 1
    11   11   12 1
    12   13   31 1
    13   14   15 ar
    14   15   16 1
    15   17   15 ar
    16   18   11 1
    17   19   11 1
    18   20   19 1
    19   21   19 1
    20   22   21 1
    21   23   21 1
    22   24   21 1
    23   25    2 1
    24   26   25 1
    25   27   25 1
    26   28   25 1
    27   29   17 ar
    28   30   29 1
    29   31   29 ar
    30   32   14 ar
    31   33   32 1
    32   34   19 1
    33   35    8 1
    34   36   35 1
    35   37   35 1
    36   38   35 1
    37   17   18 1
    38   31   32 ar
@<TRIPOS>SUBSTRUCTURE
     1 RES1 1

@<TRIPOS>CRYSIN
   4.8950   12.1270   27.2900  90.0000  90.0000  90.0000  19 1

