# MOL2 file generated by ConQuest
# Please check atom types

@<TRIPOS>MOLECULE
QUNDOT
    60    63     1
SMALL
NO_CHARGES
****
Generated from CSD

@<TRIPOS>ATOM
      1 N1         6.6298    0.6566    2.5500 N.3       1 RES1    0.0000
      2 O1         6.6338    4.0015    3.9705 O.3       1 RES1    0.0000
      3 O2         8.1468    4.3157    5.7130 O.3       1 RES1    0.0000
      4 O3         6.8345    2.9815    6.9837 O.3       1 RES1    0.0000
      5 O4         3.8270    3.9324    5.2429 O.3       1 RES1    0.0000
      6 O5         4.1428    2.3867    3.5890 O.3       1 RES1    0.0000
      7 O6         7.6589    0.0953    3.4187 O.3       1 RES1    0.0000
      8 H1         7.5674   -0.7383    3.4582 H         1 RES1    0.0000
      9 C1         6.8118    4.5094    5.2618 C.3       1 RES1    0.0000
     10 H2         6.6200    5.4907    5.2492 H         1 RES1    0.0000
     11 C2         5.9087    3.8455    6.3242 C.3       1 RES1    0.0000
     12 H3         5.5457    4.5272    6.9583 H         1 RES1    0.0000
     13 C3         4.8009    3.0098    5.7447 C.3       1 RES1    0.0000
     14 H4         4.4005    2.4202    6.4481 H         1 RES1    0.0000
     15 C4         5.2269    2.1845    4.5269 C.3       1 RES1    0.0000
     16 H5         5.2584    1.2179    4.7830 H         1 RES1    0.0000
     17 C5         6.5511    2.5804    3.9726 C.3       1 RES1    0.0000
     18 H6         7.2565    2.2338    4.5899 H         1 RES1    0.0000
     19 C6         6.8787    2.0924    2.5700 C.3       1 RES1    0.0000
     20 H7         6.2206    2.5155    1.9464 H         1 RES1    0.0000
     21 C7         8.2718    2.5647    2.1471 C.3       1 RES1    0.0000
     22 H8         8.4902    3.3847    2.6582 H         1 RES1    0.0000
     23 H9         8.9270    1.8704    2.4083 H         1 RES1    0.0000
     24 C8         8.4508    2.8558    0.7034 C.2       1 RES1    0.0000
     25 H10        7.6146    2.5113    0.4115 H         1 RES1    0.0000
     26 C9         8.7558    3.1145   -0.1218 C.2       1 RES1    0.0000
     27 H11        9.6107    3.5208   -0.2037 H         1 RES1    0.0000
     28 H12        8.2177    2.9773   -0.8924 H         1 RES1    0.0000
     29 C10        6.8364    0.0220    1.2283 C.3       1 RES1    0.0000
     30 H13        7.7779    0.1477    0.9512 H         1 RES1    0.0000
     31 H14        6.2599    0.4702    0.5606 H         1 RES1    0.0000
     32 C11        6.5196   -1.4483    1.2451 C.ar      1 RES1    0.0000
     33 C12        5.2378   -1.9039    1.0351 C.ar      1 RES1    0.0000
     34 H15        4.5412   -1.2871    0.8441 H         1 RES1    0.0000
     35 C13        4.9623   -3.2517    1.1002 C.ar      1 RES1    0.0000
     36 H16        4.0749   -3.5627    0.9637 H         1 RES1    0.0000
     37 C14        5.9677   -4.1439    1.3585 C.ar      1 RES1    0.0000
     38 H17        5.7887   -5.0760    1.3984 H         1 RES1    0.0000
     39 C15        7.2349   -3.6685    1.5580 C.ar      1 RES1    0.0000
     40 H18        7.9334   -4.2853    1.7406 H         1 RES1    0.0000
     41 C16        7.5261   -2.3343    1.5034 C.ar      1 RES1    0.0000
     42 H19        8.4144   -2.0285    1.6419 H         1 RES1    0.0000
     43 C17        8.1144    3.5805    6.9478 C.3       1 RES1    0.0000
     44 C18        9.1582    2.5155    6.9247 C.3       1 RES1    0.0000
     45 H20       10.0466    2.9291    6.9289 H         1 RES1    0.0000
     46 H21        9.0539    1.9730    6.1163 H         1 RES1    0.0000
     47 H22        9.0588    1.9458    7.7163 H         1 RES1    0.0000
     48 C19        8.2934    4.5722    8.0959 C.3       1 RES1    0.0000
     49 H23        9.1975    4.9493    8.0648 H         1 RES1    0.0000
     50 H24        8.1616    4.1104    8.9509 H         1 RES1    0.0000
     51 H25        7.6353    5.2938    8.0102 H         1 RES1    0.0000
     52 C20        3.2859    3.4287    4.0335 C.3       1 RES1    0.0000
     53 C21        3.2456    4.5482    3.0529 C.3       1 RES1    0.0000
     54 H26        2.6071    5.2268    3.3574 H         1 RES1    0.0000
     55 H27        2.9642    4.2068    2.1774 H         1 RES1    0.0000
     56 H28        4.1369    4.9482    2.9773 H         1 RES1    0.0000
     57 C22        1.9145    2.8516    4.3085 C.3       1 RES1    0.0000
     58 H29        1.3124    3.5669    4.6046 H         1 RES1    0.0000
     59 H30        1.9814    2.1699    5.0098 H         1 RES1    0.0000
     60 H31        1.5613    2.4443    3.4897 H         1 RES1    0.0000
@<TRIPOS>BOND
     1    1    7 1
     2    2    9 1
     3    3    9 1
     4    4   11 1
     5    5   13 1
     6    6   15 1
     7    7    8 1
     8    9   10 1
     9   11    9 1
    10   12   11 1
    11   13   11 1
    12   14   13 1
    13   15   13 1
    14   16   15 1
    15   17    2 1
    16   18   17 1
    17   19    1 1
    18   20   19 1
    19   21   19 1
    20   22   21 1
    21   23   21 1
    22   24   21 1
    23   25   24 1
    24   26   24 2
    25   27   26 1
    26   28   26 1
    27   29    1 1
    28   30   29 1
    29   31   29 1
    30   32   29 1
    31   33   32 ar
    32   34   33 1
    33   35   33 ar
    34   36   35 1
    35   37   35 ar
    36   38   37 1
    37   39   37 ar
    38   40   39 1
    39   41   32 ar
    40   42   41 1
    41   43    3 1
    42   44   43 1
    43   45   44 1
    44   46   44 1
    45   47   44 1
    46   48   43 1
    47   49   48 1
    48   50   48 1
    49   51   48 1
    50   52    5 1
    51   53   52 1
    52   54   53 1
    53   55   53 1
    54   56   53 1
    55   57   52 1
    56   58   57 1
    57   59   57 1
    58   60   57 1
    59    4   43 1
    60    6   52 1
    61   15   17 1
    62   17   19 1
    63   39   41 ar
@<TRIPOS>SUBSTRUCTURE
     1 RES1 1

@<TRIPOS>CRYSIN
   9.8380   10.4724   20.9967  90.0000  90.0000  90.0000  19 1

