# MOL2 file generated by ConQuest
# Please check atom types

@<TRIPOS>MOLECULE
QUNDUZ
    58    63     1
SMALL
NO_CHARGES
****
Generated from CSD

@<TRIPOS>ATOM
      1 N1         8.5474   -3.1921    2.5928 N.3       1 RES1    0.0000
      2 O1         9.2847    0.3498    1.9324 O.3       1 RES1    0.0000
      3 O2        11.5019    0.8858    2.3074 O.3       1 RES1    0.0000
      4 O3         9.8558   -3.7312    2.2211 O.3       1 RES1    0.0000
      5 O4         7.6700    1.6997    4.1128 O.3       1 RES1    0.0000
      6 O5        11.1353    0.8533    4.5404 O.3       1 RES1    0.0000
      7 O6         7.0201   -0.4512    3.7871 O.3       1 RES1    0.0000
      8 C1         5.6933    1.3137    2.8792 C.3       1 RES1    0.0000
      9 H1         5.3578    2.1960    3.0499 H         1 RES1    0.0000
     10 H2         4.9567    0.7091    2.7600 H         1 RES1    0.0000
     11 H3         6.2307    1.3239    2.0839 H         1 RES1    0.0000
     12 C2         8.5700   -1.8895    1.8564 C.3       1 RES1    0.0000
     13 H4         7.6631   -1.6322    1.5884 H         1 RES1    0.0000
     14 C3        12.9293    2.2444    3.6680 C.3       1 RES1    0.0000
     15 H5        13.6262    2.2623    3.0072 H         1 RES1    0.0000
     16 H6        13.3172    2.3226    4.5431 H         1 RES1    0.0000
     17 H7        12.3279    2.9773    3.5181 H         1 RES1    0.0000
     18 C4         6.5260    0.8636    4.0377 C.3       1 RES1    0.0000
     19 C5         8.7534    0.8866    4.5541 C.3       1 RES1    0.0000
     20 H8         8.7938    0.8730    5.5331 H         1 RES1    0.0000
     21 C6         7.6790   -4.1679    1.8520 C.3       1 RES1    0.0000
     22 H9         7.7371   -5.0171    2.3377 H         1 RES1    0.0000
     23 C7        12.1696    0.9358    3.5651 C.3       1 RES1    0.0000
     24 C8        10.1552    1.3095    2.4767 C.3       1 RES1    0.0000
     25 H10       10.0232    2.1655    2.0172 H         1 RES1    0.0000
     26 C9         9.7156   -3.6303    0.7800 C.3       1 RES1    0.0000
     27 H11       10.4871   -3.9615    0.2757 H         1 RES1    0.0000
     28 C10        8.4228   -0.4985    4.0169 C.3       1 RES1    0.0000
     29 H12        8.6207   -1.1710    4.7017 H         1 RES1    0.0000
     30 C11        6.2253   -3.7917    1.8236 C.ar      1 RES1    0.0000
     31 C12        9.1775   -0.8280    2.7534 C.3       1 RES1    0.0000
     32 H13       10.0823   -1.1142    3.0007 H         1 RES1    0.0000
     33 C13       10.0081    1.5167    3.9808 C.3       1 RES1    0.0000
     34 H14       10.0364    2.4720    4.1952 H         1 RES1    0.0000
     35 C14        5.7717    0.8857    5.3417 C.3       1 RES1    0.0000
     36 H15        5.4315    1.7689    5.4992 H         1 RES1    0.0000
     37 H16        6.3626    0.6386    6.0571 H         1 RES1    0.0000
     38 H17        5.0420    0.2641    5.3001 H         1 RES1    0.0000
     39 C15        5.6263   -3.3119    2.9832 C.ar      1 RES1    0.0000
     40 H18        6.1449   -3.1709    3.7424 H         1 RES1    0.0000
     41 C16        9.4468   -2.1434    0.6104 C.3       1 RES1    0.0000
     42 H19        8.9671   -1.9557   -0.2122 H         1 RES1    0.0000
     43 H20       10.2654   -1.6237    0.6334 H         1 RES1    0.0000
     44 C17        5.4127   -3.9972    0.7264 C.ar      1 RES1    0.0000
     45 H21        5.7854   -4.3250   -0.0591 H         1 RES1    0.0000
     46 C18        3.4804   -3.2558    1.9155 C.ar      1 RES1    0.0000
     47 H22        2.5667   -3.0826    1.9472 H         1 RES1    0.0000
     48 C19        4.2740   -3.0418    3.0247 C.ar      1 RES1    0.0000
     49 H23        3.8930   -2.7123    3.8069 H         1 RES1    0.0000
     50 C20       13.0431   -0.2709    3.7052 C.3       1 RES1    0.0000
     51 H24       13.7446   -0.2361    3.0510 H         1 RES1    0.0000
     52 H25       12.5176   -1.0632    3.5684 H         1 RES1    0.0000
     53 H26       13.4267   -0.2887    4.5847 H         1 RES1    0.0000
     54 C21        8.4207   -4.3793    0.5076 C.3       1 RES1    0.0000
     55 H27        8.5813   -5.3194    0.3315 H         1 RES1    0.0000
     56 H28        7.9327   -3.9904   -0.2352 H         1 RES1    0.0000
     57 C22        4.0632   -3.7280    0.7668 C.ar      1 RES1    0.0000
     58 H29        3.5413   -3.8673    0.0098 H         1 RES1    0.0000
@<TRIPOS>BOND
     1    1    4 1
     2    2   24 1
     3    3   23 1
     4    4   26 1
     5    5   18 1
     6    6   23 1
     7    7   18 1
     8    8    9 1
     9   10    8 1
    10   11    8 1
    11   12    1 1
    12   13   12 1
    13   14   15 1
    14   16   14 1
    15   17   14 1
    16   18    8 1
    17   19    5 1
    18   20   19 1
    19   21    1 1
    20   22   21 1
    21   23   14 1
    22   24    3 1
    23   25   24 1
    24   26   27 1
    25   28    7 1
    26   29   28 1
    27   30   21 1
    28   31    2 1
    29   32   31 1
    30   33    6 1
    31   34   33 1
    32   35   18 1
    33   36   35 1
    34   37   35 1
    35   38   35 1
    36   39   30 ar
    37   40   39 1
    38   41   12 1
    39   42   41 1
    40   43   41 1
    41   44   30 ar
    42   45   44 1
    43   46   47 1
    44   48   39 ar
    45   49   48 1
    46   50   23 1
    47   51   50 1
    48   52   50 1
    49   53   50 1
    50   54   21 1
    51   55   54 1
    52   56   54 1
    53   57   44 ar
    54   58   57 1
    55   12   31 1
    56   19   28 1
    57   19   33 1
    58   24   33 1
    59   26   41 1
    60   26   54 1
    61   28   31 1
    62   46   48 ar
    63   46   57 ar
@<TRIPOS>SUBSTRUCTURE
     1 RES1 1

@<TRIPOS>CRYSIN
  10.9580    8.4920   12.1150  90.0000 115.4500  90.0000   4 1

