# MOL2 file generated by ConQuest
# Please check atom types

@<TRIPOS>MOLECULE
QUNDIO
    28    29     1
SMALL
NO_CHARGES
****
Generated from CSD

@<TRIPOS>ATOM
      1 O1         9.4700    5.0290    6.8255 O.2       1 RES1    0.0000
      2 O2        12.5142    1.2464    6.8270 O.2       1 RES1    0.0000
      3 O3        13.8154    0.8910    5.1304 O.2       1 RES1    0.0000
      4 N1        12.9034    1.4948    5.6918 N.pl3     1 RES1    0.0000
      5 C1        10.5448    4.2822    4.8685 C.ar      1 RES1    0.0000
      6 C2        11.1796    3.2409    5.5641 C.ar      1 RES1    0.0000
      7 C3        12.2390    2.5809    4.9557 C.ar      1 RES1    0.0000
      8 C4        12.7023    2.9132    3.6815 C.ar      1 RES1    0.0000
      9 C5        12.0730    3.9564    3.0052 C.ar      1 RES1    0.0000
     10 C6        10.9989    4.6390    3.5913 C.ar      1 RES1    0.0000
     11 C7         9.4700    5.0290    5.6021 C.2       1 RES1    0.0000
     12 H1        10.9313    2.8888    6.5577 H         1 RES1    0.0000
     13 H2        13.5764    2.4306    3.2622 H         1 RES1    0.0000
     14 H3        12.4150    4.1861    2.0037 H         1 RES1    0.0000
     15 H4        10.5570    5.4960    3.0983 H         1 RES1    0.0000
     16 O2C        6.4258    8.8116    6.8270 O.2       1 RES1    0.0000
     17 O3C        5.1246    9.1670    5.1304 O.2       1 RES1    0.0000
     18 N1C        6.0366    8.5632    5.6918 N.pl3     1 RES1    0.0000
     19 C1C        8.3952    5.7758    4.8685 C.ar      1 RES1    0.0000
     20 C2C        7.7604    6.8171    5.5641 C.ar      1 RES1    0.0000
     21 C3C        6.7010    7.4771    4.9557 C.ar      1 RES1    0.0000
     22 C4C        6.2377    7.1448    3.6815 C.ar      1 RES1    0.0000
     23 C5C        6.8670    6.1016    3.0052 C.ar      1 RES1    0.0000
     24 C6C        7.9411    5.4190    3.5913 C.ar      1 RES1    0.0000
     25 H1C        8.0087    7.1692    6.5577 H         1 RES1    0.0000
     26 H2C        5.3636    7.6274    3.2622 H         1 RES1    0.0000
     27 H3C        6.5250    5.8719    2.0037 H         1 RES1    0.0000
     28 H4C        8.3830    4.5620    3.0983 H         1 RES1    0.0000
@<TRIPOS>BOND
     1    1   11 2
     2    2    4 2
     3    3    4 2
     4    4    7 1
     5    5    6 ar
     6    6    7 ar
     7    7    8 ar
     8    8    9 ar
     9    9   10 ar
    10   10    5 ar
    11   11    5 1
    12   12    6 1
    13   13    8 1
    14   14    9 1
    15   15   10 1
    16   16   18 2
    17   17   18 2
    18   18   21 1
    19   19   11 1
    20   20   19 ar
    21   21   20 ar
    22   22   21 ar
    23   23   22 ar
    24   24   19 ar
    25   25   20 1
    26   26   22 1
    27   27   23 1
    28   28   24 1
    29   23   24 ar
@<TRIPOS>SUBSTRUCTURE
     1 RES1 1

@<TRIPOS>CRYSIN
  18.9400    5.0290    6.0710  90.0000  90.0000  90.0000  18 1

