# MOL2 file generated by ConQuest
# Please check atom types

@<TRIPOS>MOLECULE
QUNFIP
    52    54     1
SMALL
NO_CHARGES
****
Generated from CSD

@<TRIPOS>ATOM
      1 N1         0.0067    8.0273    0.3357 N.3       1 RES1    0.0000
      2 O1         2.4604    5.9695    2.2025 O.3       1 RES1    0.0000
      3 O2         0.6581    5.3846    5.1970 O.3       1 RES1    0.0000
      4 O3        -0.7019    7.1760    5.0160 O.3       1 RES1    0.0000
      5 O4         0.1360    5.9608    2.2308 O.3       1 RES1    0.0000
      6 O5        -1.2169    8.0847    0.0547 O.3       1 RES1    0.0000
      7 H1        -1.6314    8.3911    0.6977 H         1 RES1    0.0000
      8 C1         1.3112    5.5570    2.8795 C.3       1 RES1    0.0000
      9 H2         1.3168    4.5820    2.9832 H         1 RES1    0.0000
     10 C2         1.2857    6.2202    4.2372 C.3       1 RES1    0.0000
     11 H3         2.1808    6.4953    4.5238 H         1 RES1    0.0000
     12 C3         0.3346    7.4267    4.0807 C.3       1 RES1    0.0000
     13 H4         0.7841    8.2832    4.2353 H         1 RES1    0.0000
     14 C4        -0.1937    7.2909    2.6626 C.3       1 RES1    0.0000
     15 H5        -1.1692    7.3849    2.6777 H         1 RES1    0.0000
     16 C5         0.3840    8.3528    1.7424 C.3       1 RES1    0.0000
     17 H6         1.3606    8.3476    1.8197 H         1 RES1    0.0000
     18 C6        -0.1332    9.7438    2.0667 C.3       1 RES1    0.0000
     19 H7        -1.1026    9.7351    2.0290 H         1 RES1    0.0000
     20 H8         0.1232    9.9684    2.9756 H         1 RES1    0.0000
     21 C7         0.3740   10.7971    1.1503 C.2       1 RES1    0.0000
     22 H9         1.2962   10.8806    1.0654 H         1 RES1    0.0000
     23 C8        -0.3612   11.6031    0.4639 C.2       1 RES1    0.0000
     24 H10       -1.2879   11.5491    0.5205 H         1 RES1    0.0000
     25 H11        0.0355   12.2368   -0.0905 H         1 RES1    0.0000
     26 C9         2.7273    5.1844    1.0428 C.3       1 RES1    0.0000
     27 H12        3.5164    5.5152    0.6072 H         1 RES1    0.0000
     28 H13        1.9821    5.2401    0.4413 H         1 RES1    0.0000
     29 H14        2.8633    4.2704    1.3011 H         1 RES1    0.0000
     30 C10       -0.2175    6.1889    5.9532 C.3       1 RES1    0.0000
     31 C11        0.4972    6.8522    7.0997 C.3       1 RES1    0.0000
     32 H15       -0.1260    7.3814    7.6013 H         1 RES1    0.0000
     33 H16        1.1941    7.4162    6.7565 H         1 RES1    0.0000
     34 H17        0.8801    6.1802    7.6673 H         1 RES1    0.0000
     35 C12       -1.3895    5.3567    6.3906 C.3       1 RES1    0.0000
     36 H18       -1.9815    5.8912    6.9243 H         1 RES1    0.0000
     37 H19       -1.0771    4.6116    6.9092 H         1 RES1    0.0000
     38 H20       -1.8589    5.0347    5.6175 H         1 RES1    0.0000
     39 C13        0.9073    7.6826   -0.5299 C.3       1 RES1    0.0000
     40 H21        1.3834    6.9410   -0.1263 H         1 RES1    0.0000
     41 H22        1.5354    8.4207   -0.5582 H         1 RES1    0.0000
     42 C14        0.6975    7.2961   -1.9310 C.ar      1 RES1    0.0000
     43 C15       -0.3979    7.6338   -2.6494 C.ar      1 RES1    0.0000
     44 H23       -1.0748    8.1283   -2.2478 H         1 RES1    0.0000
     45 C16       -0.5227    7.2630   -3.9468 C.ar      1 RES1    0.0000
     46 H24       -1.2707    7.5329   -4.4295 H         1 RES1    0.0000
     47 C17        0.4339    6.4953   -4.5596 C.ar      1 RES1    0.0000
     48 H25        0.3291    6.2185   -5.4421 H         1 RES1    0.0000
     49 C18        1.5548    6.1454   -3.8393 C.ar      1 RES1    0.0000
     50 H26        2.2157    5.6248   -4.2353 H         1 RES1    0.0000
     51 C19        1.7013    6.5649   -2.5306 C.ar      1 RES1    0.0000
     52 H27        2.4732    6.3543   -2.0554 H         1 RES1    0.0000
@<TRIPOS>BOND
     1    1    6 1
     2    2    8 1
     3    3   10 1
     4    4   12 1
     5    5    8 1
     6    6    7 1
     7    8    9 1
     8   10    8 1
     9   11   10 1
    10   12   10 1
    11   13   12 1
    12   14    5 1
    13   15   14 1
    14   16    1 1
    15   17   16 1
    16   18   16 1
    17   19   18 1
    18   20   18 1
    19   21   18 1
    20   22   21 1
    21   23   21 2
    22   24   23 1
    23   25   23 1
    24   26    2 1
    25   27   26 1
    26   28   26 1
    27   29   26 1
    28   30    3 1
    29   31   30 1
    30   32   31 1
    31   33   31 1
    32   34   31 1
    33   35   30 1
    34   36   35 1
    35   37   35 1
    36   38   35 1
    37   39    1 1
    38   40   39 1
    39   41   39 1
    40   42   39 1
    41   43   42 ar
    42   44   43 1
    43   45   43 ar
    44   46   45 1
    45   47   45 ar
    46   48   47 1
    47   49   47 ar
    48   50   49 1
    49   51   42 ar
    50   52   51 1
    51    4   30 1
    52   12   14 1
    53   14   16 1
    54   49   51 ar
@<TRIPOS>SUBSTRUCTURE
     1 RES1 1

@<TRIPOS>CRYSIN
   5.5490   17.4090   18.8570  90.0000  90.0000  90.0000  19 1

