# MOL2 file generated by ConQuest
# Please check atom types

@<TRIPOS>MOLECULE
QUNFOV
    50    54     1
SMALL
NO_CHARGES
****
Generated from CSD

@<TRIPOS>ATOM
      1 N1         3.3860    4.4818    4.2376 N.3       1 RES1    0.0000
      2 O1         2.5559    7.2748    4.3103 O.3       1 RES1    0.0000
      3 O2         1.0907    7.1192    2.4993 O.3       1 RES1    0.0000
      4 O3         0.7853    7.5408    6.8731 O.3       1 RES1    0.0000
      5 O4         0.3074    9.0834    5.3186 O.3       1 RES1    0.0000
      6 O5         3.9624    4.1261    5.5283 O.3       1 RES1    0.0000
      7 C1         1.4708    7.8518    3.6317 C.3       1 RES1    0.0000
      8 H1         1.6941    8.7910    3.3701 H         1 RES1    0.0000
      9 C2         0.3122    7.8500    4.6046 C.3       1 RES1    0.0000
     10 H2        -0.5632    7.6609    4.1601 H         1 RES1    0.0000
     11 C3         0.6782    6.7961    5.6564 C.3       1 RES1    0.0000
     12 H3         0.0022    6.0626    5.7154 H         1 RES1    0.0000
     13 C4         2.0560    6.2912    5.2340 C.3       1 RES1    0.0000
     14 H4         2.6473    6.2967    6.0406 H         1 RES1    0.0000
     15 C5         2.1300    7.0467    1.5425 C.3       1 RES1    0.0000
     16 H5         1.8284    6.5225    0.7719 H         1 RES1    0.0000
     17 H6         2.9140    6.6162    1.9429 H         1 RES1    0.0000
     18 H7         2.3684    7.9510    1.2498 H         1 RES1    0.0000
     19 C6         0.1017    8.7680    6.6916 C.3       1 RES1    0.0000
     20 C7        -1.3682    8.6129    6.9926 C.3       1 RES1    0.0000
     21 H8        -1.4857    8.3870    7.9391 H         1 RES1    0.0000
     22 H9        -1.7416    7.8968    6.4380 H         1 RES1    0.0000
     23 H10       -1.8324    9.4538    6.7977 H         1 RES1    0.0000
     24 C8         0.7384    9.8283    7.5321 C.3       1 RES1    0.0000
     25 H11        0.6048    9.6181    8.4794 H         1 RES1    0.0000
     26 H12        0.3298   10.6959    7.3298 H         1 RES1    0.0000
     27 H13        1.6986    9.8669    7.3380 H         1 RES1    0.0000
     28 C9         2.0261    4.8820    4.6873 C.3       1 RES1    0.0000
     29 H14        1.3677    4.8058    3.9383 H         1 RES1    0.0000
     30 C10        1.6860    3.8924    5.8165 C.3       1 RES1    0.0000
     31 H15        1.4719    4.3624    6.6614 H         1 RES1    0.0000
     32 H16        0.9321    3.3012    5.5692 H         1 RES1    0.0000
     33 C11        2.9858    3.1249    5.9203 C.3       1 RES1    0.0000
     34 H17        3.1515    2.7210    6.8207 H         1 RES1    0.0000
     35 C12        3.0992    2.1500    4.7753 C.3       1 RES1    0.0000
     36 H18        2.2811    1.6010    4.6790 H         1 RES1    0.0000
     37 H19        3.8857    1.5570    4.8745 H         1 RES1    0.0000
     38 C13        3.2712    3.1396    3.5931 C.3       1 RES1    0.0000
     39 H20        2.4364    3.1231    3.0433 H         1 RES1    0.0000
     40 C14        4.4430    2.8284    2.6920 C.ar      1 RES1    0.0000
     41 C15        5.1884    3.8263    2.0989 C.ar      1 RES1    0.0000
     42 H21        4.9937    4.7370    2.2894 H         1 RES1    0.0000
     43 C16        6.2167    3.5142    1.2286 C.ar      1 RES1    0.0000
     44 H22        6.7299    4.2073    0.8310 H         1 RES1    0.0000
     45 C17        6.4974    2.1950    0.9368 C.ar      1 RES1    0.0000
     46 H23        7.1984    1.9793    0.3334 H         1 RES1    0.0000
     47 C18        5.7627    1.1980    1.5182 C.ar      1 RES1    0.0000
     48 H24        5.9539    0.2892    1.3204 H         1 RES1    0.0000
     49 C19        4.7456    1.5166    2.3906 C.ar      1 RES1    0.0000
     50 H25        4.2423    0.8189    2.7936 H         1 RES1    0.0000
@<TRIPOS>BOND
     1    1    6 1
     2    2    7 1
     3    3    7 1
     4    4   11 1
     5    5    9 1
     6    6   33 1
     7    7    8 1
     8    9    7 1
     9   10    9 1
    10   11    9 1
    11   12   11 1
    12   13    2 1
    13   14   13 1
    14   15    3 1
    15   16   15 1
    16   17   15 1
    17   18   15 1
    18   19    4 1
    19   20   19 1
    20   21   20 1
    21   22   20 1
    22   23   20 1
    23   24   19 1
    24   25   24 1
    25   26   24 1
    26   27   24 1
    27   28    1 1
    28   29   28 1
    29   30   28 1
    30   31   30 1
    31   32   30 1
    32   33   30 1
    33   34   33 1
    34   35   33 1
    35   36   35 1
    36   37   35 1
    37   38    1 1
    38   39   38 1
    39   40   38 1
    40   41   40 ar
    41   42   41 1
    42   43   41 ar
    43   44   43 1
    44   45   43 ar
    45   46   45 1
    46   47   45 ar
    47   48   47 1
    48   49   40 ar
    49   50   49 1
    50    5   19 1
    51   11   13 1
    52   13   28 1
    53   35   38 1
    54   47   49 ar
@<TRIPOS>SUBSTRUCTURE
     1 RES1 1

@<TRIPOS>CRYSIN
   5.7275    9.1802   16.4767  90.0000  94.6070  90.0000   4 1

