# MOL2 file generated by ConQuest
# Please check atom types

@<TRIPOS>MOLECULE
QUNRIC
    33    34     1
SMALL
NO_CHARGES
****
Generated from CSD

@<TRIPOS>ATOM
      1 C1         1.3936   16.1278    1.8641 C.ar      1 RES1    0.0000
      2 C2         0.1833   16.5077    2.3778 C.ar      1 RES1    0.0000
      3 H1        -0.6060   16.0968    2.1052 H         1 RES1    0.0000
      4 C3         0.1739   17.5174    3.3127 C.ar      1 RES1    0.0000
      5 C4         1.3336   18.1456    3.7479 C.ar      1 RES1    0.0000
      6 C5         2.5291   17.7116    3.1896 C.ar      1 RES1    0.0000
      7 H2         3.3245   18.1140    3.4556 H         1 RES1    0.0000
      8 C6         2.5689   16.7035    2.2564 C.ar      1 RES1    0.0000
      9 H3         3.3791   16.4198    1.8987 H         1 RES1    0.0000
     10 C7         1.3796   19.2648    4.7539 C.3       1 RES1    0.0000
     11 H4         2.2975   19.6071    4.7167 H         1 RES1    0.0000
     12 C8         0.5077   20.4330    4.3740 C.2       1 RES1    0.0000
     13 C9         0.2979   20.9656    6.7385 C.2       1 RES1    0.0000
     14 C10        1.1955   18.7822    6.1645 C.2       1 RES1    0.0000
     15 C11        0.8976   19.4169    8.4911 C.3       1 RES1    0.0000
     16 H5         1.5784   18.7557    8.6356 H         1 RES1    0.0000
     17 H6         0.0499   19.0723    8.7801 H         1 RES1    0.0000
     18 H7         1.1090   20.2082    8.9916 H         1 RES1    0.0000
     19 C12       -0.7377   22.4121    5.0793 C.3       1 RES1    0.0000
     20 H8        -1.4966   22.1526    4.5524 H         1 RES1    0.0000
     21 H9        -0.2082   23.0446    4.5879 H         1 RES1    0.0000
     22 H10       -1.0388   22.8136    5.8969 H         1 RES1    0.0000
     23 N1        -1.1433   17.8889    3.8181 N.pl3     1 RES1    0.0000
     24 N2         1.4209   15.0767    0.8490 N.pl3     1 RES1    0.0000
     25 N3         0.0756   21.2253    5.3873 N.am      1 RES1    0.0000
     26 N4         0.8313   19.7433    7.0714 N.am      1 RES1    0.0000
     27 O1        -1.2111   18.4965    4.8786 O.2       1 RES1    0.0000
     28 O2        -2.1181   17.5715    3.1805 O.2       1 RES1    0.0000
     29 O3         2.4706   14.7864    0.3452 O.2       1 RES1    0.0000
     30 O4         0.3985   14.5545    0.5600 O.2       1 RES1    0.0000
     31 O5         1.4365   17.6472    6.4907 O.2       1 RES1    0.0000
     32 O6         0.2815   20.6841    3.2185 O.2       1 RES1    0.0000
     33 O7        -0.0031   21.7702    7.5818 O.2       1 RES1    0.0000
@<TRIPOS>BOND
     1    1    2 ar
     2    2    3 1
     3    4    2 ar
     4    5    4 ar
     5    6    5 ar
     6    7    6 1
     7    8    1 ar
     8    9    8 1
     9   10    5 1
    10   11   10 1
    11   12   10 1
    12   13   25 1
    13   14   10 1
    14   15   16 1
    15   17   15 1
    16   18   15 1
    17   19   20 1
    18   21   19 1
    19   22   19 1
    20   23    4 1
    21   24    1 1
    22   25   12 1
    23   26   13 1
    24   27   23 2
    25   28   23 2
    26   29   24 2
    27   30   24 2
    28   31   14 2
    29   32   12 2
    30   33   13 2
    31    6    8 ar
    32   14   26 1
    33   15   26 1
    34   19   25 1
@<TRIPOS>SUBSTRUCTURE
     1 RES1 1

@<TRIPOS>CRYSIN
   7.7986   21.3911    8.2590  90.0000  90.0000  90.0000  19 1

