# MOL2 file generated by ConQuest
# Please check atom types

@<TRIPOS>MOLECULE
QURNOG
    94    80     2
SMALL
NO_CHARGES
****
Generated from CSD

@<TRIPOS>ATOM
      1 C1         7.6081   -2.2144    2.9864 C.ar      1 RES1    0.0000
      2 H1         7.6081   -3.1445    2.9864 H         1 RES1    0.0000
      3 C2         7.3603   -1.5136    4.1540 C.ar      1 RES1    0.0000
      4 H2         7.1964   -1.9777    4.9431 H         1 RES1    0.0000
      5 C3         7.3549   -0.1278    4.1583 C.ar      1 RES1    0.0000
      6 H3         7.1811    0.3298    4.9491 H         1 RES1    0.0000
      7 C4         7.6081    0.5852    2.9864 C.ar      1 RES1    0.0000
      8 C5         7.3294    2.7301    1.7945 C.ar      1 RES1    0.0000
      9 C6         6.2423    2.3910    0.9920 C.ar      1 RES1    0.0000
     10 H4         5.6828    1.6905    1.2376 H         1 RES1    0.0000
     11 C7         5.9954    3.0989   -0.1719 C.ar      1 RES1    0.0000
     12 H5         5.2743    2.8600   -0.7096 H         1 RES1    0.0000
     13 C8         6.8104    4.1621   -0.5495 C.ar      1 RES1    0.0000
     14 C9         7.8839    4.5103    0.2666 C.ar      1 RES1    0.0000
     15 H6         8.4314    5.2253    0.0334 H         1 RES1    0.0000
     16 C10        8.1400    3.7938    1.4250 C.ar      1 RES1    0.0000
     17 H7         8.8629    4.0282    1.9603 H         1 RES1    0.0000
     18 C11        6.4746    4.8730   -1.7973 C.2       1 RES1    0.0000
     19 N1         7.6081    2.0017    2.9864 N.pl3     1 RES1    0.0000
     20 O1         7.3585    6.9692   -1.3797 O.2       1 RES1    0.0000
     21 N2         5.7425    4.2605   -2.8072 N.2       1 RES1    0.0000
     22 N3         6.7619    6.1531   -2.1347 N.3       1 RES1    0.0000
     23 C12        5.7400    5.1799   -3.9827 C.3       1 RES1    0.0000
     24 C13        6.0741    6.5804   -3.3878 C.3       1 RES1    0.0000
     25 C14        6.8730    4.6274   -4.8535 C.3       1 RES1    0.0000
     26 H8         6.6228    3.7657   -5.1952 H         1 RES1    0.0000
     27 H9         7.0036    5.2363   -5.5846 H         1 RES1    0.0000
     28 H10        7.6894    4.5477   -4.3530 H         1 RES1    0.0000
     29 C15        4.4176    5.2376   -4.5825 C.3       1 RES1    0.0000
     30 H11        3.7739    5.5785   -3.9564 H         1 RES1    0.0000
     31 H12        4.1675    4.3498   -4.8463 H         1 RES1    0.0000
     32 H13        4.4432    5.8066   -5.3564 H         1 RES1    0.0000
     33 C16        7.1779    7.3856   -4.2546 C.3       1 RES1    0.0000
     34 H14        7.3436    8.2337   -3.8357 H         1 RES1    0.0000
     35 H15        7.9962    6.8855   -4.2992 H         1 RES1    0.0000
     36 H16        6.8400    7.5273   -5.1426 H         1 RES1    0.0000
     37 C17        4.8623    7.3352   -2.9043 C.3       1 RES1    0.0000
     38 H17        4.2880    6.7508   -2.4047 H         1 RES1    0.0000
     39 H18        5.1467    8.0606   -2.3437 H         1 RES1    0.0000
     40 H19        4.3863    7.6840   -3.6613 H         1 RES1    0.0000
     41 C18        7.2268    4.8542   -4.8260 Du        2 SUP2    0.0000
     42 H20        8.1583    4.9312   -5.0446 Du        2 SUP2    0.0000
     43 H21        7.0667    4.0076   -4.4020 Du        2 SUP2    0.0000
     44 H22        6.7041    4.9147   -5.6288 Du        2 SUP2    0.0000
     45 C19        6.8964    5.9688   -3.8118 Du        2 SUP2    0.0000
     46 C20        5.4118    5.9454   -3.3902 Du        2 SUP2    0.0000
     47 O2         8.7737    5.6266   -2.3067 Du        2 SUP2    0.0000
     48 N4         5.3744    5.0095   -2.2123 Du        2 SUP2    0.0000
     49 N5         7.5156    5.5964   -2.5038 Du        2 SUP2    0.0000
     50 H23        4.7095    4.3361   -4.7317 Du        2 SUP2    0.0000
     51 H24        3.5016    5.2349   -4.2980 Du        2 SUP2    0.0000
     52 H25        4.4977    5.7393   -5.3970 Du        2 SUP2    0.0000
     53 H26        8.0926    7.4655   -4.5322 Du        2 SUP2    0.0000
     54 H27        6.6012    7.6002   -4.9909 Du        2 SUP2    0.0000
     55 H28        7.0094    7.9905   -3.5287 Du        2 SUP2    0.0000
     56 H29        5.4435    7.6895   -2.2279 Du        2 SUP2    0.0000
     57 H30        4.8395    7.9341   -3.6542 Du        2 SUP2    0.0000
     58 H31        3.9768    7.2373   -2.5468 Du        2 SUP2    0.0000
     59 C3B        7.8612   -0.1278    1.8145 C.ar      1 RES1    0.0000
     60 C2B        7.8559   -1.5136    1.8188 C.ar      1 RES1    0.0000
     61 H2B        8.0197   -1.9777    1.0297 H         1 RES1    0.0000
     62 H3B        8.0351    0.3298    1.0237 H         1 RES1    0.0000
     63 C5B        7.8867    2.7301    4.1783 C.ar      1 RES1    0.0000
     64 C6B        8.9739    2.3910    4.9808 C.ar      1 RES1    0.0000
     65 H4B        9.5334    1.6905    4.7352 H         1 RES1    0.0000
     66 C7B        9.2208    3.0989    6.1447 C.ar      1 RES1    0.0000
     67 H5B        9.9418    2.8600    6.6824 H         1 RES1    0.0000
     68 C8B        8.4058    4.1621    6.5223 C.ar      1 RES1    0.0000
     69 C9B        7.3322    4.5103    5.7062 C.ar      1 RES1    0.0000
     70 H6B        6.7848    5.2253    5.9394 H         1 RES1    0.0000
     71 C10B       7.0762    3.7938    4.5478 C.ar      1 RES1    0.0000
     72 H7B        6.3533    4.0282    4.0125 H         1 RES1    0.0000
     73 C11B       8.7416    4.8730    7.7702 C.2       1 RES1    0.0000
     74 N2B        9.4737    4.2605    8.7800 N.2       1 RES1    0.0000
     75 C12B       9.4762    5.1799    9.9555 C.3       1 RES1    0.0000
     76 C13B       9.1421    6.5804    9.3606 C.3       1 RES1    0.0000
     77 N3B        8.4543    6.1531    8.1075 N.3       1 RES1    0.0000
     78 O1B        7.8576    6.9692    7.3525 O.2       1 RES1    0.0000
     79 C16B       8.0383    7.3856   10.2274 C.3       1 RES1    0.0000
     80 H14B       7.8725    8.2337    9.8086 H         1 RES1    0.0000
     81 H15B       7.2199    6.8855   10.2720 H         1 RES1    0.0000
     82 H16B       8.3762    7.5273   11.1154 H         1 RES1    0.0000
     83 C17B      10.3538    7.3352    8.8772 C.3       1 RES1    0.0000
     84 H17B      10.9282    6.7508    8.3775 H         1 RES1    0.0000
     85 H18B      10.0695    8.0606    8.3165 H         1 RES1    0.0000
     86 H19B      10.8299    7.6840    9.6341 H         1 RES1    0.0000
     87 C14B       8.3431    4.6274   10.8263 C.3       1 RES1    0.0000
     88 H8B        8.5933    3.7657   11.1680 H         1 RES1    0.0000
     89 H9B        8.2125    5.2363   11.5574 H         1 RES1    0.0000
     90 H10B       7.5268    4.5477   10.3258 H         1 RES1    0.0000
     91 C15B      10.7986    5.2376   10.5553 C.3       1 RES1    0.0000
     92 H11B      11.4423    5.5785    9.9292 H         1 RES1    0.0000
     93 H12B      11.0486    4.3498   10.8192 H         1 RES1    0.0000
     94 H13B      10.7730    5.8066   11.3292 H         1 RES1    0.0000
@<TRIPOS>BOND
     1    1    2 1
     2    3    1 ar
     3    4    3 1
     4    5    3 ar
     5    6    5 1
     6    7    5 ar
     7    8    9 ar
     8    9   10 1
     9   11    9 ar
    10   12   11 1
    11   13   11 ar
    12   14   13 ar
    13   15   14 1
    14   16    8 ar
    15   17   16 1
    16   18   13 1
    17   19    7 1
    18   20   22 1
    19   21   18 2
    20   22   18 1
    21   23   21 1
    22   24   22 1
    23   25   23 1
    24   26   25 1
    25   27   25 1
    26   28   25 1
    27   29   23 1
    28   30   29 1
    29   31   29 1
    30   32   29 1
    31   33   24 1
    32   34   33 1
    33   35   33 1
    34   36   33 1
    35   37   24 1
    36   38   37 1
    37   39   37 1
    38   40   37 1
    39   59    7 ar
    40   60    1 ar
    41   61   60 1
    42   62   59 1
    43   63   19 1
    44   64   63 ar
    45   65   64 1
    46   66   64 ar
    47   67   66 1
    48   68   66 ar
    49   69   68 ar
    50   70   69 1
    51   71   63 ar
    52   72   71 1
    53   73   68 1
    54   74   73 2
    55   75   74 1
    56   76   75 1
    57   77   73 1
    58   78   77 1
    59   79   76 1
    60   80   79 1
    61   81   79 1
    62   82   79 1
    63   83   76 1
    64   84   83 1
    65   85   83 1
    66   86   83 1
    67   87   75 1
    68   88   87 1
    69   89   87 1
    70   90   87 1
    71   91   75 1
    72   92   91 1
    73   93   91 1
    74   94   91 1
    75    8   19 1
    76   14   16 ar
    77   23   24 1
    78   59   60 ar
    79   69   71 ar
    80   76   77 1
@<TRIPOS>SUBSTRUCTURE
     1 RES1 1
     2 SUP2 41

@<TRIPOS>CRYSIN
  16.9914   13.7435   12.4621  90.0000 106.5530  90.0000  15 1

