# MOL2 file generated by ConQuest
# Please check atom types

@<TRIPOS>MOLECULE
QUTNOK
    60    64     1
SMALL
USER_CHARGES
****
Generated from CSD

@<TRIPOS>ATOM
      1 N1         2.4177    5.0356    3.8006 N.pl3     1 RES1    1.0000
      2 N2         4.2505    2.8656    4.3165 N.am      1 RES1    0.0000
      3 H1         4.3124    3.3813    3.6067 H         1 RES1    0.0000
      4 N3         2.6696    6.6347    1.4331 N.am      1 RES1    0.0000
      5 H2         3.1637    5.9274    1.6033 H         1 RES1    0.0000
      6 O1         3.3614    4.7481    2.9172 O.2       1 RES1   -1.0000
      7 O2         5.2047    0.9676    5.2318 O.2       1 RES1    0.0000
      8 O3         5.8196    1.8093    3.2209 O.3       1 RES1    0.0000
      9 O4         2.4478    8.2965   -0.1635 O.2       1 RES1    0.0000
     10 O5         4.1839    6.8358   -0.1256 O.3       1 RES1    0.0000
     11 C1         2.3701    4.3017    4.9699 C.ar      1 RES1    0.0000
     12 C2         3.2985    3.2479    5.2769 C.ar      1 RES1    0.0000
     13 C3         3.2160    2.6384    6.4990 C.ar      1 RES1    0.0000
     14 H3         3.8491    1.9658    6.7231 H         1 RES1    0.0000
     15 C4         2.2311    2.9755    7.4229 C.ar      1 RES1    0.0000
     16 H4         2.2117    2.5371    8.2653 H         1 RES1    0.0000
     17 C5         1.2969    3.9220    7.1421 C.ar      1 RES1    0.0000
     18 H5         0.6156    4.1141    7.7735 H         1 RES1    0.0000
     19 C6         1.3337    4.6192    5.9185 C.ar      1 RES1    0.0000
     20 C7         0.4055    5.5903    5.6057 C.ar      1 RES1    0.0000
     21 H6        -0.3015    5.7629    6.2153 H         1 RES1    0.0000
     22 C8         0.4706    6.3182    4.4374 C.ar      1 RES1    0.0000
     23 C9        -0.4709    7.3434    4.1465 C.ar      1 RES1    0.0000
     24 H7        -1.1899    7.5085    4.7473 H         1 RES1    0.0000
     25 C10       -0.3538    8.0783    3.0335 C.ar      1 RES1    0.0000
     26 H8        -0.9900    8.7625    2.8560 H         1 RES1    0.0000
     27 C11        0.6924    7.8556    2.1212 C.ar      1 RES1    0.0000
     28 H9         0.7552    8.4033    1.3472 H         1 RES1    0.0000
     29 C12        1.6244    6.8669    2.3191 C.ar      1 RES1    0.0000
     30 C13        1.5209    6.0493    3.5078 C.ar      1 RES1    0.0000
     31 C14        5.0901    1.7932    4.3516 C.2       1 RES1    0.0000
     32 C15        3.0288    7.3565    0.3346 C.2       1 RES1    0.0000
     33 C16        6.7120    0.6752    3.0611 C.3       1 RES1    0.0000
     34 H10        6.2068   -0.1736    3.1368 H         1 RES1    0.0000
     35 H11        7.4158    0.6887    3.7580 H         1 RES1    0.0000
     36 C17        7.3218    0.7965    1.7051 C.ar      1 RES1    0.0000
     37 C18        8.2843    1.7375    1.4404 C.ar      1 RES1    0.0000
     38 H12        8.5613    2.3209    2.1372 H         1 RES1    0.0000
     39 C19        8.8586    1.8624    0.2008 C.ar      1 RES1    0.0000
     40 H13        9.5228    2.5241    0.0466 H         1 RES1    0.0000
     41 C20        8.4702    1.0273   -0.8133 C.ar      1 RES1    0.0000
     42 H14        8.8564    1.1120   -1.6775 H         1 RES1    0.0000
     43 C21        7.5332    0.0803   -0.5718 C.ar      1 RES1    0.0000
     44 H15        7.2825   -0.5182   -1.2658 H         1 RES1    0.0000
     45 C22        6.9407   -0.0266    0.6678 C.ar      1 RES1    0.0000
     46 H16        6.2607   -0.6752    0.8089 H         1 RES1    0.0000
     47 C23        4.7982    7.4834   -1.2483 C.3       1 RES1    0.0000
     48 H17        5.7784    7.5205   -1.1057 H         1 RES1    0.0000
     49 H18        4.4647    8.4133   -1.3094 H         1 RES1    0.0000
     50 C24        4.5129    6.7691   -2.5417 C.ar      1 RES1    0.0000
     51 C25        3.6155    5.7067   -2.6668 C.ar      1 RES1    0.0000
     52 H19        3.1446    5.3947   -1.9045 H         1 RES1    0.0000
     53 C26        3.4093    5.1038   -3.9020 C.ar      1 RES1    0.0000
     54 H20        2.8019    4.3770   -3.9733 H         1 RES1    0.0000
     55 C27        4.0671    5.5432   -5.0107 C.ar      1 RES1    0.0000
     56 H21        3.9189    5.1304   -5.8531 H         1 RES1    0.0000
     57 C28        4.9572    6.6026   -4.8914 C.ar      1 RES1    0.0000
     58 H22        5.4198    6.9120   -5.6625 H         1 RES1    0.0000
     59 C29        5.1802    7.2100   -3.6824 C.ar      1 RES1    0.0000
     60 H23        5.7911    7.9343   -3.6227 H         1 RES1    0.0000
@<TRIPOS>BOND
     1    1    6 1
     2    2    3 1
     3    4    5 1
     4    7   31 2
     5    8   31 1
     6    9   32 2
     7   10   32 1
     8   11    1 ar
     9   12    2 1
    10   13   12 ar
    11   14   13 1
    12   15   13 ar
    13   16   15 1
    14   17   15 ar
    15   18   17 1
    16   19   11 ar
    17   20   19 ar
    18   21   20 1
    19   22   20 ar
    20   23   22 ar
    21   24   23 1
    22   25   23 ar
    23   26   25 1
    24   27   25 ar
    25   28   27 1
    26   29    4 1
    27   30    1 ar
    28   31    2 1
    29   32    4 1
    30   33    8 1
    31   34   33 1
    32   35   33 1
    33   36   33 1
    34   37   36 ar
    35   38   37 1
    36   39   37 ar
    37   40   39 1
    38   41   39 ar
    39   42   41 1
    40   43   41 ar
    41   44   43 1
    42   45   36 ar
    43   46   45 1
    44   47   10 1
    45   48   47 1
    46   49   47 1
    47   50   47 1
    48   51   50 ar
    49   52   51 1
    50   53   51 ar
    51   54   53 1
    52   55   53 ar
    53   56   55 1
    54   57   55 ar
    55   58   57 1
    56   59   50 ar
    57   60   59 1
    58   11   12 ar
    59   17   19 ar
    60   22   30 ar
    61   27   29 ar
    62   29   30 ar
    63   43   45 ar
    64   57   59 ar
@<TRIPOS>SUBSTRUCTURE
     1 RES1 1

@<TRIPOS>CRYSIN
  31.7320    5.0160   14.5490  90.0000  90.0000  90.0000  33 1

