# MOL2 file generated by ConQuest
# Please check atom types

@<TRIPOS>MOLECULE
QUVSOR
    33    33     2
SMALL
NO_CHARGES
****
Generated from CSD

@<TRIPOS>ATOM
      1 O1         8.4563    4.5830    2.2444 O.2       1 RES1    0.0000
      2 O2         8.8600    5.3916    4.2199 O.2       1 RES1    0.0000
      3 O3         5.9128    7.4769    5.5775 O.3       1 RES1    0.0000
      4 O4         7.4293    9.4673    7.0833 O.2       1 RES1    0.0000
      5 O5         5.9390   10.9367    6.5287 O.2       1 RES1    0.0000
      6 N1         6.2746    6.3718    4.7657 N.2       1 RES1    0.0000
      7 N2         8.2890    4.6181    3.4600 N.pl3     1 RES1    0.0000
      8 N3         5.9793    5.6478    6.8619 N.2       1 RES1    0.0000
      9 N4         6.2862    9.9128    7.0972 N.pl3     1 RES1    0.0000
     10 C1         7.3733    3.6299    4.0500 C.ar      1 RES1    0.0000
     11 C2         7.4547    2.3391    3.5682 C.ar      1 RES1    0.0000
     12 H1         7.9925    2.1433    2.8349 H         1 RES1    0.0000
     13 C3         6.7258    1.3393    4.1897 C.ar      1 RES1    0.0000
     14 H2         6.7765    0.4652    3.8763 H         1 RES1    0.0000
     15 C4         5.9187    1.6374    5.2803 C.ar      1 RES1    0.0000
     16 H3         5.4532    0.9588    5.7140 H         1 RES1    0.0000
     17 C5         5.8076    2.9475    5.7217 C.ar      1 RES1    0.0000
     18 H4         5.2410    3.1453    6.4329 H         1 RES1    0.0000
     19 C6         6.5326    3.9727    5.1159 C.ar      1 RES1    0.0000
     20 C7         6.2963    5.3421    5.5955 C.2       1 RES1    0.0000
     21 C8         5.7624    6.9672    6.7888 C.2       1 RES1    0.0000
     22 C9         5.2298    7.7913    7.8805 C.ar      1 RES1    0.0000
     23 C10        4.4429    7.1641    8.8475 C.ar      1 RES1    0.0000
     24 H5         4.3922    6.2362    8.8680 H         1 RES1    0.0000
     25 C11        3.7355    7.9118    9.7796 C.ar      1 RES1    0.0000
     26 H6         3.2455    7.4825   10.4429 H         1 RES1    0.0000
     27 C12        3.7579    9.2993    9.7243 C.ar      1 RES1    0.0000
     28 H7         3.2382    9.7949   10.3148 H         1 RES1    0.0000
     29 C13        4.5535    9.9506    8.7897 C.ar      1 RES1    0.0000
     30 H8         4.5805   10.8795    8.7554 H         1 RES1    0.0000
     31 C14        5.3026    9.1909    7.9144 C.ar      1 RES1    0.0000
     32 N5         5.9128    7.4769    5.5775 Du        2 SUP2    0.0000
     33 O6         6.2746    6.3718    4.7657 Du        2 SUP2    0.0000
@<TRIPOS>BOND
     1    1    7 2
     2    2    7 2
     3    3    6 1
     4    4    9 2
     5    5    9 2
     6    6   20 2
     7    7   10 1
     8    8   20 1
     9    9   31 1
    10   10   11 ar
    11   11   12 1
    12   13   11 ar
    13   14   13 1
    14   15   13 ar
    15   16   15 1
    16   17   15 ar
    17   18   17 1
    18   19   10 ar
    19   20   19 1
    20   21    3 1
    21   22   21 1
    22   23   22 ar
    23   24   23 1
    24   25   23 ar
    25   26   25 1
    26   27   25 ar
    27   28   27 1
    28   29   27 ar
    29   30   29 1
    30   31   22 ar
    31    8   21 2
    32   17   19 ar
    33   29   31 ar
@<TRIPOS>SUBSTRUCTURE
     1 RES1 1
     2 SUP2 32

@<TRIPOS>CRYSIN
   9.3592   12.3392   11.0632  90.0000  93.4070  90.0000 231 1

