# MOL2 file generated by ConQuest
# Please check atom types

@<TRIPOS>MOLECULE
QUXVIQ
    34    34     1
SMALL
NO_CHARGES
****
Generated from CSD

@<TRIPOS>ATOM
      1 C1        -2.0498    8.7810    6.7081 C.2       1 RES1    0.0000
      2 C2        -1.0554    7.6788    6.4408 C.2       1 RES1    0.0000
      3 C3        -1.2483    6.9304    5.2154 C.1       1 RES1    0.0000
      4 C4         1.8011    6.1375    7.5452 C.2       1 RES1    0.0000
      5 C5         2.5286    4.9927    6.9500 C.ar      1 RES1    0.0000
      6 C6         2.1137    4.3821    5.7605 C.ar      1 RES1    0.0000
      7 H1         1.3163    4.6361    5.3554 H         1 RES1    0.0000
      8 C7         2.9024    3.3944    5.1914 C.ar      1 RES1    0.0000
      9 H2         2.6380    2.9895    4.3968 H         1 RES1    0.0000
     10 C8         4.0871    3.0059    5.8057 C.ar      1 RES1    0.0000
     11 H3         4.6170    2.3503    5.4146 H         1 RES1    0.0000
     12 C9         4.4831    3.5913    6.9981 C.ar      1 RES1    0.0000
     13 H4         5.2693    3.3167    7.4119 H         1 RES1    0.0000
     14 C10        3.7084    4.5872    7.5739 C.ar      1 RES1    0.0000
     15 H5         3.9748    4.9826    8.3728 H         1 RES1    0.0000
     16 C11       -2.4667   10.7200    8.1388 C.3       1 RES1    0.0000
     17 C12       -2.5861   11.6937    6.9889 C.3       1 RES1    0.0000
     18 H6        -3.1077   12.4511    7.2640 H         1 RES1    0.0000
     19 H7        -1.7105   11.9862    6.7250 H         1 RES1    0.0000
     20 H8        -3.0159   11.2608    6.2473 H         1 RES1    0.0000
     21 C13       -3.7877   10.2374    8.6827 C.3       1 RES1    0.0000
     22 H9        -4.3131   10.9896    8.9622 H         1 RES1    0.0000
     23 H10       -4.2582    9.7542    7.9992 H         1 RES1    0.0000
     24 H11       -3.6325    9.6595    9.4334 H         1 RES1    0.0000
     25 C14       -1.6035   11.3000    9.2381 C.3       1 RES1    0.0000
     26 H12       -2.0302   12.0787    9.6021 H         1 RES1    0.0000
     27 H13       -1.4861   10.6453    9.9308 H         1 RES1    0.0000
     28 H14       -0.7474   11.5428    8.8779 H         1 RES1    0.0000
     29 N1        -1.3616    6.3758    4.2220 N.1       1 RES1    0.0000
     30 N2        -0.0966    7.4556    7.2638 N.2       1 RES1    0.0000
     31 O1        -3.0401    8.8726    6.0328 O.2       1 RES1    0.0000
     32 O2        -1.6556    9.5433    7.7060 O.3       1 RES1    0.0000
     33 O3         0.6384    6.3682    6.8056 O.3       1 RES1    0.0000
     34 O4         2.1437    6.8193    8.4615 O.2       1 RES1    0.0000
@<TRIPOS>BOND
     1    1    2 1
     2    2    3 1
     3    3   29 3
     4    4    5 1
     5    5    6 ar
     6    6    7 1
     7    8    6 ar
     8    9    8 1
     9   10    8 ar
    10   11   10 1
    11   12   10 ar
    12   13   12 1
    13   14    5 ar
    14   15   14 1
    15   16   17 1
    16   17   18 1
    17   19   17 1
    18   20   17 1
    19   21   16 1
    20   22   21 1
    21   23   21 1
    22   24   21 1
    23   25   16 1
    24   26   25 1
    25   27   25 1
    26   28   25 1
    27   30    2 2
    28   31    1 2
    29   32    1 1
    30   33    4 1
    31   34    4 2
    32   12   14 ar
    33   16   32 1
    34   30   33 1
@<TRIPOS>SUBSTRUCTURE
     1 RES1 1

@<TRIPOS>CRYSIN
   5.9020   21.5230   11.2041  90.0000 102.0730  90.0000 231 1

