# MOL2 file generated by ConQuest
# Please check atom types

@<TRIPOS>MOLECULE
QUYDAQ
    46    48     1
SMALL
NO_CHARGES
****
Generated from CSD

@<TRIPOS>ATOM
      1 O1         7.3107    5.6412    2.8278 O.3       1 RES1    0.0000
      2 O2        10.3166    9.5687    1.4015 O.2       1 RES1    0.0000
      3 O3         0.4987    8.6776   -2.8355 O.2       1 RES1    0.0000
      4 O4         0.5310    7.3793   -1.1436 O.2       1 RES1    0.0000
      5 N1         4.8584    5.1992    1.9234 N.ar      1 RES1    0.0000
      6 N2         8.3802    9.5971    0.3052 N.am      1 RES1    0.0000
      7 H1         8.7100   10.1481   -0.2668 H         1 RES1    0.0000
      8 N3         7.0752    9.1820    0.1601 N.2       1 RES1    0.0000
      9 N4         1.0540    8.2055   -1.8723 N.pl3     1 RES1    0.0000
     10 C1         3.6446    4.9582    1.4667 C.ar      1 RES1    0.0000
     11 H2         3.3944    5.3612    0.6669 H         1 RES1    0.0000
     12 C2         2.7115    4.1405    2.1030 C.ar      1 RES1    0.0000
     13 H3         1.8575    4.0331    1.7516 H         1 RES1    0.0000
     14 C3         3.0756    3.5057    3.2426 C.ar      1 RES1    0.0000
     15 H4         2.4693    2.9528    3.6805 H         1 RES1    0.0000
     16 C4         4.3750    3.6827    3.7642 C.ar      1 RES1    0.0000
     17 C5         4.8606    3.0070    4.9157 C.ar      1 RES1    0.0000
     18 H5         4.3104    2.4148    5.3759 H         1 RES1    0.0000
     19 C6         6.1207    3.2282    5.3397 C.ar      1 RES1    0.0000
     20 H6         6.4300    2.7752    6.0920 H         1 RES1    0.0000
     21 C7         6.9831    4.1224    4.6786 C.ar      1 RES1    0.0000
     22 H7         7.8431    4.2660    5.0038 H         1 RES1    0.0000
     23 C8         6.5580    4.7757    3.5630 C.ar      1 RES1    0.0000
     24 C9         5.2301    4.5652    3.0656 C.ar      1 RES1    0.0000
     25 C10        8.6597    5.8832    3.2371 C.3       1 RES1    0.0000
     26 H8         9.1654    5.0560    3.2329 H         1 RES1    0.0000
     27 H9         8.6777    6.2511    4.1350 H         1 RES1    0.0000
     28 C11        9.2536    6.8583    2.2641 C.3       1 RES1    0.0000
     29 H10        9.1736    6.5000    1.3672 H         1 RES1    0.0000
     30 H11       10.1987    6.9646    2.4589 H         1 RES1    0.0000
     31 C12        8.5846    8.2097    2.3174 C.3       1 RES1    0.0000
     32 H12        7.6354    8.1002    2.1500 H         1 RES1    0.0000
     33 H13        8.6895    8.5808    3.2066 H         1 RES1    0.0000
     34 C13        9.1521    9.1667    1.3160 C.2       1 RES1    0.0000
     35 C14        6.4579    9.6449   -0.8470 C.2       1 RES1    0.0000
     36 H14        6.8943   10.2162   -1.4357 H         1 RES1    0.0000
     37 C15        5.0592    9.2825   -1.0857 C.ar      1 RES1    0.0000
     38 C16        4.4073    9.7813   -2.2091 C.ar      1 RES1    0.0000
     39 H15        4.8612   10.3459   -2.7924 H         1 RES1    0.0000
     40 C17        3.0978    9.4474   -2.4643 C.ar      1 RES1    0.0000
     41 H16        2.6625    9.7855   -3.2136 H         1 RES1    0.0000
     42 C18        2.4424    8.6074   -1.5977 C.ar      1 RES1    0.0000
     43 C19        3.0531    8.1087   -0.4770 C.ar      1 RES1    0.0000
     44 H17        2.5874    7.5537    0.1053 H         1 RES1    0.0000
     45 C20        4.3656    8.4414   -0.2238 C.ar      1 RES1    0.0000
     46 H18        4.7899    8.1002    0.5300 H         1 RES1    0.0000
@<TRIPOS>BOND
     1    1   23 1
     2    2   34 2
     3    3    9 2
     4    4    9 2
     5    5   10 ar
     6    6    7 1
     7    8    6 1
     8    9   42 1
     9   10   11 1
    10   12   10 ar
    11   13   12 1
    12   14   12 ar
    13   15   14 1
    14   16   14 ar
    15   17   16 ar
    16   18   17 1
    17   19   17 ar
    18   20   19 1
    19   21   19 ar
    20   22   21 1
    21   23   21 ar
    22   24    5 ar
    23   25    1 1
    24   26   25 1
    25   27   25 1
    26   28   25 1
    27   29   28 1
    28   30   28 1
    29   31   28 1
    30   32   31 1
    31   33   31 1
    32   34    6 1
    33   35    8 2
    34   36   35 1
    35   37   35 1
    36   38   37 ar
    37   39   38 1
    38   40   38 ar
    39   41   40 1
    40   42   40 ar
    41   43   42 ar
    42   44   43 1
    43   45   37 ar
    44   46   45 1
    45   16   24 ar
    46   23   24 ar
    47   31   34 1
    48   43   45 ar
@<TRIPOS>SUBSTRUCTURE
     1 RES1 1

@<TRIPOS>CRYSIN
   9.8360   10.6330   17.5660  90.0000  92.3650  90.0000  14 1

