# MOL2 file generated by ConQuest
# Please check atom types

@<TRIPOS>MOLECULE
QUYQEH
    38    40     1
SMALL
NO_CHARGES
****
Generated from CSD

@<TRIPOS>ATOM
      1 C1         0.4670    8.4119    5.2985 C.ar      1 RES1    0.0000
      2 N1        -1.4544    9.8432    5.1916 N.2       1 RES1    0.0000
      3 C2         0.6406    8.4468    6.6931 C.ar      1 RES1    0.0000
      4 N2        -2.4079   10.2694    4.2883 N.am      1 RES1    0.0000
      5 O1        -4.4017   11.2021    3.8778 O.2       1 RES1    0.0000
      6 C3        -0.6366    9.0574    4.5913 C.2       1 RES1    0.0000
      7 C4         1.4392    7.7072    4.5807 C.ar      1 RES1    0.0000
      8 H1         1.3685    7.6539    3.6558 H         1 RES1    0.0000
      9 N3        -0.3256    9.1104    7.5811 N.pl3     1 RES1    0.0000
     10 O2        -1.3950    8.5606    7.7761 O.2       1 RES1    0.0000
     11 C5        -3.5425   10.9050    4.6956 C.2       1 RES1    0.0000
     12 C6        -3.6584   11.1985    6.1574 C.3       1 RES1    0.0000
     13 H2        -4.4929   11.6407    6.3300 H         1 RES1    0.0000
     14 H3        -2.9339   11.7682    6.4283 H         1 RES1    0.0000
     15 H4        -3.6224   10.3774    6.6529 H         1 RES1    0.0000
     16 C7         2.5068    7.0842    5.2134 C.ar      1 RES1    0.0000
     17 H5         3.1372    6.6198    4.7117 H         1 RES1    0.0000
     18 C8        -2.1320    9.8250    2.8989 C.3       1 RES1    0.0000
     19 H6        -2.9084    9.3420    2.5461 H         1 RES1    0.0000
     20 C9        -1.8226   11.0103    2.0088 C.ar      1 RES1    0.0000
     21 C10       -2.8264   11.5614    1.2285 C.ar      1 RES1    0.0000
     22 H7        -3.6650   11.1614    1.2099 H         1 RES1    0.0000
     23 O3         0.0239   10.1433    8.1091 O.2       1 RES1    0.0000
     24 C11        1.7040    7.8422    7.3283 C.ar      1 RES1    0.0000
     25 H8         1.7917    7.9004    8.2525 H         1 RES1    0.0000
     26 C12        2.6334    7.1536    6.5868 C.ar      1 RES1    0.0000
     27 H9         3.3476    6.7337    7.0092 H         1 RES1    0.0000
     28 C13       -0.9664    8.8342    3.1388 C.3       1 RES1    0.0000
     29 H10       -1.2450    7.9190    2.9785 H         1 RES1    0.0000
     30 H11       -0.2079    9.0411    2.5702 H         1 RES1    0.0000
     31 C14       -0.5632   11.6010    1.9884 C.ar      1 RES1    0.0000
     32 H12        0.1290   11.2344    2.4904 H         1 RES1    0.0000
     33 C15       -0.3349   12.7380    1.2224 C.ar      1 RES1    0.0000
     34 H13        0.5075   13.1318    1.2192 H         1 RES1    0.0000
     35 C16       -2.5958   12.7058    0.4734 C.ar      1 RES1    0.0000
     36 H14       -3.2843   13.0786   -0.0278 H         1 RES1    0.0000
     37 C17       -1.3474   13.2842    0.4701 C.ar      1 RES1    0.0000
     38 H15       -1.1886   14.0446   -0.0408 H         1 RES1    0.0000
@<TRIPOS>BOND
     1    1    3 ar
     2    2    4 1
     3    3    9 1
     4    4   11 1
     5    5   11 2
     6    6    1 1
     7    7    1 ar
     8    8    7 1
     9    9   10 2
    10   11   12 1
    11   12   13 1
    12   14   12 1
    13   15   12 1
    14   16    7 ar
    15   17   16 1
    16   18    4 1
    17   19   18 1
    18   20   18 1
    19   21   20 ar
    20   22   21 1
    21   23    9 2
    22   24    3 ar
    23   25   24 1
    24   26   16 ar
    25   27   26 1
    26   28    6 1
    27   29   28 1
    28   30   28 1
    29   31   20 ar
    30   32   31 1
    31   33   31 ar
    32   34   33 1
    33   35   21 ar
    34   36   35 1
    35   37   33 ar
    36   38   37 1
    37    2    6 2
    38   18   28 1
    39   24   26 ar
    40   35   37 ar
@<TRIPOS>SUBSTRUCTURE
     1 RES1 1

@<TRIPOS>CRYSIN
   6.5064   12.3850   18.7520  90.0000  98.2600  90.0000   9 1

