# MOL2 file generated by ConQuest
# Please check atom types

@<TRIPOS>MOLECULE
QUZBET
    32    33     1
SMALL
NO_CHARGES
****
Generated from CSD

@<TRIPOS>ATOM
      1 N1         0.8268    8.3411   15.6283 N.2       1 RES1    0.0000
      2 N2         0.9658    9.0147   14.4209 N.am      1 RES1    0.0000
      3 N3         1.9107   12.9413   14.1134 N.pl3     1 RES1    0.0000
      4 O1         1.1410    4.0075   20.2583 O.3       1 RES1    0.0000
      5 H1         0.6377    4.3130   20.8295 H         1 RES1    0.0000
      6 O2         0.0841   10.8919   15.2954 O.2       1 RES1    0.0000
      7 O3         2.4681   12.3178   14.9801 O.2       1 RES1    0.0000
      8 O4         1.7409   14.1461   14.1511 O.2       1 RES1    0.0000
      9 C1         1.0121    6.2906   16.8188 C.ar      1 RES1    0.0000
     10 C2         0.5666    6.8228   18.0201 C.ar      1 RES1    0.0000
     11 H2         0.2362    7.6925   18.0427 H         1 RES1    0.0000
     12 C3         0.6076    6.0797   19.1836 C.ar      1 RES1    0.0000
     13 H3         0.3227    6.4478   19.9885 H         1 RES1    0.0000
     14 C4         1.0777    4.7837   19.1339 C.ar      1 RES1    0.0000
     15 C5         1.5100    4.2332   17.9477 C.ar      1 RES1    0.0000
     16 H4         1.8273    3.3601   17.9236 H         1 RES1    0.0000
     17 C6         1.4683    4.9866   16.8023 C.ar      1 RES1    0.0000
     18 H5         1.7532    4.6128   16.0004 H         1 RES1    0.0000
     19 C7         1.0407    7.0896   15.6010 C.2       1 RES1    0.0000
     20 H6         1.2190    6.6747   14.7886 H         1 RES1    0.0000
     21 C8         0.6323   10.2981   14.3772 C.2       1 RES1    0.0000
     22 C9         0.8839   10.9592   13.0524 C.ar      1 RES1    0.0000
     23 C10        1.4027   12.2301   12.9378 C.ar      1 RES1    0.0000
     24 C11        1.5409   12.8752   11.7381 C.ar      1 RES1    0.0000
     25 H7         1.8883   13.7369   11.6989 H         1 RES1    0.0000
     26 C12        1.1541   12.2198   10.5866 C.ar      1 RES1    0.0000
     27 H8         1.2491   12.6381    9.7621 H         1 RES1    0.0000
     28 C13        0.6338   10.9615   10.6529 C.ar      1 RES1    0.0000
     29 H9         0.3821   10.5181    9.8752 H         1 RES1    0.0000
     30 C14        0.4817   10.3471   11.8903 C.ar      1 RES1    0.0000
     31 H10        0.0980    9.5014   11.9325 H         1 RES1    0.0000
     32 H11        1.4591    8.6055   13.7909 H         1 RES1    0.0000
@<TRIPOS>BOND
     1    1    2 1
     2    2   21 1
     3    3    7 2
     4    4    5 1
     5    6   21 2
     6    8    3 2
     7    9   10 ar
     8   10   11 1
     9   12   10 ar
    10   13   12 1
    11   14    4 1
    12   15   14 ar
    13   16   15 1
    14   17    9 ar
    15   18   17 1
    16   19    1 2
    17   20   19 1
    18   21   22 1
    19   22   23 ar
    20   23    3 1
    21   24   23 ar
    22   25   24 1
    23   26   24 ar
    24   27   26 1
    25   28   26 ar
    26   29   28 1
    27   30   22 ar
    28   31   30 1
    29   32    2 1
    30    9   19 1
    31   12   14 ar
    32   15   17 ar
    33   28   30 ar
@<TRIPOS>SUBSTRUCTURE
     1 RES1 1

@<TRIPOS>CRYSIN
   7.7200   11.3980   15.0720  90.0000  90.0000  90.0000  19 1

