# MOL2 file generated by ConQuest
# Please check atom types

@<TRIPOS>MOLECULE
QUZKIH
    28    29     1
SMALL
NO_CHARGES
****
Generated from CSD

@<TRIPOS>ATOM
      1 H1         9.5848    1.8771   15.7587 H         1 RES1    0.0000
      2 C1         8.0933   -0.6789   13.2522 C.ar      1 RES1    0.0000
      3 C2         6.8572   -0.4773   12.6425 C.ar      1 RES1    0.0000
      4 H2         6.3389    0.2641   12.8569 H         1 RES1    0.0000
      5 C3         6.4161   -1.3982   11.7137 C.ar      1 RES1    0.0000
      6 C4         7.1357   -2.5117   11.3540 C.ar      1 RES1    0.0000
      7 H3         6.8171   -3.1048   10.7122 H         1 RES1    0.0000
      8 C5         8.3565   -2.7205   11.9841 C.ar      1 RES1    0.0000
      9 H4         8.8629   -3.4702   11.7696 H         1 RES1    0.0000
     10 C6         8.8229   -1.8218   12.9277 C.ar      1 RES1    0.0000
     11 H5         9.6347   -1.9824   13.3516 H         1 RES1    0.0000
     12 C7         8.5868    0.3123   14.2014 C.2       1 RES1    0.0000
     13 H6         8.0156    0.9757   14.5137 H         1 RES1    0.0000
     14 C8        11.4767    1.2453   15.9652 C.ar      1 RES1    0.0000
     15 C9        12.3631    0.2043   15.6870 C.ar      1 RES1    0.0000
     16 H7        12.1104   -0.5078   15.1445 H         1 RES1    0.0000
     17 C10       13.6192    0.2625   16.2373 C.ar      1 RES1    0.0000
     18 H8        14.2287   -0.4219   16.0807 H         1 RES1    0.0000
     19 C11       13.9746    1.3456   17.0276 C.ar      1 RES1    0.0000
     20 H9        14.8237    1.4076   17.4038 H         1 RES1    0.0000
     21 C12       13.0367    2.3207   17.2361 C.ar      1 RES1    0.0000
     22 H10       13.2802    3.0499   17.7590 H         1 RES1    0.0000
     23 N1         9.8007    0.2780   14.6079 N.2       1 RES1    0.0000
     24 N2        10.1846    1.2642   15.4652 N.pl3     1 RES1    0.0000
     25 N3        11.7851    2.2974   16.7381 N.ar      1 RES1    0.0000
     26 N4         5.1089   -1.1606   11.0804 N.pl3     1 RES1    0.0000
     27 O1         4.7542   -1.9170   10.1838 O.2       1 RES1    0.0000
     28 O2         4.4321   -0.2259   11.4643 O.2       1 RES1    0.0000
@<TRIPOS>BOND
     1    1   24 1
     2    2    3 ar
     3    3    4 1
     4    5    3 ar
     5    6    5 ar
     6    7    6 1
     7    8    6 ar
     8    9    8 1
     9   10    2 ar
    10   11   10 1
    11   12    2 1
    12   13   12 1
    13   14   15 ar
    14   15   16 1
    15   17   15 ar
    16   18   17 1
    17   19   17 ar
    18   20   19 1
    19   21   19 ar
    20   22   21 1
    21   23   12 2
    22   24   14 1
    23   25   14 ar
    24   26    5 1
    25   27   26 2
    26   28   26 2
    27    8   10 ar
    28   21   25 ar
    29   23   24 1
@<TRIPOS>SUBSTRUCTURE
     1 RES1 1

@<TRIPOS>CRYSIN
  23.9942    5.5373   16.7262  90.0000  97.0340  90.0000  15 1

