# MOL2 file generated by ConQuest
# Please check atom types

@<TRIPOS>MOLECULE
QUZLIH
    28    29     1
SMALL
NO_CHARGES
****
Generated from CSD

@<TRIPOS>ATOM
      1 N1         5.2204    2.6940   10.6244 N.pl3     1 RES1    0.0000
      2 O1         1.5291    2.5647    7.5710 O.3       1 RES1    0.0000
      3 O2         2.4567   -0.0724    9.3487 O.3       1 RES1    0.0000
      4 O3         1.4842   -0.2735    6.8397 O.3       1 RES1    0.0000
      5 H1         1.7746   -0.9464    7.2079 H         1 RES1    0.0000
      6 O4         4.0893    2.8945    8.1935 O.3       1 RES1    0.0000
      7 H2         3.7342    2.8686    7.4549 H         1 RES1    0.0000
      8 O5         5.7906    3.7404   10.3700 O.2       1 RES1    0.0000
      9 O6         5.8021    1.6890   10.9833 O.2       1 RES1    0.0000
     10 C1         1.8358    2.1713    8.9235 C.3       1 RES1    0.0000
     11 H3         1.4224    2.7719    9.5798 H         1 RES1    0.0000
     12 C2         1.3400    0.7398    9.0771 C.3       1 RES1    0.0000
     13 H4         0.6967    0.6845    9.8145 H         1 RES1    0.0000
     14 C3         0.6338    0.4216    7.7314 C.3       1 RES1    0.0000
     15 H5        -0.2065   -0.0613    7.8740 H         1 RES1    0.0000
     16 C4         0.3881    1.8017    7.1710 C.3       1 RES1    0.0000
     17 H6         0.3139    1.7730    6.2050 H         1 RES1    0.0000
     18 H7        -0.4263    2.1818    7.5372 H         1 RES1    0.0000
     19 C5         3.6189    0.6171    8.8768 C.3       1 RES1    0.0000
     20 H8         3.7624    0.4337    7.9342 H         1 RES1    0.0000
     21 H9         4.4045    0.3359    9.3709 H         1 RES1    0.0000
     22 C6         3.3559    2.1017    9.0956 C.3       1 RES1    0.0000
     23 C7         3.7196    2.6387   10.5040 C.3       1 RES1    0.0000
     24 H10        3.3851    3.5581   10.5642 H         1 RES1    0.0000
     25 C8         3.1265    1.8658   11.6494 C.3       1 RES1    0.0000
     26 H11        3.4309    0.9558   11.6137 H         1 RES1    0.0000
     27 H12        2.1689    1.8857   11.5879 H         1 RES1    0.0000
     28 H13        3.4021    2.2619   12.4789 H         1 RES1    0.0000
@<TRIPOS>BOND
     1    1    8 2
     2    2   10 1
     3    3   12 1
     4    4    5 1
     5    6    7 1
     6    9    1 2
     7   10   11 1
     8   12   10 1
     9   13   12 1
    10   14    4 1
    11   15   14 1
    12   16    2 1
    13   17   16 1
    14   18   16 1
    15   19    3 1
    16   20   19 1
    17   21   19 1
    18   22    6 1
    19   23    1 1
    20   24   23 1
    21   25   23 1
    22   26   25 1
    23   27   25 1
    24   28   25 1
    25   10   22 1
    26   12   14 1
    27   14   16 1
    28   19   22 1
    29   22   23 1
@<TRIPOS>SUBSTRUCTURE
     1 RES1 1

@<TRIPOS>CRYSIN
   6.9590    5.5250   12.3840  90.0000  97.0770  90.0000   4 1

