# MOL2 file generated by ConQuest
# Please check atom types

@<TRIPOS>MOLECULE
QUZQUY
    48    47     1
SMALL
USER_CHARGES
****
Generated from CSD

@<TRIPOS>ATOM
      1 O1         0.0789    4.4034   11.1195 O.2       1 RES1   -1.0000
      2 O2         3.8890    2.9438    7.4223 O.2       1 RES1    0.0000
      3 N1         0.7754    3.2396   10.8380 N.4       1 RES1    1.0000
      4 N2         2.4058    4.6253    7.7361 N.am      1 RES1    0.0000
      5 C1         1.3048    3.2534    9.4276 C.3       1 RES1    0.0000
      6 H1         0.5438    3.3193    8.7984 H         1 RES1    0.0000
      7 H2         1.7712    2.3986    9.2495 H         1 RES1    0.0000
      8 C2         2.2653    4.4057    9.1663 C.3       1 RES1    0.0000
      9 H3         1.9229    5.2290    9.5973 H         1 RES1    0.0000
     10 H4         3.1497    4.1970    9.5589 H         1 RES1    0.0000
     11 C3         3.2224    3.8842    6.9762 C.2       1 RES1    0.0000
     12 C4         3.2476    4.2687    5.5126 C.3       1 RES1    0.0000
     13 H5         2.8128    5.1519    5.4088 H         1 RES1    0.0000
     14 H6         2.7142    3.6094    5.0015 H         1 RES1    0.0000
     15 C5         4.6495    4.3380    4.9097 C.3       1 RES1    0.0000
     16 H7         5.2198    4.9221    5.4682 H         1 RES1    0.0000
     17 H8         5.0507    3.4330    4.9036 H         1 RES1    0.0000
     18 C6         4.6063    4.8824    3.4874 C.3       1 RES1    0.0000
     19 H9         4.1517    5.7620    3.4963 H         1 RES1    0.0000
     20 H10        4.0644    4.2706    2.9282 H         1 RES1    0.0000
     21 C7         5.9774    5.0469    2.8451 C.3       1 RES1    0.0000
     22 H11        6.4317    4.1672    2.8268 H         1 RES1    0.0000
     23 H12        6.5225    5.6574    3.4019 H         1 RES1    0.0000
     24 C8         5.9084    5.5994    1.4247 C.3       1 RES1    0.0000
     25 H13        5.3754    4.9801    0.8671 H         1 RES1    0.0000
     26 H14        5.4365    6.4695    1.4422 H         1 RES1    0.0000
     27 C9         7.2720    5.7939    0.7779 C.3       1 RES1    0.0000
     28 H15        7.7968    6.4284    1.3268 H         1 RES1    0.0000
     29 H16        7.7510    4.9270    0.7797 H         1 RES1    0.0000
     30 C10        7.2152    6.3164   -0.6505 C.3       1 RES1    0.0000
     31 H17        6.7337    7.1815   -0.6591 H         1 RES1    0.0000
     32 H18        6.7012    5.6793   -1.2062 H         1 RES1    0.0000
     33 C11        8.5956    6.5118   -1.2676 C.3       1 RES1    0.0000
     34 H19        9.1051    7.1560   -0.7150 H         1 RES1    0.0000
     35 H20        9.0801    5.6490   -1.2482 H         1 RES1    0.0000
     36 C12        8.5512    7.0197   -2.7002 C.3       1 RES1    0.0000
     37 H21        9.4650    7.1241   -3.0383 H         1 RES1    0.0000
     38 H22        8.0930    7.8852   -2.7254 H         1 RES1    0.0000
     39 H23        8.0672    6.3771   -3.2603 H         1 RES1    0.0000
     40 C13        1.8770    3.0759   11.8266 C.3       1 RES1    0.0000
     41 H24        1.5062    3.0850   12.7335 H         1 RES1    0.0000
     42 H25        2.5164    3.8123   11.7283 H         1 RES1    0.0000
     43 H26        2.3336    2.2235   11.6689 H         1 RES1    0.0000
     44 C14       -0.1491    2.0797   10.9613 C.3       1 RES1    0.0000
     45 H27       -0.5339    2.0635   11.8630 H         1 RES1    0.0000
     46 H28        0.3457    1.2488   10.8018 H         1 RES1    0.0000
     47 H29       -0.8682    2.1628   10.3001 H         1 RES1    0.0000
     48 H30        2.0524    5.3432    7.3789 H         1 RES1    0.0000
@<TRIPOS>BOND
     1    1    3 1
     2    2   11 2
     3    3    5 1
     4    4    8 1
     5    5    6 1
     6    7    5 1
     7    8    5 1
     8    9    8 1
     9   10    8 1
    10   11    4 1
    11   12   11 1
    12   13   12 1
    13   14   12 1
    14   15   12 1
    15   16   15 1
    16   17   15 1
    17   18   15 1
    18   19   18 1
    19   20   18 1
    20   21   18 1
    21   22   21 1
    22   23   21 1
    23   24   21 1
    24   25   24 1
    25   26   24 1
    26   27   24 1
    27   28   27 1
    28   29   27 1
    29   30   27 1
    30   31   30 1
    31   32   30 1
    32   33   30 1
    33   34   33 1
    34   35   33 1
    35   36   33 1
    36   37   36 1
    37   38   36 1
    38   39   36 1
    39   40    3 1
    40   41   40 1
    41   42   40 1
    42   43   40 1
    43   44    3 1
    44   45   44 1
    45   46   44 1
    46   47   44 1
    47   48    4 1
@<TRIPOS>SUBSTRUCTURE
     1 RES1 1

@<TRIPOS>CRYSIN
   5.3780    8.1130   17.8010  79.5500  86.3800  86.3600   2 1

