# MOL2 file generated by ConQuest
# Please check atom types

@<TRIPOS>MOLECULE
QUZROT
    43    45     1
SMALL
NO_CHARGES
****
Generated from CSD

@<TRIPOS>ATOM
      1 C1         8.5577    7.8831    5.1496 C.ar      1 RES1    0.0000
      2 N1         8.8615    7.8799    6.4897 N.3       1 RES1    0.0000
      3 O1         8.6318    4.2354    8.6200 O.3       1 RES1    0.0000
      4 C2         9.2697    6.6457    7.1808 C.3       1 RES1    0.0000
      5 C3         8.3190    9.0851    4.4476 C.ar      1 RES1    0.0000
      6 C4         8.3842    6.6607    4.4448 C.ar      1 RES1    0.0000
      7 C5         7.9398    6.6715    3.1385 C.ar      1 RES1    0.0000
      8 C6         7.6980    7.8765    2.4936 C.ar      1 RES1    0.0000
      9 O2         9.4074    3.2257    6.7698 O.2       1 RES1    0.0000
     10 O3         6.9758    6.7975    0.5856 O.2       1 RES1    0.0000
     11 C7         7.8967    9.0788    3.1395 C.ar      1 RES1    0.0000
     12 C8         8.6998    5.3480    5.1065 C.3       1 RES1    0.0000
     13 C9         8.4727    5.4494    6.6120 C.3       1 RES1    0.0000
     14 C10       10.7841    6.4836    7.1097 C.3       1 RES1    0.0000
     15 N2         5.9210    5.8360    7.0574 N.1       1 RES1    0.0000
     16 N3         7.2252    7.8720    1.1274 N.pl3     1 RES1    0.0000
     17 O4         7.0882    8.9530    0.5460 O.2       1 RES1    0.0000
     18 C11        9.4225    9.0538    7.1813 C.3       1 RES1    0.0000
     19 C12        7.0375    5.6645    6.8811 C.1       1 RES1    0.0000
     20 C13       10.9419    9.0015    7.1563 C.3       1 RES1    0.0000
     21 C14        8.9002    4.1527    7.3259 C.2       1 RES1    0.0000
     22 C15       11.4481    7.6943    7.7557 C.3       1 RES1    0.0000
     23 C16        9.0141    3.0949    9.4646 C.3       1 RES1    0.0000
     24 C17       10.4541    3.1583    9.8096 C.3       1 RES1    0.0000
     25 H1         9.0248    6.7517    8.1271 H         1 RES1    0.0000
     26 H2         7.8189    5.8590    2.6789 H         1 RES1    0.0000
     27 H3         7.7357    9.8850    2.6789 H         1 RES1    0.0000
     28 H4         9.6410    5.1044    4.9469 H         1 RES1    0.0000
     29 H5         8.1522    4.6434    4.7237 H         1 RES1    0.0000
     30 H6        11.0251    5.6602    7.5700 H         1 RES1    0.0000
     31 H7        11.0529    6.4171    6.1727 H         1 RES1    0.0000
     32 H8        11.2984    9.7650    7.6543 H         1 RES1    0.0000
     33 H9        11.2469    9.0651    6.2285 H         1 RES1    0.0000
     34 H10       12.4073    7.6201    7.6421 H         1 RES1    0.0000
     35 H11       11.2417    7.7059    8.7126 H         1 RES1    0.0000
     36 H12        8.4720    3.1906   10.2733 H         1 RES1    0.0000
     37 H13        8.7987    2.2654    8.9755 H         1 RES1    0.0000
     38 H14       10.6682    2.4412   10.4205 H         1 RES1    0.0000
     39 H15       10.6564    4.0060   10.2348 H         1 RES1    0.0000
     40 H16       11.0054    3.0543    9.0059 H         1 RES1    0.0000
     41 H17        8.4527    9.9073    4.8850 H         1 RES1    0.0000
     42 H18        9.1178    9.0597    8.1028 H         1 RES1    0.0000
     43 H19        9.1232    9.8625    6.7369 H         1 RES1    0.0000
@<TRIPOS>BOND
     1    1    2 1
     2    2    4 1
     3    3   21 1
     4    4   13 1
     5    5    1 ar
     6    6    1 ar
     7    7    6 ar
     8    8    7 ar
     9    9   21 2
    10   10   16 2
    11   11    5 ar
    12   12    6 1
    13   13   12 1
    14   14    4 1
    15   15   19 3
    16   16    8 1
    17   17   16 2
    18   18    2 1
    19   19   13 1
    20   20   18 1
    21   21   13 1
    22   22   14 1
    23   23    3 1
    24   24   23 1
    25   25    4 1
    26   26    7 1
    27   27   11 1
    28   28   12 1
    29   29   12 1
    30   30   14 1
    31   31   14 1
    32   32   20 1
    33   33   20 1
    34   34   22 1
    35   35   22 1
    36   36   23 1
    37   37   23 1
    38   38   24 1
    39   39   24 1
    40   40   24 1
    41   41    5 1
    42   42   18 1
    43   43   18 1
    44    8   11 ar
    45   20   22 1
@<TRIPOS>SUBSTRUCTURE
     1 RES1 1

@<TRIPOS>CRYSIN
   8.8257    9.2256   10.5011  88.2460  75.0890  83.2890   2 1

