# MOL2 file generated by ConQuest
# Please check atom types

@<TRIPOS>MOLECULE
QUZVAJ
    63    60     2
SMALL
NO_CHARGES
****
Generated from CSD

@<TRIPOS>ATOM
      1 C1         7.0172    2.1761    3.6453 C.3       1 RES1    0.0000
      2 C2         5.7748    1.5248    4.2595 C.2       1 RES1    0.0000
      3 C3         4.8384    1.2430    3.1697 C.ar      1 RES1    0.0000
      4 C4         3.6336    0.6411    3.1144 C.ar      1 RES1    0.0000
      5 H1         3.2340    0.3533    3.9228 H         1 RES1    0.0000
      6 C5         2.9505    0.4188    1.8795 C.ar      1 RES1    0.0000
      7 H2         2.0875    0.0119    1.8784 H         1 RES1    0.0000
      8 C6         3.5355    0.7999    0.6978 C.ar      1 RES1    0.0000
      9 H3         3.0830    0.6213   -0.1183 H         1 RES1    0.0000
     10 C7         4.7634    1.4331    0.6543 C.ar      1 RES1    0.0000
     11 H4         5.1734    1.7050   -0.1584 H         1 RES1    0.0000
     12 C8         5.3788    1.6479    1.9630 C.ar      1 RES1    0.0000
     13 C9         6.7357    2.2842    2.1393 C.3       1 RES1    0.0000
     14 H5         6.7216    3.2314    1.8502 H         1 RES1    0.0000
     15 H6         7.4222    1.8003    1.6169 H         1 RES1    0.0000
     16 C10        7.3744    3.4950    4.3687 C.3       1 RES1    0.0000
     17 H7         7.2405    3.3664    5.3509 H         1 RES1    0.0000
     18 C11        6.5757    4.7001    3.9243 C.ar      1 RES1    0.0000
     19 C12        5.2561    4.8232    4.3650 C.ar      1 RES1    0.0000
     20 H8         4.8973    4.1783    4.9624 H         1 RES1    0.0000
     21 C13        4.4666    5.8785    3.9380 C.ar      1 RES1    0.0000
     22 H9         3.5649    5.9468    4.2288 H         1 RES1    0.0000
     23 C14        4.9990    6.8377    3.0829 C.ar      1 RES1    0.0000
     24 H10        4.4619    7.5625    2.7856 H         1 RES1    0.0000
     25 C15        6.3103    6.7338    2.6682 C.ar      1 RES1    0.0000
     26 H11        6.6784    7.3998    2.0987 H         1 RES1    0.0000
     27 C16        7.0939    5.6683    3.0738 C.ar      1 RES1    0.0000
     28 H12        7.9919    5.5995    2.7693 H         1 RES1    0.0000
     29 C17        9.6178    4.2382    5.1116 C.ar      1 RES1    0.0000
     30 C18       10.9898    4.0060    5.1522 C.ar      1 RES1    0.0000
     31 H13       11.3852    3.3783    4.5598 H         1 RES1    0.0000
     32 C19       11.7784    4.6961    6.0620 C.ar      1 RES1    0.0000
     33 H14       12.7125    4.5276    6.0942 H         1 RES1    0.0000
     34 C20       11.2236    5.6290    6.9249 C.ar      1 RES1    0.0000
     35 H15       11.7743    6.1056    7.5342 H         1 RES1    0.0000
     36 C21        9.8668    5.8573    6.8895 C.ar      1 RES1    0.0000
     37 H16        9.4806    6.4927    7.4821 H         1 RES1    0.0000
     38 C22        9.0552    5.1663    5.9935 C.ar      1 RES1    0.0000
     39 H17        8.1191    5.3255    5.9813 H         1 RES1    0.0000
     40 C23        8.2935    1.3841    4.0090 C.3       1 RES1    0.0000
     41 H18        8.2777    1.1731    4.9863 H         1 RES1    0.0000
     42 C24        8.5373    0.1141    3.2349 C.ar      1 RES1    0.0000
     43 C25        9.4592    0.0415    2.1953 C.ar      1 RES1    0.0000
     44 H19        9.9707    0.8059    1.9598 H         1 RES1    0.0000
     45 C26        9.6310   -1.1497    1.5018 C.ar      1 RES1    0.0000
     46 H20       10.2759   -1.1989    0.8063 H         1 RES1    0.0000
     47 C27        8.8740   -2.2622    1.8122 C.ar      1 RES1    0.0000
     48 H21        8.9889   -3.0687    1.3239 H         1 RES1    0.0000
     49 C28        7.9494   -2.1967    2.8361 C.ar      1 RES1    0.0000
     50 H22        7.4220   -2.9575    3.0493 H         1 RES1    0.0000
     51 C29        7.7894   -1.0167    3.5559 C.ar      1 RES1    0.0000
     52 H23        7.1659   -0.9825    4.2722 H         1 RES1    0.0000
     53 N1         8.8185    3.6358    4.1052 N.3       1 RES1    0.0000
     54 O1         9.3430    2.3178    3.7516 O.3       1 RES1    0.0000
     55 O2         5.6497    1.2831    5.4458 O.2       1 RES1    0.0000
     56 C30        3.5263    0.6153    3.4182 Du        2 SUP2    0.0000
     57 C31        2.8140    0.4446    2.3396 Du        2 SUP2    0.0000
     58 C32        3.2756    0.8476    1.1188 Du        2 SUP2    0.0000
     59 C33        4.5307    1.4311    0.9799 Du        2 SUP2    0.0000
     60 H24        3.2205    0.3632    4.2853 Du        2 SUP2    0.0000
     61 H25        1.9659    0.0278    2.4014 Du        2 SUP2    0.0000
     62 H26        2.7236    0.7305    0.3516 Du        2 SUP2    0.0000
     63 H27        4.7981    1.6912    0.1063 Du        2 SUP2    0.0000
@<TRIPOS>BOND
     1    1    2 1
     2    2    3 1
     3    3    4 ar
     4    4    5 1
     5    6    4 ar
     6    7    6 1
     7    8    6 ar
     8    9    8 1
     9   10    8 ar
    10   11   10 1
    11   12    3 ar
    12   13    1 1
    13   14   13 1
    14   15   13 1
    15   16    1 1
    16   17   16 1
    17   18   16 1
    18   19   18 ar
    19   20   19 1
    20   21   19 ar
    21   22   21 1
    22   23   21 ar
    23   24   23 1
    24   25   23 ar
    25   26   25 1
    26   27   18 ar
    27   28   27 1
    28   29   30 ar
    29   30   31 1
    30   32   30 ar
    31   33   32 1
    32   34   32 ar
    33   35   34 1
    34   36   34 ar
    35   37   36 1
    36   38   29 ar
    37   39   38 1
    38   40    1 1
    39   41   40 1
    40   42   40 1
    41   43   42 ar
    42   44   43 1
    43   45   43 ar
    44   46   45 1
    45   47   45 ar
    46   48   47 1
    47   49   47 ar
    48   50   49 1
    49   51   42 ar
    50   52   51 1
    51   53   16 1
    52   54   40 1
    53   55    2 2
    54   10   12 ar
    55   12   13 1
    56   25   27 ar
    57   29   53 1
    58   36   38 ar
    59   49   51 ar
    60   53   54 1
@<TRIPOS>SUBSTRUCTURE
     1 RES1 1
     2 SUP2 56

@<TRIPOS>CRYSIN
  10.2526   19.8492   11.1911  90.0000 104.1510  90.0000  14 1

