# MOL2 file generated by ConQuest
# Please check atom types

@<TRIPOS>MOLECULE
RABPIP
    28    28     1
SMALL
NO_CHARGES
****
Generated from CSD

@<TRIPOS>ATOM
      1 O1         0.3030   -0.5579   11.0464 O.3       1 RES1    0.0000
      2 O2         0.8850   -1.8727    9.3253 O.2       1 RES1    0.0000
      3 O3        -1.5051    2.0330    7.2632 O.2       1 RES1    0.0000
      4 O4         0.3258    1.9458    6.1545 O.2       1 RES1    0.0000
      5 O5        -2.1965   -1.6773   10.2493 O.2       1 RES1    0.0000
      6 N1        -0.3797    1.5737    7.0734 N.pl3     1 RES1    0.0000
      7 N2        -1.7908    0.3523    9.3600 N.am      1 RES1    0.0000
      8 C1         0.2818   -0.9439    9.7785 C.2       1 RES1    0.0000
      9 C2         1.0651   -1.3894   11.9614 C.3       1 RES1    0.0000
     10 H1         1.0120   -1.0173   12.8556 H         1 RES1    0.0000
     11 H2         1.9920   -1.4156   11.6767 H         1 RES1    0.0000
     12 H3         0.7016   -2.2887   11.9630 H         1 RES1    0.0000
     13 C3        -0.5085    0.0292    8.9411 C.2       1 RES1    0.0000
     14 C4         0.1566    0.5594    7.9289 C.2       1 RES1    0.0000
     15 H4         1.0581    0.2443    7.7583 H         1 RES1    0.0000
     16 C5        -2.6016   -0.5495   10.0220 C.2       1 RES1    0.0000
     17 C6        -4.5992    0.9439    9.6711 C.ar      1 RES1    0.0000
     18 C7        -5.9144    1.2870    9.9851 C.ar      1 RES1    0.0000
     19 C8        -6.5959    0.5948   10.9866 C.ar      1 RES1    0.0000
     20 C9        -5.9620   -0.4405   11.6739 C.ar      1 RES1    0.0000
     21 C10       -4.6466   -0.7835   11.3597 C.ar      1 RES1    0.0000
     22 C11       -3.9653   -0.0914   10.3584 C.ar      1 RES1    0.0000
     23 H5        -4.1257    1.4253    8.9748 H         1 RES1    0.0000
     24 H6        -6.3553    2.0068    9.5072 H         1 RES1    0.0000
     25 H7        -7.5102    0.8333   11.2049 H         1 RES1    0.0000
     26 H8        -6.4354   -0.9218   12.3700 H         1 RES1    0.0000
     27 H9        -4.2058   -1.5034   11.8377 H         1 RES1    0.0000
     28 H10       -2.1125    1.2536    8.9456 H         1 RES1    0.0000
@<TRIPOS>BOND
     1    1    8 1
     2    2    8 2
     3    3    6 2
     4    4    6 2
     5    5   16 2
     6    6   14 1
     7    7   13 1
     8    8   13 1
     9    9    1 1
    10   10    9 1
    11   11    9 1
    12   12    9 1
    13   13   14 2
    14   14   15 1
    15   16    7 1
    16   17   18 ar
    17   18   19 ar
    18   19   20 ar
    19   20   21 ar
    20   21   22 ar
    21   22   16 1
    22   23   17 1
    23   24   18 1
    24   25   19 1
    25   26   20 1
    26   27   21 1
    27   28    7 1
    28   17   22 ar
@<TRIPOS>SUBSTRUCTURE
     1 RES1 1

@<TRIPOS>CRYSIN
  28.5170    4.9550   19.6300  90.0000 121.4000  90.0000  15 1

