# MOL2 file generated by ConQuest
# Please check atom types

@<TRIPOS>MOLECULE
RABSOY
    19    21     1
SMALL
NO_CHARGES
****
Generated from CSD

@<TRIPOS>ATOM
      1 O1        10.2252    3.1452    6.2797 O.3       1 RES1    0.0000
      2 O2         7.2728    1.5527    7.5999 O.3       1 RES1    0.0000
      3 O3         6.2604    1.4830    5.0231 O.3       1 RES1    0.0000
      4 O4         5.3274    0.2512    1.9485 O.3       1 RES1    0.0000
      5 O5        11.3803    4.4013    3.3244 O.3       1 RES1    0.0000
      6 N1         8.1252    2.1293    2.6118 N.2       1 RES1    0.0000
      7 N2         8.4807    2.5034    3.7411 N.2       1 RES1    0.0000
      8 N3         5.0816    0.3475    3.3291 N.2       1 RES1    0.0000
      9 N4         6.4507    0.9263    1.5667 N.2       1 RES1    0.0000
     10 N5        10.2754    3.7783    2.7661 N.2       1 RES1    0.0000
     11 N6        11.4662    4.1999    4.7225 N.2       1 RES1    0.0000
     12 C1         6.0648    1.0801    3.7586 C.2       1 RES1    0.0000
     13 C2         6.9159    1.4321    2.6563 C.2       1 RES1    0.0000
     14 C3         9.7005    3.2128    3.7904 C.2       1 RES1    0.0000
     15 C4        10.4129    3.4662    5.0661 C.2       1 RES1    0.0000
     16 C5         9.3186    2.0695    6.6408 C.3       1 RES1    0.0000
     17 C6         8.0248    2.6450    7.0893 C.3       1 RES1    0.0000
     18 C7         5.8930    1.6346    7.3390 C.3       1 RES1    0.0000
     19 C8         5.5164    0.8511    6.1365 C.3       1 RES1    0.0000
@<TRIPOS>BOND
     1    1   15 1
     2    2   17 1
     3    3   12 1
     4    4    8 1
     5    5   10 1
     6    6    7 2
     7    7   14 1
     8    8   12 2
     9    9    4 1
    10   10   14 2
    11   11    5 1
    12   12   13 1
    13   13    6 1
    14   14   15 1
    15   15   11 2
    16   16    1 1
    17   17   16 1
    18   18    2 1
    19   19    3 1
    20    9   13 2
    21   18   19 1
@<TRIPOS>SUBSTRUCTURE
     1 RES1 1

@<TRIPOS>CRYSIN
  13.2160   11.0670   15.9060  90.0000  90.0000  90.0000  61 1

