# MOL2 file generated by ConQuest
# Please check atom types

@<TRIPOS>MOLECULE
RADDEG
    39    39     1
SMALL
NO_CHARGES
****
Generated from CSD

@<TRIPOS>ATOM
      1 C1         2.5493   12.6599    3.3903 C.ar      1 RES1    0.0000
      2 O1         2.5204   11.4897    2.7106 O.3       1 RES1    0.0000
      3 H1         3.1241   11.4534    2.0575 H         1 RES1    0.0000
      4 C2         3.5557   13.6177    3.1672 C.ar      1 RES1    0.0000
      5 C3         4.7284   13.3844    2.1893 C.3       1 RES1    0.0000
      6 C4         4.2334   13.3271    0.7294 C.3       1 RES1    0.0000
      7 H2         3.6288   12.5635    0.6196 H         1 RES1    0.0000
      8 H3         5.0005   13.2268    0.1283 H         1 RES1    0.0000
      9 H4         3.7556   14.1558    0.5144 H         1 RES1    0.0000
     10 C5         5.4898   12.1062    2.5522 C.3       1 RES1    0.0000
     11 H5         5.8329   12.1791    3.4665 H         1 RES1    0.0000
     12 H6         6.2376   11.9837    1.9304 H         1 RES1    0.0000
     13 H7         4.8851   11.3374    2.4898 H         1 RES1    0.0000
     14 C6         5.7426   14.5298    2.2575 C.3       1 RES1    0.0000
     15 H8         6.4664   14.3643    1.6183 H         1 RES1    0.0000
     16 H9         6.1136   14.5832    3.1637 H         1 RES1    0.0000
     17 H10        5.2975   15.3741    2.0355 H         1 RES1    0.0000
     18 C7         3.4384   14.7982    3.8769 C.ar      1 RES1    0.0000
     19 H11        4.0757   15.4901    3.7474 H         1 RES1    0.0000
     20 C8         2.4051   14.9806    4.7716 C.ar      1 RES1    0.0000
     21 N1         2.3128   16.2484    5.4801 N.pl3     1 RES1    0.0000
     22 O2         3.1241   17.1084    5.2489 O.2       1 RES1    0.0000
     23 O3         1.3957   16.4022    6.2939 O.2       1 RES1    0.0000
     24 C9         1.4621   14.0242    5.0282 C.ar      1 RES1    0.0000
     25 H12        0.7796   14.1871    5.6685 H         1 RES1    0.0000
     26 C10        1.5082   12.8254    4.3543 C.ar      1 RES1    0.0000
     27 C11        0.4499   11.7492    4.5912 C.3       1 RES1    0.0000
     28 C12       -0.3730   11.5420    3.2966 C.3       1 RES1    0.0000
     29 H13        0.2182   11.2266    2.5811 H         1 RES1    0.0000
     30 H14       -0.7834   12.3915    3.0319 H         1 RES1    0.0000
     31 H15       -1.0737   10.8774    3.4585 H         1 RES1    0.0000
     32 C13        1.1035   10.4240    5.0166 C.3       1 RES1    0.0000
     33 H16        1.6976   10.5830    5.7795 H         1 RES1    0.0000
     34 H17        1.6216   10.0592    4.2687 H         1 RES1    0.0000
     35 H18        0.4066    9.7842    5.2744 H         1 RES1    0.0000
     36 C14       -0.5124   12.1387    5.7321 C.3       1 RES1    0.0000
     37 H19       -1.0026   12.9505    5.4824 H         1 RES1    0.0000
     38 H20        0.0010   12.3055    6.5493 H         1 RES1    0.0000
     39 H21       -1.1477   11.4091    5.8870 H         1 RES1    0.0000
@<TRIPOS>BOND
     1    1    2 1
     2    2    3 1
     3    4    1 ar
     4    5    4 1
     5    6    5 1
     6    7    6 1
     7    8    6 1
     8    9    6 1
     9   10    5 1
    10   11   10 1
    11   12   10 1
    12   13   10 1
    13   14    5 1
    14   15   14 1
    15   16   14 1
    16   17   14 1
    17   18    4 ar
    18   19   18 1
    19   20   18 ar
    20   21   20 1
    21   22   21 2
    22   23   21 2
    23   24   20 ar
    24   25   24 1
    25   26    1 ar
    26   27   26 1
    27   28   27 1
    28   29   28 1
    29   30   28 1
    30   31   28 1
    31   32   27 1
    32   33   32 1
    33   34   32 1
    34   35   32 1
    35   36   27 1
    36   37   36 1
    37   38   36 1
    38   39   36 1
    39   24   26 ar
@<TRIPOS>SUBSTRUCTURE
     1 RES1 1

@<TRIPOS>CRYSIN
   9.6126   13.0300   11.5590  90.0000  90.0000  90.0000  33 1

