# MOL2 file generated by ConQuest
# Please check atom types

@<TRIPOS>MOLECULE
RAFHIP
   114   118     1
SMALL
NO_CHARGES
****
Generated from CSD

@<TRIPOS>ATOM
      1 O1         4.9722   -4.1928    5.0196 O.3       1 RES1    0.0000
      2 C1         5.0511   -5.1359    4.0451 C.ar      1 RES1    0.0000
      3 C2         4.2827   -6.2994    4.0618 C.ar      1 RES1    0.0000
      4 C3         4.4958   -7.2285    3.0736 C.ar      1 RES1    0.0000
      5 C4         5.4407   -7.0144    2.0870 C.ar      1 RES1    0.0000
      6 C5         6.1611   -5.8231    2.0476 C.ar      1 RES1    0.0000
      7 C6         5.9651   -4.8692    3.0266 C.ar      1 RES1    0.0000
      8 C7         6.6863   -3.5398    2.9736 C.3       1 RES1    0.0000
      9 N1         5.7390   -8.0564    1.1200 N.pl3     1 RES1    0.0000
     10 O2         5.1737   -9.1393    1.2307 O.2       1 RES1    0.0000
     11 O3         6.5311   -7.8349    0.2304 O.2       1 RES1    0.0000
     12 O4         5.8940   -1.3342    4.6802 O.3       1 RES1    0.0000
     13 C8         5.3922   -1.3683    3.3661 C.ar      1 RES1    0.0000
     14 C9         5.7534   -2.4166    2.5295 C.ar      1 RES1    0.0000
     15 C10        5.2173   -2.4136    1.2534 C.ar      1 RES1    0.0000
     16 C11        4.3345   -1.4483    0.8063 C.ar      1 RES1    0.0000
     17 C12        3.9612   -0.4539    1.7005 C.ar      1 RES1    0.0000
     18 C13        4.4719   -0.4018    2.9933 C.ar      1 RES1    0.0000
     19 C14        3.9939    0.6602    3.9496 C.3       1 RES1    0.0000
     20 C15        3.7480   -1.4927   -0.5971 C.3       1 RES1    0.0000
     21 C16        2.6376   -2.3321   -0.6441 C.3       1 RES1    0.0000
     22 C17        4.7520   -2.0474   -1.5823 C.3       1 RES1    0.0000
     23 C18        3.4884   -0.1444   -1.1443 C.3       1 RES1    0.0000
     24 C19        7.1390   -0.5999    4.8120 C.3       1 RES1    0.0000
     25 C20        7.5289   -0.5434    6.2670 C.3       1 RES1    0.0000
     26 C21        7.7355   -1.8952    6.9111 C.3       1 RES1    0.0000
     27 C22        9.0690   -2.4957    6.6277 C.3       1 RES1    0.0000
     28 C23        9.4099   -3.7812    7.3612 C.3       1 RES1    0.0000
     29 O5         3.4242   -1.5129    5.8654 O.3       1 RES1    0.0000
     30 C24        2.4157   -0.7330    5.4046 C.ar      1 RES1    0.0000
     31 C25        2.6236    0.3442    4.5271 C.ar      1 RES1    0.0000
     32 C26        1.5277    1.0970    4.1739 C.ar      1 RES1    0.0000
     33 C27        0.2894    0.7940    4.6817 C.ar      1 RES1    0.0000
     34 C28        0.0713   -0.2659    5.5289 C.ar      1 RES1    0.0000
     35 C29        1.1482   -1.0584    5.8987 C.ar      1 RES1    0.0000
     36 C30        0.9369   -2.3035    6.7020 C.3       1 RES1    0.0000
     37 N2        -0.8817    1.6171    4.3073 N.pl3     1 RES1    0.0000
     38 O6        -0.6793    2.6631    3.6738 O.2       1 RES1    0.0000
     39 O7        -1.9990    1.2499    4.6104 O.2       1 RES1    0.0000
     40 O8         2.9080   -4.4016    6.9596 O.3       1 RES1    0.0000
     41 C31        1.9501   -4.5212    5.9548 C.ar      1 RES1    0.0000
     42 C32        0.9966   -3.5262    5.8017 C.ar      1 RES1    0.0000
     43 C33        0.1557   -3.6219    4.7044 C.ar      1 RES1    0.0000
     44 C34        0.2386   -4.6390    3.7511 C.ar      1 RES1    0.0000
     45 C35        1.2036   -5.5780    3.9557 C.ar      1 RES1    0.0000
     46 C36        2.0791   -5.5516    5.0257 C.ar      1 RES1    0.0000
     47 C37        3.2296   -6.5533    5.1182 C.3       1 RES1    0.0000
     48 C38       -0.6769   -4.6392    2.5417 C.3       1 RES1    0.0000
     49 C39       -0.0683   -5.1601    1.3610 C.3       1 RES1    0.0000
     50 C40       -1.2076   -3.3222    2.2173 C.3       1 RES1    0.0000
     51 C41       -1.8855   -5.4177    2.7978 C.3       1 RES1    0.0000
     52 C42        2.4995   -4.9779    8.2191 C.3       1 RES1    0.0000
     53 C43        3.5424   -4.6141    9.2527 C.3       1 RES1    0.0000
     54 C44        4.8838   -5.2209    8.9981 C.3       1 RES1    0.0000
     55 C45        5.8267   -4.6027   10.0529 C.3       1 RES1    0.0000
     56 C46        7.0397   -5.4452    9.8195 C.3       1 RES1    0.0000
     57 H1         4.3296   -4.3523    5.5031 H         1 RES1    0.0000
     58 H2         3.9955   -8.0126    3.0660 H         1 RES1    0.0000
     59 H3         6.7722   -5.6710    1.3640 H         1 RES1    0.0000
     60 H4         7.4301   -3.6037    2.3537 H         1 RES1    0.0000
     61 H5         7.0442   -3.3327    3.8511 H         1 RES1    0.0000
     62 H6         5.4628   -3.0945    0.6684 H         1 RES1    0.0000
     63 H7         3.3538    0.1953    1.4277 H         1 RES1    0.0000
     64 H8         3.9543    1.5119    3.4874 H         1 RES1    0.0000
     65 H9         4.6323    0.7457    4.6756 H         1 RES1    0.0000
     66 H10        2.8682   -3.1878   -0.2758 H         1 RES1    0.0000
     67 H11        2.3563   -2.4403   -1.5550 H         1 RES1    0.0000
     68 H12        1.9233   -1.9469   -0.1319 H         1 RES1    0.0000
     69 H13        5.5377   -1.4952   -1.5838 H         1 RES1    0.0000
     70 H14        4.3662   -2.0562   -2.4613 H         1 RES1    0.0000
     71 H15        4.9886   -2.9413   -1.3292 H         1 RES1    0.0000
     72 H16        4.2873    0.3842   -1.0852 H         1 RES1    0.0000
     73 H17        2.7889    0.2764   -0.6396 H         1 RES1    0.0000
     74 H18        3.2209   -0.2182   -2.0627 H         1 RES1    0.0000
     75 H19        7.0283    0.2985    4.4649 H         1 RES1    0.0000
     76 H20        7.8365   -1.0399    4.3013 H         1 RES1    0.0000
     77 H21        6.8370   -0.0695    6.7550 H         1 RES1    0.0000
     78 H22        8.3479   -0.0317    6.3488 H         1 RES1    0.0000
     79 H23        7.6309   -1.8039    7.8705 H         1 RES1    0.0000
     80 H24        7.0467   -2.5003    6.5959 H         1 RES1    0.0000
     81 H25        9.7480   -1.8371    6.8414 H         1 RES1    0.0000
     82 H26        9.1259   -2.6688    5.6744 H         1 RES1    0.0000
     83 H27       10.2869   -4.0753    7.1036 H         1 RES1    0.0000
     84 H28        8.7681   -4.4588    7.1369 H         1 RES1    0.0000
     85 H29        9.3921   -3.6249    8.3085 H         1 RES1    0.0000
     86 H30        4.1130   -1.3375    5.4561 H         1 RES1    0.0000
     87 H31        1.6270    1.8122    3.5889 H         1 RES1    0.0000
     88 H32       -0.7821   -0.4491    5.8487 H         1 RES1    0.0000
     89 H33        0.0722   -2.2650    7.1415 H         1 RES1    0.0000
     90 H34        1.6200   -2.3693    7.3870 H         1 RES1    0.0000
     91 H35       -0.5000   -2.9709    4.5968 H         1 RES1    0.0000
     92 H36        1.2784   -6.2746    3.3434 H         1 RES1    0.0000
     93 H37        3.6365   -6.4934    5.9972 H         1 RES1    0.0000
     94 H38        2.8802   -7.4518    5.0121 H         1 RES1    0.0000
     95 H39        0.2901   -6.0323    1.5429 H         1 RES1    0.0000
     96 H40        0.6393   -4.5749    1.0791 H         1 RES1    0.0000
     97 H41       -0.7265   -5.2239    0.6638 H         1 RES1    0.0000
     98 H42       -1.6272   -2.9461    2.9933 H         1 RES1    0.0000
     99 H43       -1.8536   -3.4026    1.5110 H         1 RES1    0.0000
    100 H44       -0.4911   -2.7502    1.9309 H         1 RES1    0.0000
    101 H45       -2.3148   -5.0910    3.5920 H         1 RES1    0.0000
    102 H46       -1.6504   -6.3417    2.9190 H         1 RES1    0.0000
    103 H47       -2.4829   -5.3344    2.0521 H         1 RES1    0.0000
    104 H48        2.4305   -5.9421    8.1387 H         1 RES1    0.0000
    105 H49        1.6330   -4.6292    8.4798 H         1 RES1    0.0000
    106 H50        3.6357   -3.6484    9.2770 H         1 RES1    0.0000
    107 H51        3.2306   -4.9005   10.1257 H         1 RES1    0.0000
    108 H52        5.1890   -5.0112    8.1024 H         1 RES1    0.0000
    109 H53        4.8458   -6.1852    9.0966 H         1 RES1    0.0000
    110 H54        5.9988   -3.6639    9.8786 H         1 RES1    0.0000
    111 H55        5.4813   -4.7080   10.9532 H         1 RES1    0.0000
    112 H56        7.7388   -5.1737   10.4197 H         1 RES1    0.0000
    113 H57        7.3363   -5.3336    8.9132 H         1 RES1    0.0000
    114 H58        6.8243   -6.3673    9.9741 H         1 RES1    0.0000
@<TRIPOS>BOND
     1    1    2 1
     2    2    3 ar
     3    3    4 ar
     4    4    5 ar
     5    5    6 ar
     6    6    7 ar
     7    7    2 ar
     8    8    7 1
     9    9    5 1
    10   10    9 2
    11   11    9 2
    12   12   13 1
    13   13   14 ar
    14   14    8 1
    15   15   14 ar
    16   16   15 ar
    17   17   16 ar
    18   18   13 ar
    19   19   18 1
    20   20   16 1
    21   21   20 1
    22   22   20 1
    23   23   20 1
    24   24   12 1
    25   25   24 1
    26   26   25 1
    27   27   26 1
    28   28   27 1
    29   29   30 1
    30   30   31 ar
    31   31   19 1
    32   32   31 ar
    33   33   32 ar
    34   34   33 ar
    35   35   30 ar
    36   36   35 1
    37   37   33 1
    38   38   37 2
    39   39   37 2
    40   40   41 1
    41   41   42 ar
    42   42   36 1
    43   43   42 ar
    44   44   43 ar
    45   45   44 ar
    46   46   41 ar
    47   47    3 1
    48   48   44 1
    49   49   48 1
    50   50   48 1
    51   51   48 1
    52   52   40 1
    53   53   52 1
    54   54   53 1
    55   55   54 1
    56   56   55 1
    57   57    1 1
    58   58    4 1
    59   59    6 1
    60   60    8 1
    61   61    8 1
    62   62   15 1
    63   63   17 1
    64   64   19 1
    65   65   19 1
    66   66   21 1
    67   67   21 1
    68   68   21 1
    69   69   22 1
    70   70   22 1
    71   71   22 1
    72   72   23 1
    73   73   23 1
    74   74   23 1
    75   75   24 1
    76   76   24 1
    77   77   25 1
    78   78   25 1
    79   79   26 1
    80   80   26 1
    81   81   27 1
    82   82   27 1
    83   83   28 1
    84   84   28 1
    85   85   28 1
    86   86   29 1
    87   87   32 1
    88   88   34 1
    89   89   36 1
    90   90   36 1
    91   91   43 1
    92   92   45 1
    93   93   47 1
    94   94   47 1
    95   95   49 1
    96   96   49 1
    97   97   49 1
    98   98   50 1
    99   99   50 1
   100  100   50 1
   101  101   51 1
   102  102   51 1
   103  103   51 1
   104  104   52 1
   105  105   52 1
   106  106   53 1
   107  107   53 1
   108  108   54 1
   109  109   54 1
   110  110   55 1
   111  111   55 1
   112  112   56 1
   113  113   56 1
   114  114   56 1
   115   17   18 ar
   116   34   35 ar
   117   45   46 ar
   118   46   47 1
@<TRIPOS>SUBSTRUCTURE
     1 RES1 1

@<TRIPOS>CRYSIN
  12.2080   12.4240   15.1750  92.5280  90.8160 101.7890   2 1

