# MOL2 file generated by ConQuest
# Please check atom types

@<TRIPOS>MOLECULE
RAGJOY
    76    81     1
SMALL
NO_CHARGES
****
Generated from CSD

@<TRIPOS>ATOM
      1 O1         4.2087    3.0576   10.0881 O.3       1 RES1    0.0000
      2 O2         0.2041    3.3843   11.5903 O.2       1 RES1    0.0000
      3 N1         0.1362    1.1812   11.0994 N.pl3     1 RES1    0.0000
      4 N2         0.7490    0.1843   10.3631 N.2       1 RES1    0.0000
      5 N3         4.2349    3.7529   11.3404 N.3       1 RES1    0.0000
      6 C1         2.3233    2.3288   11.1674 C.3       1 RES1    0.0000
      7 C2         4.4734    5.1351   11.1659 C.ar      1 RES1    0.0000
      8 C3         4.6225    7.3215   12.1773 C.ar      1 RES1    0.0000
      9 C4         3.2784    2.9655   13.4562 C.ar      1 RES1    0.0000
     10 C5        -0.2000   -0.6869   10.1088 C.2       1 RES1    0.0000
     11 C6         2.7909    1.7843    8.6362 C.3       1 RES1    0.0000
     12 C7         5.2486    7.0283    9.8619 C.ar      1 RES1    0.0000
     13 C8         2.3973    3.4094   14.5414 C.ar      1 RES1    0.0000
     14 C9         2.9495    3.4429   12.0560 C.3       1 RES1    0.0000
     15 C10        4.3336    5.9979   12.2881 C.ar      1 RES1    0.0000
     16 C11       -1.2374    0.8963   11.2946 C.2       1 RES1    0.0000
     17 C12        4.3351    2.1780   13.7489 C.ar      1 RES1    0.0000
     18 C13       -1.4657   -0.3099   10.6839 C.2       1 RES1    0.0000
     19 C14        0.8104    2.3707   11.2872 C.2       1 RES1    0.0000
     20 C15        4.9558    5.6629    9.9432 C.ar      1 RES1    0.0000
     21 C16        5.0884    7.8744   10.9545 C.ar      1 RES1    0.0000
     22 C17       -2.6878   -1.1728   10.6189 C.3       1 RES1    0.0000
     23 C18       -2.1403    1.7592   12.0974 C.ar      1 RES1    0.0000
     24 C19        2.8265    2.8230    9.7865 C.3       1 RES1    0.0000
     25 C20       -2.7834    2.6723   14.2236 C.ar      1 RES1    0.0000
     26 C21        3.7086    2.1529   16.1102 C.ar      1 RES1    0.0000
     27 C22       -3.2447    2.2869   11.4912 C.ar      1 RES1    0.0000
     28 C23        0.1935   -0.5864    7.0926 C.3       1 RES1    0.0000
     29 C24        0.0260   -1.9435    9.2793 C.3       1 RES1    0.0000
     30 C25        0.8693   -1.5749    8.0122 C.3       1 RES1    0.0000
     31 C26       -2.3453   -2.5466   10.1280 C.3       1 RES1    0.0000
     32 C27       -3.4186   -1.3319   11.9954 C.3       1 RES1    0.0000
     33 C28       -1.8928    1.9267   13.4444 C.ar      1 RES1    0.0000
     34 C29        2.6747    2.9655   15.8292 C.ar      1 RES1    0.0000
     35 C30        1.1499   -2.8901    7.2212 C.3       1 RES1    0.0000
     36 C31       -1.3514   -2.6052    9.0043 C.3       1 RES1    0.0000
     37 C32       -4.1618    3.0325   12.2630 C.ar      1 RES1    0.0000
     38 C33        4.5902    1.7089   15.0988 C.ar      1 RES1    0.0000
     39 C34       -3.9016    3.2000   13.6381 C.ar      1 RES1    0.0000
     40 H1         5.1158    5.0597    9.2424 H         1 RES1    0.0000
     41 H2         5.4797    7.3986    9.0087 H         1 RES1    0.0000
     42 H3         5.3053    8.7766   10.9057 H         1 RES1    0.0000
     43 H4         4.4892    7.9213   12.8929 H         1 RES1    0.0000
     44 H5         4.0577    5.6042   13.1102 H         1 RES1    0.0000
     45 H6         1.6567    3.9523   14.3285 H         1 RES1    0.0000
     46 H7         2.1338    3.2536   16.5478 H         1 RES1    0.0000
     47 H8         3.8435    1.8873   16.9973 H         1 RES1    0.0000
     48 H9         5.2990    1.1451   15.3339 H         1 RES1    0.0000
     49 H10        4.9216    1.9024   13.0185 H         1 RES1    0.0000
     50 H11       -3.3828    2.1629   10.5671 H         1 RES1    0.0000
     51 H12       -4.9516    3.3759   11.9377 H         1 RES1    0.0000
     52 H13       -4.4882    3.7253   14.1422 H         1 RES1    0.0000
     53 H14       -2.6308    2.7862   15.1861 H         1 RES1    0.0000
     54 H15       -1.1166    1.5271   13.8170 H         1 RES1    0.0000
     55 H16        3.1274    2.2149    7.8570 H         1 RES1    0.0000
     56 H17        3.3252    1.0454    8.8535 H         1 RES1    0.0000
     57 H18        1.8946    1.5246    8.4942 H         1 RES1    0.0000
     58 H19        1.6585   -2.6589    6.4420 H         1 RES1    0.0000
     59 H20        1.6690   -3.4773    7.7579 H         1 RES1    0.0000
     60 H21        0.3503   -3.3098    6.9595 H         1 RES1    0.0000
     61 H22        0.7297   -0.4281    6.3474 H         1 RES1    0.0000
     62 H23       -0.6690   -0.8963    6.8279 H         1 RES1    0.0000
     63 H24        0.0723    0.2354    7.5849 H         1 RES1    0.0000
     64 H25       -3.6920   -0.5026   12.3192 H         1 RES1    0.0000
     65 H26       -4.1726   -1.9041   11.8682 H         1 RES1    0.0000
     66 H27       -2.8177   -1.7491   12.6060 H         1 RES1    0.0000
     67 H28        2.3658    4.1516   12.1536 H         1 RES1    0.0000
     68 H29        2.2831    3.5192    9.5188 H         1 RES1    0.0000
     69 H30        2.5490    1.4224   11.3877 H         1 RES1    0.0000
     70 H31        0.5432   -2.5608    9.7835 H         1 RES1    0.0000
     71 H32       -1.1888   -3.5108    8.7692 H         1 RES1    0.0000
     72 H33       -1.7594   -2.1613    8.2665 H         1 RES1    0.0000
     73 H34       -1.8642   -3.0040   10.9279 H         1 RES1    0.0000
     74 H35       -3.0844   -3.0543    9.9713 H         1 RES1    0.0000
     75 H36       -3.2801   -0.7045   10.0378 H         1 RES1    0.0000
     76 H37        1.6512   -1.2272    8.3227 H         1 RES1    0.0000
@<TRIPOS>BOND
     1    1    5 1
     2    2   19 2
     3    3    4 un
     4    4   10 un
     5    5    7 1
     6    6   14 1
     7    7   15 ar
     8    8   15 ar
     9    9   13 ar
    10   10   18 un
    11   11   24 1
    12   12   20 ar
    13   13   34 ar
    14   14    5 1
    15   15   44 1
    16   16    3 un
    17   17    9 ar
    18   18   16 un
    19   19    3 1
    20   20    7 ar
    21   21    8 ar
    22   22   18 1
    23   23   16 1
    24   24    1 1
    25   25   33 ar
    26   26   34 ar
    27   27   23 ar
    28   28   30 1
    29   29   10 1
    30   30   29 1
    31   31   22 1
    32   32   22 1
    33   33   23 ar
    34   34   46 1
    35   35   30 1
    36   36   29 1
    37   37   27 ar
    38   38   17 ar
    39   39   25 ar
    40   40   20 1
    41   41   12 1
    42   42   21 1
    43   43    8 1
    44   45   13 1
    45   47   26 1
    46   48   38 1
    47   49   17 1
    48   50   27 1
    49   51   37 1
    50   52   39 1
    51   53   25 1
    52   54   33 1
    53   55   11 1
    54   56   11 1
    55   57   11 1
    56   58   35 1
    57   59   35 1
    58   60   35 1
    59   61   28 1
    60   62   28 1
    61   63   28 1
    62   64   32 1
    63   65   32 1
    64   66   32 1
    65   67   14 1
    66   68   24 1
    67   69    6 1
    68   70   29 1
    69   71   36 1
    70   72   36 1
    71   73   31 1
    72   74   31 1
    73   75   22 1
    74   76   30 1
    75    6   19 1
    76    6   24 1
    77    9   14 1
    78   12   21 ar
    79   26   38 ar
    80   31   36 1
    81   37   39 ar
@<TRIPOS>SUBSTRUCTURE
     1 RES1 1

@<TRIPOS>CRYSIN
  11.7920    8.3770   15.2970  90.0000 104.8600  90.0000   4 1

