# MOL2 file generated by ConQuest
# Please check atom types

@<TRIPOS>MOLECULE
RAGMAP
    48    48     2
SMALL
NO_CHARGES
****
Generated from CSD

@<TRIPOS>ATOM
      1 O1        -0.1900    3.7346    7.7775 O.2       1 RES1    0.0000
      2 N1         0.4335    3.9806    8.8662 N.3       1 RES1    0.0000
      3 N2         2.5202    2.1505   11.3570 N.2       1 RES1    0.0000
      4 C1         2.0947    3.2704   10.5112 C.3       1 RES1    0.0000
      5 H1         2.8031    3.4351    9.8552 H         1 RES1    0.0000
      6 C2         0.8295    2.8396    9.7398 C.3       1 RES1    0.0000
      7 C3         0.7048    5.4030    9.2083 C.3       1 RES1    0.0000
      8 C4         0.8753    5.4987   10.7229 C.3       1 RES1    0.0000
      9 H2         0.0162    5.3199   11.1375 H         1 RES1    0.0000
     10 H3         1.1193    6.4116   10.9439 H         1 RES1    0.0000
     11 C5         1.9144    4.5580   11.3450 C.3       1 RES1    0.0000
     12 H4         1.5991    4.3018   12.2373 H         1 RES1    0.0000
     13 C6         1.1560    1.6493    8.8478 C.3       1 RES1    0.0000
     14 H5         1.4415    0.9114    9.3916 H         1 RES1    0.0000
     15 H6         1.8585    1.8892    8.2387 H         1 RES1    0.0000
     16 H7         0.3746    1.3974    8.3509 H         1 RES1    0.0000
     17 C7        -0.3437    2.4860   10.6636 C.3       1 RES1    0.0000
     18 H8        -1.1243    2.3074   10.1350 H         1 RES1    0.0000
     19 H9        -0.5187    3.2217   11.2546 H         1 RES1    0.0000
     20 H10       -0.1204    1.7074   11.1794 H         1 RES1    0.0000
     21 C8        -0.4948    6.2420    8.7763 C.3       1 RES1    0.0000
     22 H11       -1.2934    5.8881    9.1758 H         1 RES1    0.0000
     23 H12       -0.5771    6.2155    7.8208 H         1 RES1    0.0000
     24 H13       -0.3693    7.1499    9.0611 H         1 RES1    0.0000
     25 C9         1.9451    5.8623    8.4323 C.3       1 RES1    0.0000
     26 H14        1.8304    5.6660    7.5002 H         1 RES1    0.0000
     27 H15        2.7184    5.4007    8.7640 H         1 RES1    0.0000
     28 H16        2.0632    6.8082    8.5482 H         1 RES1    0.0000
     29 C10        4.2923    4.6731   12.2551 C.3       1 RES1    0.0000
     30 C11        4.6974    3.3122   11.6649 C.3       1 RES1    0.0000
     31 H17        4.8465    3.4221   10.7133 H         1 RES1    0.0000
     32 H18        5.5405    3.0428   12.0634 H         1 RES1    0.0000
     33 C12        3.6921    2.1992   11.8695 C.2       1 RES1    0.0000
     34 N3         3.1810    5.2935   11.5007 N.3       1 RES1    0.0000
     35 H19        2.9907    6.0785   11.8970 H         1 RES1    0.0000
     36 C13        5.4775    5.6298   12.1053 C.3       1 RES1    0.0000
     37 H20        5.6908    5.7323   11.1744 H         1 RES1    0.0000
     38 H21        6.2371    5.2738   12.5702 H         1 RES1    0.0000
     39 H22        5.2471    6.4851   12.4765 H         1 RES1    0.0000
     40 C14        3.9551    4.5103   13.7394 C.3       1 RES1    0.0000
     41 H23        3.2100    3.9124   13.8340 H         1 RES1    0.0000
     42 H24        3.7289    5.3661   14.1114 H         1 RES1    0.0000
     43 H25        4.7150    4.1504   14.2026 H         1 RES1    0.0000
     44 C15        4.1176    1.0791   12.7692 C.3       1 RES1    0.0000
     45 H26        4.2855    1.4219   13.6503 H         1 RES1    0.0000
     46 H27        4.9195    0.6792   12.4247 H         1 RES1    0.0000
     47 H28        3.4220    0.4197   12.8094 H         1 RES1    0.0000
     48 H29        3.4871    5.4829   10.6763 Du        2 SUP2    0.0000
@<TRIPOS>BOND
     1    1    2 1
     2    2    6 1
     3    3    4 1
     4    4    5 1
     5    6    4 1
     6    7    2 1
     7    8    7 1
     8    9    8 1
     9   10    8 1
    10   11    4 1
    11   12   11 1
    12   13    6 1
    13   14   13 1
    14   15   13 1
    15   16   13 1
    16   17    6 1
    17   18   17 1
    18   19   17 1
    19   20   17 1
    20   21    7 1
    21   22   21 1
    22   23   21 1
    23   24   21 1
    24   25    7 1
    25   26   25 1
    26   27   25 1
    27   28   25 1
    28   29   30 1
    29   30   31 1
    30   32   30 1
    31   33    3 2
    32   34   11 1
    33   35   34 1
    34   36   29 1
    35   37   36 1
    36   38   36 1
    37   39   36 1
    38   40   29 1
    39   41   40 1
    40   42   40 1
    41   43   40 1
    42   44   33 1
    43   45   44 1
    44   46   44 1
    45   47   44 1
    46    8   11 1
    47   29   34 1
    48   30   33 1
@<TRIPOS>SUBSTRUCTURE
     1 RES1 1
     2 SUP2 48

@<TRIPOS>CRYSIN
   8.6580   14.4210   12.4890  90.0000  99.1600  90.0000  14 1

