# MOL2 file generated by ConQuest
# Please check atom types

@<TRIPOS>MOLECULE
RAHBUA
    31    33     1
SMALL
NO_CHARGES
****
Generated from CSD

@<TRIPOS>ATOM
      1 C1         3.4461   -1.1462    5.2683 C.2       1 RES1    0.0000
      2 C2         2.4751   -0.1540    4.7420 C.2       1 RES1    0.0000
      3 C3         2.9495    0.2361    3.4296 C.ar      1 RES1    0.0000
      4 C4         2.4737    1.0945    2.4477 C.ar      1 RES1    0.0000
      5 H1         1.6541    1.5639    2.5512 H         1 RES1    0.0000
      6 C5         3.2532    1.2347    1.3056 C.ar      1 RES1    0.0000
      7 C6         4.4710    0.5863    1.1191 C.ar      1 RES1    0.0000
      8 H2         4.9818    0.7456    0.3341 H         1 RES1    0.0000
      9 C7         4.9358   -0.2957    2.0880 C.ar      1 RES1    0.0000
     10 H3         5.7535   -0.7662    1.9746 H         1 RES1    0.0000
     11 C8         4.1623   -0.4620    3.2233 C.ar      1 RES1    0.0000
     12 C9         0.0619    0.2735    7.3149 C.ar      1 RES1    0.0000
     13 C10       -0.1266   -0.3017    8.5706 C.ar      1 RES1    0.0000
     14 H4         0.5075   -0.9208    8.9131 H         1 RES1    0.0000
     15 C11       -1.2440    0.0351    9.3153 C.ar      1 RES1    0.0000
     16 H5        -1.3796   -0.3624   10.1680 H         1 RES1    0.0000
     17 C12       -2.1704    0.9502    8.8251 C.ar      1 RES1    0.0000
     18 H6        -2.9414    1.1710    9.3355 H         1 RES1    0.0000
     19 C13       -1.9600    1.5370    7.5870 C.ar      1 RES1    0.0000
     20 H7        -2.5850    2.1729    7.2570 H         1 RES1    0.0000
     21 C14       -0.8462    1.2084    6.8197 C.ar      1 RES1    0.0000
     22 H8        -0.7070    1.6146    5.9719 H         1 RES1    0.0000
     23 N1         4.4165   -1.2856    4.3157 N.am      1 RES1    0.0000
     24 H9         5.1093   -1.8238    4.3839 H         1 RES1    0.0000
     25 N2         2.7812    2.1135    0.2352 N.pl3     1 RES1    0.0000
     26 N3         1.4098    0.3071    5.3533 N.2       1 RES1    0.0000
     27 N4         1.1734   -0.1480    6.5698 N.pl3     1 RES1    0.0000
     28 H10        1.7289   -0.7325    6.9228 H         1 RES1    0.0000
     29 O1         3.3978   -1.7469    6.3545 O.2       1 RES1    0.0000
     30 O2         1.6651    2.6108    0.3437 O.2       1 RES1    0.0000
     31 O3         3.5095    2.2934   -0.7416 O.2       1 RES1    0.0000
@<TRIPOS>BOND
     1    1    2 1
     2    2    3 1
     3    3    4 ar
     4    4    5 1
     5    6    4 ar
     6    7    6 ar
     7    8    7 1
     8    9    7 ar
     9   10    9 1
    10   11    3 ar
    11   12   13 ar
    12   13   14 1
    13   15   13 ar
    14   16   15 1
    15   17   15 ar
    16   18   17 1
    17   19   17 ar
    18   20   19 1
    19   21   12 ar
    20   22   21 1
    21   23    1 1
    22   24   23 1
    23   25    6 1
    24   26    2 2
    25   27   12 1
    26   28   27 1
    27   29    1 2
    28   30   25 2
    29   31   25 2
    30    9   11 ar
    31   11   23 1
    32   19   21 ar
    33   26   27 1
@<TRIPOS>SUBSTRUCTURE
     1 RES1 1

@<TRIPOS>CRYSIN
   5.7504    9.7190   12.1976 111.1960  96.7590  98.4970   2 1

