# MOL2 file generated by ConQuest
# Please check atom types

@<TRIPOS>MOLECULE
RAHJAL
    47    50     1
SMALL
NO_CHARGES
****
Generated from CSD

@<TRIPOS>ATOM
      1 O1        -4.7857    7.6289    4.8495 O.2       1 RES1    0.0000
      2 O2        -1.4433    8.3573   -0.7354 O.3       1 RES1    0.0000
      3 O3         1.6926    5.3343   -1.7952 O.2       1 RES1    0.0000
      4 O4        -1.6389    5.0452    2.7651 O.2       1 RES1    0.0000
      5 N1        -3.2264    6.0868    4.0760 N.am      1 RES1    0.0000
      6 N2        -3.6036    7.9082    2.8838 N.am      1 RES1    0.0000
      7 N3        -0.4008    8.1305   -1.6368 N.2       1 RES1    0.0000
      8 C1        -0.4037    6.2990    7.4714 C.3       1 RES1    0.0000
      9 C2        -1.1011    5.7314    6.2503 C.3       1 RES1    0.0000
     10 C3        -2.6121    5.6382    6.4269 C.3       1 RES1    0.0000
     11 C4        -3.3427    5.1477    5.1890 C.3       1 RES1    0.0000
     12 C5        -3.9749    7.2807    4.0151 C.2       1 RES1    0.0000
     13 C6        -2.6228    7.1844    2.1225 C.3       1 RES1    0.0000
     14 C7        -2.9063    6.8828    0.6395 C.3       1 RES1    0.0000
     15 C8        -1.4679    7.3055    0.2847 C.3       1 RES1    0.0000
     16 C9         0.1473    6.9949   -1.3825 C.2       1 RES1    0.0000
     17 C10       -0.4850    6.2690   -0.2467 C.3       1 RES1    0.0000
     18 C11       -1.2978    7.8785    1.7008 C.3       1 RES1    0.0000
     19 C12       -2.4053    5.9580    2.9965 C.2       1 RES1    0.0000
     20 C13        1.2800    6.4214   -2.1728 C.2       1 RES1    0.0000
     21 C14        1.9181    7.1363   -3.3101 C.ar      1 RES1    0.0000
     22 C15        1.3401    8.1872   -4.0212 C.ar      1 RES1    0.0000
     23 C16        2.0221    8.8060   -5.0566 C.ar      1 RES1    0.0000
     24 C17        3.3027    8.3768   -5.3961 C.ar      1 RES1    0.0000
     25 C18        3.8801    7.3214   -4.7125 C.ar      1 RES1    0.0000
     26 C19        3.2031    6.6980   -3.6771 C.ar      1 RES1    0.0000
     27 H1        -3.9451    8.6987    2.6143 H         1 RES1    0.0000
     28 H2        -0.7373    7.2243    7.6694 H         1 RES1    0.0000
     29 H3        -0.5477    5.7372    8.2678 H         1 RES1    0.0000
     30 H4         0.5474    6.3883    7.3237 H         1 RES1    0.0000
     31 H5        -0.8870    6.3163    5.4920 H         1 RES1    0.0000
     32 H6        -0.7257    4.8331    6.0371 H         1 RES1    0.0000
     33 H7        -3.0014    6.5293    6.6492 H         1 RES1    0.0000
     34 H8        -2.8271    5.0297    7.1639 H         1 RES1    0.0000
     35 H9        -2.9741    4.2866    4.8830 H         1 RES1    0.0000
     36 H10       -4.2946    5.0367    5.3931 H         1 RES1    0.0000
     37 H11       -3.5537    7.5742    0.3578 H         1 RES1    0.0000
     38 H12       -3.1627    5.9533    0.3715 H         1 RES1    0.0000
     39 H13        0.1471    5.9114    0.4385 H         1 RES1    0.0000
     40 H14       -0.9562    5.4879   -0.6227 H         1 RES1    0.0000
     41 H15       -0.4792    7.6088    2.1941 H         1 RES1    0.0000
     42 H16       -1.4445    8.8171    1.6109 H         1 RES1    0.0000
     43 H17        0.4269    8.4931   -3.7959 H         1 RES1    0.0000
     44 H18        1.5785    9.5441   -5.5377 H         1 RES1    0.0000
     45 H19        3.7656    8.8197   -6.1483 H         1 RES1    0.0000
     46 H20        4.7845    7.0034   -4.9637 H         1 RES1    0.0000
     47 H21        3.5929    5.9613   -3.2157 H         1 RES1    0.0000
@<TRIPOS>BOND
     1    1   12 2
     2    2    7 1
     3    3   20 2
     4    4   19 2
     5    5   11 1
     6    6   12 1
     7    7   16 2
     8    8    9 1
     9    9   10 1
    10   10   11 1
    11   11   35 1
    12   12    5 1
    13   13    6 1
    14   14   13 1
    15   15    2 1
    16   16   17 1
    17   17   15 1
    18   18   13 1
    19   19    5 1
    20   20   16 1
    21   21   20 1
    22   22   21 ar
    23   23   22 ar
    24   24   23 ar
    25   25   24 ar
    26   26   21 ar
    27   27    6 1
    28   28    8 1
    29   29    8 1
    30   30    8 1
    31   31    9 1
    32   32    9 1
    33   33   10 1
    34   34   10 1
    35   36   11 1
    36   37   14 1
    37   38   14 1
    38   39   17 1
    39   40   17 1
    40   41   18 1
    41   42   18 1
    42   43   22 1
    43   44   23 1
    44   45   24 1
    45   46   25 1
    46   47   26 1
    47   13   19 1
    48   14   15 1
    49   15   18 1
    50   25   26 ar
@<TRIPOS>SUBSTRUCTURE
     1 RES1 1

@<TRIPOS>CRYSIN
   6.1496    9.6315   15.2827  93.1940  92.7280 106.0310   2 1

