# MOL2 file generated by ConQuest
# Please check atom types

@<TRIPOS>MOLECULE
RAHYIJ
    58    60     1
SMALL
NO_CHARGES
****
Generated from CSD

@<TRIPOS>ATOM
      1 O1        10.1600    9.1758    1.1054 O.3       1 RES1    0.0000
      2 O2         7.9473    9.0479    0.5940 O.3       1 RES1    0.0000
      3 O3         7.4823    9.4512    4.1974 O.3       1 RES1    0.0000
      4 O4         5.3846    9.3860    3.3203 O.3       1 RES1    0.0000
      5 O5        13.1310   10.9523    7.2171 O.3       1 RES1    0.0000
      6 O6        13.3826    6.3857    7.3530 O.3       1 RES1    0.0000
      7 O7        11.8883    6.8088    2.9973 O.3       1 RES1    0.0000
      8 H1        11.7119    6.3141    3.6272 H         1 RES1    0.0000
      9 O8         9.6017    7.6895    4.3830 O.3       1 RES1    0.0000
     10 H2         8.8978    8.0274    4.6333 H         1 RES1    0.0000
     11 O9        11.6231   11.7958    5.1240 O.2       1 RES1    0.0000
     12 O10       12.6158   10.9471    3.4025 O.2       1 RES1    0.0000
     13 N1        13.2395    8.6704    7.3512 N.ar      1 RES1    0.0000
     14 N2        12.6221    7.3081    5.4671 N.ar      1 RES1    0.0000
     15 N3        12.2259   10.8987    4.5696 N.pl3     1 RES1    0.0000
     16 C1        12.5000    9.6721    5.3283 C.ar      1 RES1    0.0000
     17 C2        12.9513    9.7519    6.6463 C.ar      1 RES1    0.0000
     18 C3        13.0716    7.5070    6.7135 C.ar      1 RES1    0.0000
     19 C4        12.3307    8.4116    4.7666 C.ar      1 RES1    0.0000
     20 C5        11.7129    8.1509    3.3910 C.3       1 RES1    0.0000
     21 H3        12.1653    8.7242    2.7373 H         1 RES1    0.0000
     22 C6        10.2268    8.5435    3.4320 C.3       1 RES1    0.0000
     23 H4        10.1313    9.4803    3.7041 H         1 RES1    0.0000
     24 C7         9.5662    8.3195    2.0866 C.3       1 RES1    0.0000
     25 H5         9.6901    7.3853    1.8174 H         1 RES1    0.0000
     26 C8         9.2621    9.1689    0.0009 C.3       1 RES1    0.0000
     27 C9         8.0795    8.6849    1.9756 C.3       1 RES1    0.0000
     28 H6         7.5316    7.8929    2.1608 H         1 RES1    0.0000
     29 C10        7.5865    9.8521    2.8133 C.3       1 RES1    0.0000
     30 H7         8.1851   10.6229    2.7193 H         1 RES1    0.0000
     31 C11        6.0828    9.3326    4.5499 C.3       1 RES1    0.0000
     32 C12        6.1533   10.2399    2.4674 C.3       1 RES1    0.0000
     33 H8         5.9856   11.1754    2.6630 H         1 RES1    0.0000
     34 H9         5.9591   10.0704    1.5330 H         1 RES1    0.0000
     35 C13       13.4723   10.9494    8.6286 C.3       1 RES1    0.0000
     36 H10       14.3034   10.4860    8.7558 H         1 RES1    0.0000
     37 H11       12.7800   10.5066    9.1248 H         1 RES1    0.0000
     38 H12       13.5601   11.8540    8.9386 H         1 RES1    0.0000
     39 C14       13.7543    6.4819    8.7422 C.3       1 RES1    0.0000
     40 H13       13.0250    6.8557    9.2435 H         1 RES1    0.0000
     41 H14       14.5260    7.0472    8.8284 H         1 RES1    0.0000
     42 H15       13.9583    5.6065    9.0795 H         1 RES1    0.0000
     43 C15        9.4967    7.9814   -0.8959 C.3       1 RES1    0.0000
     44 H16        9.5104    7.1793   -0.3690 H         1 RES1    0.0000
     45 H17       10.3375    8.0832   -1.3477 H         1 RES1    0.0000
     46 H18        8.7916    7.9257   -1.5441 H         1 RES1    0.0000
     47 C16        9.3644   10.4872   -0.7072 C.3       1 RES1    0.0000
     48 H19       10.2374   10.5720   -1.0992 H         1 RES1    0.0000
     49 H20        9.2245   11.1997   -0.0794 H         1 RES1    0.0000
     50 H21        8.6976   10.5320   -1.3972 H         1 RES1    0.0000
     51 C17        5.6960   10.4835    5.4421 C.3       1 RES1    0.0000
     52 H22        4.7562   10.4399    5.6291 H         1 RES1    0.0000
     53 H23        5.8978   11.3111    5.0014 H         1 RES1    0.0000
     54 H24        6.1898   10.4302    6.2645 H         1 RES1    0.0000
     55 C18        5.8557    7.9850    5.1747 C.3       1 RES1    0.0000
     56 H25        6.1470    7.2980    4.5701 H         1 RES1    0.0000
     57 H26        4.9217    7.8711    5.3601 H         1 RES1    0.0000
     58 H27        6.3532    7.9232    5.9929 H         1 RES1    0.0000
@<TRIPOS>BOND
     1    1   24 1
     2    2   26 1
     3    3   29 1
     4    4   31 1
     5    5   17 1
     6    6   18 1
     7    7    8 1
     8    9   10 1
     9   11   15 2
    10   12   15 2
    11   13   17 ar
    12   14   18 ar
    13   15   16 1
    14   16   17 ar
    15   18   13 ar
    16   19   14 ar
    17   20    7 1
    18   21   20 1
    19   22    9 1
    20   23   22 1
    21   24   22 1
    22   25   24 1
    23   26    1 1
    24   27    2 1
    25   28   27 1
    26   29   27 1
    27   30   29 1
    28   31    3 1
    29   32    4 1
    30   33   32 1
    31   34   32 1
    32   35    5 1
    33   36   35 1
    34   37   35 1
    35   38   35 1
    36   39    6 1
    37   40   39 1
    38   41   39 1
    39   42   39 1
    40   43   26 1
    41   44   43 1
    42   45   43 1
    43   46   43 1
    44   47   26 1
    45   48   47 1
    46   49   47 1
    47   50   47 1
    48   51   31 1
    49   52   51 1
    50   53   51 1
    51   54   51 1
    52   55   31 1
    53   56   55 1
    54   57   55 1
    55   58   55 1
    56   16   19 ar
    57   19   20 1
    58   20   22 1
    59   24   27 1
    60   29   32 1
@<TRIPOS>SUBSTRUCTURE
     1 RES1 1

@<TRIPOS>CRYSIN
  20.4218   12.1169    8.5406  90.0000  90.0000  90.0000  18 1

