# MOL2 file generated by ConQuest
# Please check atom types

@<TRIPOS>MOLECULE
RAHZUY
    56    60     1
SMALL
NO_CHARGES
****
Generated from CSD

@<TRIPOS>ATOM
      1 O1         1.3952    6.7066    1.9341 O.3       1 RES1    0.0000
      2 O2         1.4510    2.8821    5.2658 O.2       1 RES1    0.0000
      3 O3        -1.6436   14.2321    4.3367 O.2       1 RES1    0.0000
      4 O4        -0.4326   14.8396    2.6494 O.2       1 RES1    0.0000
      5 N1         1.1636    8.0647    1.5987 N.2       1 RES1    0.0000
      6 N2         0.7399    7.6996    3.7926 N.2       1 RES1    0.0000
      7 N3         0.2453    3.6365    7.0458 N.am      1 RES1    0.0000
      8 H1        -0.1858    4.3908    7.3723 H         1 RES1    0.0000
      9 N4        -0.8515   13.9960    3.4307 N.pl3     1 RES1    0.0000
     10 N5         1.6775   10.6070   -0.4191 N.1       1 RES1    0.0000
     11 N6        -0.0238   -0.8083   10.3942 N.3       1 RES1    0.0000
     12 C1         0.7847    8.5790    2.7270 C.2       1 RES1    0.0000
     13 C2         1.1175    6.5918    3.2513 C.2       1 RES1    0.0000
     14 C3         1.2679    5.2409    3.8473 C.3       1 RES1    0.0000
     15 H2         2.2267    4.9948    3.8596 H         1 RES1    0.0000
     16 H3         0.7913    4.5808    3.2841 H         1 RES1    0.0000
     17 C4         0.7186    5.1802    5.2584 C.3       1 RES1    0.0000
     18 H4        -0.2343    5.4485    5.2524 H         1 RES1    0.0000
     19 H5         1.2132    5.8195    5.8303 H         1 RES1    0.0000
     20 C5         0.8455    3.7777    5.8407 C.2       1 RES1    0.0000
     21 C6         0.3977    9.9914    2.8820 C.ar      1 RES1    0.0000
     22 C7        -0.2267   10.3837    4.0668 C.ar      1 RES1    0.0000
     23 H6        -0.3741    9.7388    4.7491 H         1 RES1    0.0000
     24 C8        -0.6359   11.6875    4.2723 C.ar      1 RES1    0.0000
     25 H7        -1.0724   11.9417    5.0771 H         1 RES1    0.0000
     26 C9        -0.3924   12.6121    3.2725 C.ar      1 RES1    0.0000
     27 C10        0.2285   12.2806    2.0941 C.ar      1 RES1    0.0000
     28 H8         0.3884   12.9415    1.4318 H         1 RES1    0.0000
     29 C11        0.6199   10.9585    1.8840 C.ar      1 RES1    0.0000
     30 C12        1.2437   10.6700    0.5839 C.1       1 RES1    0.0000
     31 C13        0.1828    2.4876    7.8883 C.ar      1 RES1    0.0000
     32 C14       -0.3669    2.6808    9.1624 C.ar      1 RES1    0.0000
     33 H9        -0.6749    3.5457    9.4057 H         1 RES1    0.0000
     34 C15       -0.4738    1.6483   10.0751 C.ar      1 RES1    0.0000
     35 H10       -0.8465    1.7907   10.9370 H         1 RES1    0.0000
     36 C16       -0.0191    0.3993    9.6913 C.ar      1 RES1    0.0000
     37 C17        0.5378    0.1825    8.4219 C.ar      1 RES1    0.0000
     38 C18        0.6401    1.2384    7.5029 C.ar      1 RES1    0.0000
     39 H11        1.0135    1.0997    6.6404 H         1 RES1    0.0000
     40 C19        0.9105   -1.2168    8.3513 C.ar      1 RES1    0.0000
     41 C20        1.4706   -2.0265    7.3729 C.ar      1 RES1    0.0000
     42 H12        1.7153   -1.6576    6.5326 H         1 RES1    0.0000
     43 C21        1.6719   -3.3761    7.6257 C.ar      1 RES1    0.0000
     44 H13        2.0463   -3.9338    6.9542 H         1 RES1    0.0000
     45 C22        1.3216   -3.9119    8.8716 C.ar      1 RES1    0.0000
     46 H14        1.4651   -4.8383    9.0327 H         1 RES1    0.0000
     47 C23        0.7724   -3.1355    9.8724 C.ar      1 RES1    0.0000
     48 H15        0.5523   -3.5108   10.7168 H         1 RES1    0.0000
     49 C24        0.5514   -1.7799    9.6062 C.ar      1 RES1    0.0000
     50 C25       -0.4808   -0.9772   11.7704 C.3       1 RES1    0.0000
     51 H16       -0.7540   -1.9190   11.9058 H         1 RES1    0.0000
     52 H17       -1.2764   -0.4072   11.9188 H         1 RES1    0.0000
     53 C26        0.5739   -0.6208   12.7846 C.3       1 RES1    0.0000
     54 H18        0.2168   -0.7540   13.6882 H         1 RES1    0.0000
     55 H19        0.8337    0.3171   12.6709 H         1 RES1    0.0000
     56 H20        1.3578   -1.1956   12.6566 H         1 RES1    0.0000
@<TRIPOS>BOND
     1    1    5 1
     2    2   20 2
     3    3    9 2
     4    4    9 2
     5    5   12 2
     6    6   12 1
     7    7    8 1
     8    9   26 1
     9   10   30 3
    10   11   36 1
    11   12   21 1
    12   13    1 1
    13   14   13 1
    14   15   14 1
    15   16   14 1
    16   17   14 1
    17   18   17 1
    18   19   17 1
    19   20    7 1
    20   21   22 ar
    21   22   23 1
    22   24   22 ar
    23   25   24 1
    24   26   24 ar
    25   27   26 ar
    26   28   27 1
    27   29   21 ar
    28   30   29 1
    29   31    7 1
    30   32   31 ar
    31   33   32 1
    32   34   32 ar
    33   35   34 1
    34   36   34 ar
    35   37   36 ar
    36   38   31 ar
    37   39   38 1
    38   40   37 1
    39   41   40 ar
    40   42   41 1
    41   43   41 ar
    42   44   43 1
    43   45   43 ar
    44   46   45 1
    45   47   45 ar
    46   48   47 1
    47   49   11 1
    48   50   11 1
    49   51   50 1
    50   52   50 1
    51   53   50 1
    52   54   53 1
    53   55   53 1
    54   56   53 1
    55    6   13 2
    56   17   20 1
    57   27   29 ar
    58   37   38 ar
    59   40   49 ar
    60   47   49 ar
@<TRIPOS>SUBSTRUCTURE
     1 RES1 1

@<TRIPOS>CRYSIN
   7.6636   12.3628   12.7812 109.0440 100.3370  91.3100   2 1

