# MOL2 file generated by ConQuest
# Please check atom types

@<TRIPOS>MOLECULE
RAJDUB
    50    53     1
SMALL
NO_CHARGES
****
Generated from CSD

@<TRIPOS>ATOM
      1 O1         1.8783   -1.2123    5.8729 O.3       1 RES1    0.0000
      2 O2         1.6262   -3.0856    7.1344 O.3       1 RES1    0.0000
      3 O3         3.5844   -3.4514    4.7893 O.3       1 RES1    0.0000
      4 O4         4.7123   -5.0995    5.8487 O.2       1 RES1    0.0000
      5 O5        10.4302   -1.3512    4.8128 O.2       1 RES1    0.0000
      6 O6         9.2509    0.4544    5.0132 O.2       1 RES1    0.0000
      7 N1         9.3612   -0.7646    4.9571 N.pl3     1 RES1    0.0000
      8 C1         2.6459   -1.0407    7.0728 C.3       1 RES1    0.0000
      9 H1         2.5357   -0.1384    7.3675 H         1 RES1    0.0000
     10 H2         3.6208   -1.2391    6.8580 H         1 RES1    0.0000
     11 C2         2.0873   -2.0590    8.0245 C.3       1 RES1    0.0000
     12 H3         2.7583   -2.4519    8.6468 H         1 RES1    0.0000
     13 H4         1.3307   -1.7005    8.5350 H         1 RES1    0.0000
     14 C3         1.1029   -2.4018    6.0024 C.3       1 RES1    0.0000
     15 C4        -0.3944   -2.0788    6.1890 C.3       1 RES1    0.0000
     16 H5        -0.5681   -1.2259    5.8023 H         1 RES1    0.0000
     17 H6        -0.6158   -1.9905    7.1184 H         1 RES1    0.0000
     18 C5        -1.1677   -3.1980    5.5013 C.3       1 RES1    0.0000
     19 H7        -1.7920   -3.6382    6.0641 H         1 RES1    0.0000
     20 H8        -1.7299   -2.8275    4.7564 H         1 RES1    0.0000
     21 C6        -0.1263   -4.1655    4.9345 C.3       1 RES1    0.0000
     22 H9         0.0686   -4.9169    5.6098 H         1 RES1    0.0000
     23 H10       -0.4353   -4.5742    4.0729 H         1 RES1    0.0000
     24 C7         1.1670   -3.3324    4.7583 C.3       1 RES1    0.0000
     25 C8         1.1128   -2.4229    3.5050 C.3       1 RES1    0.0000
     26 H11        0.4733   -1.6939    3.7092 H         1 RES1    0.0000
     27 H12        1.9905   -2.0103    3.3950 H         1 RES1    0.0000
     28 C9         0.7246   -3.0971    2.2177 C.2       1 RES1    0.0000
     29 H13       -0.0865   -2.8078    1.7775 H         1 RES1    0.0000
     30 C10        1.4201   -4.0640    1.6454 C.2       1 RES1    0.0000
     31 H14        1.0710   -4.4292    0.7982 H         1 RES1    0.0000
     32 C11        2.6633   -4.6645    2.2244 C.3       1 RES1    0.0000
     33 H15        3.0154   -5.3585    1.6303 H         1 RES1    0.0000
     34 H16        3.3878   -3.9678    2.2756 H         1 RES1    0.0000
     35 C12        2.4735   -5.2715    3.6175 C.3       1 RES1    0.0000
     36 H17        3.2124   -5.8528    3.8054 H         1 RES1    0.0000
     37 H18        1.6577   -5.8396    3.6512 H         1 RES1    0.0000
     38 C13        2.3721   -4.2809    4.7756 C.3       1 RES1    0.0000
     39 H19        2.3691   -4.7521    5.6211 H         1 RES1    0.0000
     40 C14        4.6724   -4.0034    5.3358 C.2       1 RES1    0.0000
     41 C15        5.8686   -3.1116    5.2283 C.ar      1 RES1    0.0000
     42 C16        7.1167   -3.6751    5.4915 C.ar      1 RES1    0.0000
     43 H20        7.1764   -4.6005    5.7556 H         1 RES1    0.0000
     44 C17        8.2670   -2.9172    5.3839 C.ar      1 RES1    0.0000
     45 H21        9.0938   -3.3285    5.5475 H         1 RES1    0.0000
     46 C18        8.1370   -1.5805    5.0543 C.ar      1 RES1    0.0000
     47 C19        6.9112   -0.9814    4.8094 C.ar      1 RES1    0.0000
     48 H22        6.8633   -0.0659    4.5583 H         1 RES1    0.0000
     49 C20        5.7687   -1.7631    4.8827 C.ar      1 RES1    0.0000
     50 H23        4.9236   -1.3907    4.7480 H         1 RES1    0.0000
@<TRIPOS>BOND
     1    1    8 1
     2    2   11 1
     3    3   38 1
     4    4   40 2
     5    5    7 2
     6    6    7 2
     7    7   46 1
     8    8    9 1
     9   10    8 1
    10   11    8 1
    11   12   11 1
    12   13   11 1
    13   14    1 1
    14   15   14 1
    15   16   15 1
    16   17   15 1
    17   18   15 1
    18   19   18 1
    19   20   18 1
    20   21   18 1
    21   22   21 1
    22   23   21 1
    23   24   14 1
    24   25   24 1
    25   26   25 1
    26   27   25 1
    27   28   25 1
    28   29   28 1
    29   30   28 2
    30   31   30 1
    31   32   30 1
    32   33   32 1
    33   34   32 1
    34   35   32 1
    35   36   35 1
    36   37   35 1
    37   38   24 1
    38   39   38 1
    39   40    3 1
    40   41   40 1
    41   42   41 ar
    42   43   42 1
    43   44   42 ar
    44   45   44 1
    45   46   44 ar
    46   47   46 ar
    47   48   47 1
    48   49   41 ar
    49   50   49 1
    50    2   14 1
    51   21   24 1
    52   35   38 1
    53   47   49 ar
@<TRIPOS>SUBSTRUCTURE
     1 RES1 1

@<TRIPOS>CRYSIN
  19.2045    6.5910   15.0144  90.0000 109.5150  90.0000  14 1

