# MOL2 file generated by ConQuest
# Please check atom types

@<TRIPOS>MOLECULE
RAJFAJ
    50    53     1
SMALL
NO_CHARGES
****
Generated from CSD

@<TRIPOS>ATOM
      1 O1         6.3965    5.3968    8.4126 O.3       1 RES1    0.0000
      2 O2         6.1292    5.1825    6.1545 O.3       1 RES1    0.0000
      3 O3         5.8084    7.5174    4.7949 O.3       1 RES1    0.0000
      4 O4         3.9315    6.7231    3.8260 O.2       1 RES1    0.0000
      5 O5         9.7544    4.8094   -0.0749 O.2       1 RES1    0.0000
      6 O6         8.0481    3.7620   -0.8975 O.2       1 RES1    0.0000
      7 N1         8.5588    4.5294   -0.0837 N.pl3     1 RES1    0.0000
      8 C1         6.8616    4.0901    8.0736 C.3       1 RES1    0.0000
      9 H1         7.7081    3.9457    8.5133 H         1 RES1    0.0000
     10 H2         6.1953    3.4130    8.2968 H         1 RES1    0.0000
     11 C2         7.0134    4.1659    6.5693 C.3       1 RES1    0.0000
     12 H3         6.8493    3.3835    6.1384 H         1 RES1    0.0000
     13 H4         8.0025    4.4515    6.2548 H         1 RES1    0.0000
     14 C3         5.6043    5.8511    7.3099 C.3       1 RES1    0.0000
     15 C4         4.1397    5.4434    7.4980 C.3       1 RES1    0.0000
     16 H5         4.1046    4.4694    7.5821 H         1 RES1    0.0000
     17 H6         3.6373    5.6901    6.6877 H         1 RES1    0.0000
     18 C5         3.5096    6.1070    8.7285 C.3       1 RES1    0.0000
     19 H7         2.5388    5.8685    8.7706 H         1 RES1    0.0000
     20 H8         3.9464    5.7492    9.5261 H         1 RES1    0.0000
     21 C6         3.6943    7.6231    8.6997 C.3       1 RES1    0.0000
     22 H9         3.1799    8.0172    7.9619 H         1 RES1    0.0000
     23 H10        3.3433    8.0378    9.5241 H         1 RES1    0.0000
     24 C7         5.1653    7.9882    8.5102 C.3       1 RES1    0.0000
     25 H11        5.2665    8.9697    8.5214 H         1 RES1    0.0000
     26 H12        5.6986    7.6335    9.2954 H         1 RES1    0.0000
     27 C8         5.7864    7.3896    7.2172 C.3       1 RES1    0.0000
     28 C9         7.2744    7.7731    7.1451 C.3       1 RES1    0.0000
     29 H13        7.7664    7.2137    6.4774 H         1 RES1    0.0000
     30 H14        7.7059    7.6065    8.0171 H         1 RES1    0.0000
     31 C10        7.4789    9.2221    6.7759 C.2       1 RES1    0.0000
     32 H15        8.3796    9.5858    6.9654 H         1 RES1    0.0000
     33 C11        6.5321   10.0009    6.2576 C.2       1 RES1    0.0000
     34 H16        6.7020   10.9566    6.0404 H         1 RES1    0.0000
     35 C12        5.1500    9.5008    5.9448 C.3       1 RES1    0.0000
     36 H17        4.4681    9.8810    6.5468 H         1 RES1    0.0000
     37 H18        4.8518    9.7937    5.0622 H         1 RES1    0.0000
     38 C13        5.0792    7.9831    5.9756 C.3       1 RES1    0.0000
     39 H19        4.1523    7.7002    5.8790 H         1 RES1    0.0000
     40 C14        5.1357    6.8669    3.8537 C.2       1 RES1    0.0000
     41 C15        6.0561    6.3030    2.8133 C.ar      1 RES1    0.0000
     42 C16        5.5135    5.4401    1.8583 C.ar      1 RES1    0.0000
     43 H20        4.5661    5.2434    1.8746 H         1 RES1    0.0000
     44 C17        6.3306    4.8505    0.9016 C.ar      1 RES1    0.0000
     45 H21        5.9675    4.2564    0.2328 H         1 RES1    0.0000
     46 C18        7.6833    5.1600    0.9181 C.ar      1 RES1    0.0000
     47 C19        8.2467    6.0385    1.8323 C.ar      1 RES1    0.0000
     48 H22        9.1477    6.2318    1.7929 H         1 RES1    0.0000
     49 C20        7.4210    6.6022    2.7984 C.ar      1 RES1    0.0000
     50 H23        7.8112    7.2060    3.4694 H         1 RES1    0.0000
@<TRIPOS>BOND
     1    1    8 1
     2    2   11 1
     3    3   38 1
     4    4   40 2
     5    5    7 2
     6    6    7 2
     7    7   46 1
     8    8    9 1
     9   10    8 1
    10   11    8 1
    11   12   11 1
    12   13   11 1
    13   14    1 1
    14   15   14 1
    15   16   15 1
    16   17   15 1
    17   18   15 1
    18   19   18 1
    19   20   18 1
    20   21   18 1
    21   22   21 1
    22   23   21 1
    23   24   21 1
    24   25   24 1
    25   26   24 1
    26   27   14 1
    27   28   27 1
    28   29   28 1
    29   30   28 1
    30   31   28 1
    31   32   31 1
    32   33   31 2
    33   34   33 1
    34   35   33 1
    35   36   35 1
    36   37   35 1
    37   38   27 1
    38   39   38 1
    39   40    3 1
    40   41   40 1
    41   42   41 ar
    42   43   42 1
    43   44   42 ar
    44   45   44 1
    45   46   44 ar
    46   47   46 ar
    47   48   47 1
    48   49   41 ar
    49   50   49 1
    50    2   14 1
    51   24   27 1
    52   35   38 1
    53   47   49 ar
@<TRIPOS>SUBSTRUCTURE
     1 RES1 1

@<TRIPOS>CRYSIN
   6.8560   12.8358   20.5350  90.0000  96.0550  90.0000 231 1

