# MOL2 file generated by ConQuest
# Please check atom types

@<TRIPOS>MOLECULE
RAJGUG
    15    15     1
SMALL
NO_CHARGES
****
Generated from CSD

@<TRIPOS>ATOM
      1 O1         4.2577   -0.5818    1.0485 O.2       1 RES1    0.0000
      2 N1         3.9441    0.6505    1.3468 N.pl3     1 RES1    0.0000
      3 C1         2.7855    0.9111    2.0102 C.ar      1 RES1    0.0000
      4 C2         2.4846    2.2277    2.3175 C.ar      1 RES1    0.0000
      5 H1         1.6820    2.4225    2.7873 H         1 RES1    0.0000
      6 C3         3.3198    3.2606    1.9588 C.ar      1 RES1    0.0000
      7 H2         3.1014    4.1589    2.1758 H         1 RES1    0.0000
      8 C4         4.4830    2.9622    1.2757 C.ar      1 RES1    0.0000
      9 H3         5.0723    3.6584    1.0113 H         1 RES1    0.0000
     10 C5         4.7834    1.6577    0.9805 C.ar      1 RES1    0.0000
     11 H4         5.5859    1.4548    0.5151 H         1 RES1    0.0000
     12 C6         1.9262   -0.2511    2.3423 C.3       1 RES1    0.0000
     13 H5         1.6321   -0.6860    1.5148 H         1 RES1    0.0000
     14 H6         1.1437    0.0547    2.8471 H         1 RES1    0.0000
     15 H7         2.4353   -0.8889    2.8850 H         1 RES1    0.0000
@<TRIPOS>BOND
     1    1    2 1
     2    2    3 ar
     3    3    4 ar
     4    4    5 1
     5    6    4 ar
     6    7    6 1
     7    8    6 ar
     8    9    8 1
     9   10    2 ar
    10   11   10 1
    11   12    3 1
    12   13   12 1
    13   14   12 1
    14   15   12 1
    15    8   10 ar
@<TRIPOS>SUBSTRUCTURE
     1 RES1 1

@<TRIPOS>CRYSIN
   5.7327   13.3469   14.5930  90.0000  90.0000  90.0000  61 1

