# MOL2 file generated by ConQuest
# Please check atom types

@<TRIPOS>MOLECULE
RAJHOZ
    34    35     1
SMALL
NO_CHARGES
****
Generated from CSD

@<TRIPOS>ATOM
      1 O1         1.4084    8.6549    4.5806 O.2       1 RES1    0.0000
      2 O2         0.0610    7.0712    5.1344 O.2       1 RES1    0.0000
      3 N1         1.0953    7.4697    4.6066 N.pl3     1 RES1    0.0000
      4 N2         2.5181    4.2177    3.6415 N.ar      1 RES1    0.0000
      5 N3         4.4047    3.6597    2.4501 N.3       1 RES1    0.0000
      6 C1         1.7201    5.1587    4.1421 C.ar      1 RES1    0.0000
      7 C2         1.9783    6.5048    4.0029 C.ar      1 RES1    0.0000
      8 C3         3.1168    6.9229    3.3200 C.ar      1 RES1    0.0000
      9 C4         3.9648    5.9953    2.7918 C.ar      1 RES1    0.0000
     10 C5         3.6151    4.6188    2.9702 C.ar      1 RES1    0.0000
     11 C6         5.2246    6.3790    2.0803 C.3       1 RES1    0.0000
     12 C7         4.2682    2.2245    2.7299 C.3       1 RES1    0.0000
     13 C8         4.7275    1.4427    1.5040 C.3       1 RES1    0.0000
     14 C9         5.0429    1.8426    3.9755 C.ar      1 RES1    0.0000
     15 C10        6.4057    2.0934    4.0817 C.ar      1 RES1    0.0000
     16 C11        7.0923    1.7476    5.2292 C.ar      1 RES1    0.0000
     17 C12        6.4378    1.1390    6.2744 C.ar      1 RES1    0.0000
     18 C13        5.0999    0.8633    6.1771 C.ar      1 RES1    0.0000
     19 C14        4.4012    1.2301    5.0395 C.ar      1 RES1    0.0000
     20 H1         0.9193    4.8538    4.6135 H         1 RES1    0.0000
     21 H2         3.3269    7.8515    3.2127 H         1 RES1    0.0000
     22 H3         5.3736    7.3377    2.0635 H         1 RES1    0.0000
     23 H4         5.2386    6.0332    1.1408 H         1 RES1    0.0000
     24 H5         6.0203    6.0064    2.5249 H         1 RES1    0.0000
     25 H6         5.1432    3.8956    2.0719 H         1 RES1    0.0000
     26 H7         3.3200    2.0461    2.8621 H         1 RES1    0.0000
     27 H8         4.1651    1.6797    0.7382 H         1 RES1    0.0000
     28 H9         5.6475    1.6842    1.2834 H         1 RES1    0.0000
     29 H10        4.6561    0.4400    1.6525 H         1 RES1    0.0000
     30 H11        6.8615    2.4973    3.3804 H         1 RES1    0.0000
     31 H12        8.0032    1.9746    5.2510 H         1 RES1    0.0000
     32 H13        6.9056    0.8935    7.0964 H         1 RES1    0.0000
     33 H14        4.6068    0.4400    6.8951 H         1 RES1    0.0000
     34 H15        3.4518    1.0565    4.9910 H         1 RES1    0.0000
@<TRIPOS>BOND
     1    1    3 2
     2    2    3 2
     3    3    7 1
     4    4    6 ar
     5    5   10 1
     6    6    7 ar
     7    7    8 ar
     8    8    9 ar
     9    9   10 ar
    10   10    4 ar
    11   11    9 1
    12   12    5 1
    13   13   12 1
    14   14   12 1
    15   15   14 ar
    16   16   15 ar
    17   17   16 ar
    18   18   17 ar
    19   19   14 ar
    20   20    6 1
    21   21    8 1
    22   22   11 1
    23   23   11 1
    24   24   11 1
    25   25    5 1
    26   26   12 1
    27   27   13 1
    28   28   13 1
    29   29   13 1
    30   30   15 1
    31   31   16 1
    32   32   17 1
    33   33   18 1
    34   34   19 1
    35   18   19 ar
@<TRIPOS>SUBSTRUCTURE
     1 RES1 1

@<TRIPOS>CRYSIN
   6.9781   22.3370    8.3899  90.0000  91.1490  90.0000  14 1

