# MOL2 file generated by ConQuest
# Please check atom types

@<TRIPOS>MOLECULE
RAJJIX
    22    22     1
SMALL
NO_CHARGES
****
Generated from CSD

@<TRIPOS>ATOM
      1 O1         6.0546    2.7957    5.6769 O.3       1 RES1    0.0000
      2 O2         4.2066    3.8062    7.6797 O.2       1 RES1    0.0000
      3 O3         0.2282    3.9491    8.6707 O.3       1 RES1    0.0000
      4 N1         4.8530    2.2186    5.2988 N.pl3     1 RES1    0.0000
      5 N2         2.7030    1.7550    5.1581 N.2       1 RES1    0.0000
      6 N3         1.5995    3.9583    8.4466 N.2       1 RES1    0.0000
      7 C1         1.9020    3.2867    7.4119 C.2       1 RES1    0.0000
      8 H1         1.2391    2.8464    6.8943 H         1 RES1    0.0000
      9 C2         3.6284    2.4069    5.8616 C.2       1 RES1    0.0000
     10 C3         4.7229    1.4471    4.1987 C.2       1 RES1    0.0000
     11 H2         5.4075    1.1622    3.6038 H         1 RES1    0.0000
     12 C4         6.6504    2.0568    6.7699 C.3       1 RES1    0.0000
     13 H3         6.0843    2.1373    7.5655 H         1 RES1    0.0000
     14 H4         7.5403    2.4206    6.9636 H         1 RES1    0.0000
     15 H5         6.7316    1.1127    6.5203 H         1 RES1    0.0000
     16 C5         3.3425    3.2207    7.0483 C.2       1 RES1    0.0000
     17 C6         3.3845    1.1679    4.1322 C.2       1 RES1    0.0000
     18 H6         2.9814    0.6334    3.4577 H         1 RES1    0.0000
     19 C7        -0.0387    4.6384    9.9043 C.3       1 RES1    0.0000
     20 H7         0.2464    4.0815   10.6578 H         1 RES1    0.0000
     21 H8        -0.9996    4.8187    9.9767 H         1 RES1    0.0000
     22 H9         0.4547    5.4851    9.9185 H         1 RES1    0.0000
@<TRIPOS>BOND
     1    1    4 1
     2    2   16 2
     3    3    6 1
     4    4    9 1
     5    5    9 2
     6    6    7 2
     7    7    8 1
     8    9   16 1
     9   10    4 1
    10   11   10 1
    11   12    1 1
    12   13   12 1
    13   14   12 1
    14   15   12 1
    15   16    7 1
    16   17    5 1
    17   18   17 1
    18   19    3 1
    19   20   19 1
    20   21   19 1
    21   22   19 1
    22   10   17 2
@<TRIPOS>SUBSTRUCTURE
     1 RES1 1

@<TRIPOS>CRYSIN
  17.3539    4.0243   12.3842  90.0000  90.0000  90.0000  29 1

