# MOL2 file generated by ConQuest
# Please check atom types

@<TRIPOS>MOLECULE
RAKJUK
    61    65     1
SMALL
NO_CHARGES
****
Generated from CSD

@<TRIPOS>ATOM
      1 C1        -0.8782    4.5717    8.1546 C.3       1 RES1    0.0000
      2 H1        -0.2892    3.8527    8.5227 H         1 RES1    0.0000
      3 O1        -0.4118    5.0073    6.9093 O.3       1 RES1    0.0000
      4 C2        -0.2238    3.9153    5.9911 C.3       1 RES1    0.0000
      5 H2        -1.0830    3.4429    5.8505 H         1 RES1    0.0000
      6 H3         0.4273    3.2713    6.3653 H         1 RES1    0.0000
      7 C3         0.2814    4.4476    4.6879 C.3       1 RES1    0.0000
      8 H4        -0.3768    5.0678    4.3112 H         1 RES1    0.0000
      9 H5         0.4244    3.7049    4.0654 H         1 RES1    0.0000
     10 H6         1.1280    4.9201    4.8345 H         1 RES1    0.0000
     11 O2        -2.2038    4.0878    7.9525 O.3       1 RES1    0.0000
     12 C4        -2.6690    3.3571    9.0817 C.3       1 RES1    0.0000
     13 H7        -2.1061    2.5375    9.1871 H         1 RES1    0.0000
     14 C5        -4.1021    2.9294    8.7158 C.3       1 RES1    0.0000
     15 H8        -4.4786    2.3778    9.4597 H         1 RES1    0.0000
     16 O3        -4.9223    4.0654    8.5227 O.3       1 RES1    0.0000
     17 H9        -5.4080    4.1791    9.1980 H         1 RES1    0.0000
     18 C6        -4.0732    2.0976    7.4448 C.ar      1 RES1    0.0000
     19 C7        -3.5046    0.8356    7.4608 C.ar      1 RES1    0.0000
     20 H10       -3.1401    0.4980    8.2708 H         1 RES1    0.0000
     21 C8        -3.4580    0.0553    6.3171 C.ar      1 RES1    0.0000
     22 H11       -3.0523   -0.8029    6.3288 H         1 RES1    0.0000
     23 C9        -4.0148    0.5571    5.1630 C.ar      1 RES1    0.0000
     24 C10       -4.5818    1.8065    5.1069 C.ar      1 RES1    0.0000
     25 H12       -4.9583    2.1324    4.2979 H         1 RES1    0.0000
     26 C11       -4.5918    2.5811    6.2573 C.ar      1 RES1    0.0000
     27 H13       -4.9602    3.4572    6.2290 H         1 RES1    0.0000
     28 N1        -4.0283   -0.2826    3.9569 N.pl3     1 RES1    0.0000
     29 O4        -3.2737   -1.2461    3.9087 O.2       1 RES1    0.0000
     30 C12       -0.9400    5.7433    9.0941 C.3       1 RES1    0.0000
     31 H14       -1.3865    6.4997    8.6371 H         1 RES1    0.0000
     32 H15       -0.0180    6.0256    9.3185 H         1 RES1    0.0000
     33 O5        -4.7928    0.0176    3.0575 O.2       1 RES1    0.0000
     34 C13       -1.7044    5.4223   10.4071 C.3       1 RES1    0.0000
     35 H16       -2.3281    6.1900   10.5560 H         1 RES1    0.0000
     36 C14       -2.5787    4.1788   10.3596 C.2       1 RES1    0.0000
     37 C15       -3.2161    3.8417   11.4819 C.2       1 RES1    0.0000
     38 H17       -3.7865    3.0831   11.4930 H         1 RES1    0.0000
     39 C16       -3.0323    4.6623   12.7294 C.3       1 RES1    0.0000
     40 H18       -3.3807    4.1624   13.5105 H         1 RES1    0.0000
     41 H19       -3.5446    5.5062   12.6502 H         1 RES1    0.0000
     42 C17       -1.5434    4.9808   12.9431 C.3       1 RES1    0.0000
     43 H20       -1.4612    5.7230   13.6079 H         1 RES1    0.0000
     44 C18       -0.8161    3.7640   13.4695 C.2       1 RES1    0.0000
     45 O6        -1.0953    3.1002   14.4353 O.2       1 RES1    0.0000
     46 N2         0.2858    3.5079   12.6425 N.am      1 RES1    0.0000
     47 C19        1.2662    2.4862   12.8987 C.ar      1 RES1    0.0000
     48 C20        1.9690    2.4958   14.0924 C.ar      1 RES1    0.0000
     49 H21        1.7899    3.1569   14.7505 H         1 RES1    0.0000
     50 C21        2.9352    1.5301   14.3162 C.ar      1 RES1    0.0000
     51 H22        3.4274    1.5320   15.1289 H         1 RES1    0.0000
     52 C22        3.1878    0.5606   13.3600 C.ar      1 RES1    0.0000
     53 H23        3.8475   -0.1048   13.5202 H         1 RES1    0.0000
     54 C23        2.4801    0.5599   12.1726 C.ar      1 RES1    0.0000
     55 H24        2.6588   -0.1025   11.5161 H         1 RES1    0.0000
     56 C24        1.5126    1.5199   11.9362 C.ar      1 RES1    0.0000
     57 H25        1.0220    1.5177   11.1231 H         1 RES1    0.0000
     58 C25        0.3367    4.3630   11.5547 C.2       1 RES1    0.0000
     59 O7         1.1799    4.2861   10.6868 O.2       1 RES1    0.0000
     60 C26       -0.7882    5.3704   11.6593 C.3       1 RES1    0.0000
     61 H26       -0.3870    6.2758   11.7936 H         1 RES1    0.0000
@<TRIPOS>BOND
     1    1    2 1
     2    3    1 1
     3    4    3 1
     4    5    4 1
     5    6    4 1
     6    7    4 1
     7    8    7 1
     8    9    7 1
     9   10    7 1
    10   11    1 1
    11   12   11 1
    12   13   12 1
    13   14   12 1
    14   15   14 1
    15   16   14 1
    16   17   16 1
    17   18   14 1
    18   19   18 ar
    19   20   19 1
    20   21   19 ar
    21   22   21 1
    22   23   21 ar
    23   24   23 ar
    24   25   24 1
    25   26   18 ar
    26   27   26 1
    27   28   23 1
    28   29   28 2
    29   30    1 1
    30   31   30 1
    31   32   30 1
    32   33   28 2
    33   34   30 1
    34   35   34 1
    35   36   12 1
    36   37   36 2
    37   38   37 1
    38   39   37 1
    39   40   39 1
    40   41   39 1
    41   42   39 1
    42   43   42 1
    43   44   42 1
    44   45   44 2
    45   46   44 1
    46   47   46 1
    47   48   47 ar
    48   49   48 1
    49   50   48 ar
    50   51   50 1
    51   52   50 ar
    52   53   52 1
    53   54   52 ar
    54   55   54 1
    55   56   47 ar
    56   57   56 1
    57   58   46 1
    58   59   58 2
    59   60   34 1
    60   61   60 1
    61   24   26 ar
    62   34   36 1
    63   42   60 1
    64   54   56 ar
    65   58   60 1
@<TRIPOS>SUBSTRUCTURE
     1 RES1 1

@<TRIPOS>CRYSIN
   7.8323   23.8260   12.5960  90.0000 104.9730  90.0000 231 1

