# MOL2 file generated by ConQuest
# Please check atom types

@<TRIPOS>MOLECULE
RAKNIB
    52    54     1
SMALL
NO_CHARGES
****
Generated from CSD

@<TRIPOS>ATOM
      1 O1        -3.3922   -4.0356   -1.3351 O.3       1 RES1    0.0000
      2 O2        -2.0884    0.1221    2.6818 O.3       1 RES1    0.0000
      3 O3        -1.1582    2.4007   -3.5677 O.2       1 RES1    0.0000
      4 O4        -1.3558    3.4335   -1.6877 O.2       1 RES1    0.0000
      5 N1        -1.6842   -2.3771    0.3409 N.pl3     1 RES1    0.0000
      6 N2        -1.9015   -1.9648    1.6498 N.2       1 RES1    0.0000
      7 N3        -6.5562   -4.3786   -3.0523 N.3       1 RES1    0.0000
      8 N4        -1.3000    2.4046   -2.3484 N.pl3     1 RES1    0.0000
      9 C1        -1.5029   -3.7817    0.0496 C.3       1 RES1    0.0000
     10 H1        -1.0152   -4.1914    0.7802 H         1 RES1    0.0000
     11 H2        -0.9607   -3.8668   -0.7508 H         1 RES1    0.0000
     12 C2        -2.7754   -4.5252   -0.1536 C.3       1 RES1    0.0000
     13 H3        -2.5958   -5.4742   -0.2413 H         1 RES1    0.0000
     14 H4        -3.3632   -4.3930    0.6065 H         1 RES1    0.0000
     15 C3        -4.6159   -4.6679   -1.6009 C.3       1 RES1    0.0000
     16 H5        -5.2556   -4.4585   -0.9042 H         1 RES1    0.0000
     17 H6        -4.4936   -5.6300   -1.6234 H         1 RES1    0.0000
     18 C4        -5.1241   -4.1836   -2.9278 C.3       1 RES1    0.0000
     19 H7        -4.9197   -3.2398   -3.0237 H         1 RES1    0.0000
     20 H8        -4.6716   -4.6627   -3.6392 H         1 RES1    0.0000
     21 C5        -1.5902   -1.3234   -0.4882 C.ar      1 RES1    0.0000
     22 C6        -1.3336   -1.2710   -1.8665 C.ar      1 RES1    0.0000
     23 H9        -1.2254   -2.0460   -2.3698 H         1 RES1    0.0000
     24 C7        -1.2492   -0.0445   -2.4352 C.ar      1 RES1    0.0000
     25 H10       -1.0806    0.0275   -3.3461 H         1 RES1    0.0000
     26 C8        -1.4136    1.1179   -1.6692 C.ar      1 RES1    0.0000
     27 C9        -1.6587    1.0878   -0.3236 C.ar      1 RES1    0.0000
     28 H11       -1.7661    1.8693    0.1669 H         1 RES1    0.0000
     29 C10       -1.7408   -0.1597    0.2762 C.ar      1 RES1    0.0000
     30 C11       -1.9323   -0.6597    1.5986 C.2       1 RES1    0.0000
     31 C12       -2.1835   -0.6021    3.9305 C.3       1 RES1    0.0000
     32 H12       -1.4523   -1.2344    4.0045 H         1 RES1    0.0000
     33 H13       -3.0189   -1.0943    3.9662 H         1 RES1    0.0000
     34 C13       -2.1233    0.3809    5.0509 C.ar      1 RES1    0.0000
     35 C14       -1.0569    0.3979    5.9109 C.ar      1 RES1    0.0000
     36 H14       -0.3518   -0.1950    5.7790 H         1 RES1    0.0000
     37 C15       -1.0127    1.2841    6.9763 C.ar      1 RES1    0.0000
     38 H15       -0.2856    1.2815    7.5558 H         1 RES1    0.0000
     39 C16       -2.0359    2.1585    7.1702 C.ar      1 RES1    0.0000
     40 H16       -2.0106    2.7541    7.8827 H         1 RES1    0.0000
     41 C17       -3.0988    2.1585    6.3156 C.ar      1 RES1    0.0000
     42 H17       -3.8004    2.7541    6.4464 H         1 RES1    0.0000
     43 C18       -3.1340    1.2723    5.2559 C.ar      1 RES1    0.0000
     44 H18       -3.8589    1.2854    4.6742 H         1 RES1    0.0000
     45 C19       -7.0106   -3.8485   -4.3066 C.3       1 RES1    0.0000
     46 H19       -6.7458   -2.9295   -4.3810 H         1 RES1    0.0000
     47 H20       -7.9677   -3.9113   -4.3517 H         1 RES1    0.0000
     48 H21       -6.6228   -4.3524   -5.0259 H         1 RES1    0.0000
     49 C20       -6.9671   -5.7517   -2.9109 C.3       1 RES1    0.0000
     50 H22       -6.5474   -6.2832   -3.5896 H         1 RES1    0.0000
     51 H23       -7.9209   -5.8120   -3.0011 H         1 RES1    0.0000
     52 H24       -6.7064   -6.0764   -2.0451 H         1 RES1    0.0000
@<TRIPOS>BOND
     1    1   12 1
     2    2   30 1
     3    3    8 2
     4    4    8 2
     5    5    6 1
     6    6   30 2
     7    7   18 1
     8    8   26 1
     9    9    5 1
    10   10    9 1
    11   11    9 1
    12   12    9 1
    13   13   12 1
    14   14   12 1
    15   15    1 1
    16   16   15 1
    17   17   15 1
    18   18   15 1
    19   19   18 1
    20   20   18 1
    21   21    5 1
    22   22   21 ar
    23   23   22 1
    24   24   22 ar
    25   25   24 1
    26   26   24 ar
    27   27   26 ar
    28   28   27 1
    29   29   21 ar
    30   30   29 1
    31   31    2 1
    32   32   31 1
    33   33   31 1
    34   34   31 1
    35   35   34 ar
    36   36   35 1
    37   37   35 ar
    38   38   37 1
    39   39   37 ar
    40   40   39 1
    41   41   39 ar
    42   42   41 1
    43   43   34 ar
    44   44   43 1
    45   45    7 1
    46   46   45 1
    47   47   45 1
    48   48   45 1
    49   49    7 1
    50   50   49 1
    51   51   49 1
    52   52   49 1
    53   27   29 ar
    54   41   43 ar
@<TRIPOS>SUBSTRUCTURE
     1 RES1 1

@<TRIPOS>CRYSIN
   6.8170   13.0900   22.6720  90.0000  96.0000  90.0000 231 1

