# MOL2 file generated by ConQuest
# Please check atom types

@<TRIPOS>MOLECULE
RAKPOL
    50    53     1
SMALL
NO_CHARGES
****
Generated from CSD

@<TRIPOS>ATOM
      1 O1        11.3173    2.8167   10.6003 O.3       1 RES1    0.0000
      2 O2        12.0687    0.7117   10.8905 O.2       1 RES1    0.0000
      3 O3        16.1173    3.7346    5.7479 O.2       1 RES1    0.0000
      4 O4        17.4025    2.3972    6.8666 O.2       1 RES1    0.0000
      5 N1        16.3286    2.9536    6.6685 N.pl3     1 RES1    0.0000
      6 C1        10.2394    2.5505   11.5639 C.3       1 RES1    0.0000
      7 H1        10.5813    1.9160   12.2575 H         1 RES1    0.0000
      8 C2         9.0751    1.8934   10.8407 C.3       1 RES1    0.0000
      9 H2         9.2925    0.9426   10.6706 H         1 RES1    0.0000
     10 H3         8.9422    2.3365    9.9657 H         1 RES1    0.0000
     11 C3         7.7728    1.9780   11.6533 C.3       1 RES1    0.0000
     12 C4         6.6307    1.2571   10.9162 C.3       1 RES1    0.0000
     13 H4         6.9208    0.3336   10.7075 H         1 RES1    0.0000
     14 H5         5.8497    1.1962   11.5218 H         1 RES1    0.0000
     15 C5         6.1946    1.9350    9.6252 C.3       1 RES1    0.0000
     16 H6         5.4310    1.4419    9.2336 H         1 RES1    0.0000
     17 H7         6.9397    1.9149    8.9733 H         1 RES1    0.0000
     18 C6         5.7871    3.3798    9.8896 C.3       1 RES1    0.0000
     19 H8         4.9877    3.3968   10.4741 H         1 RES1    0.0000
     20 H9         5.5511    3.8184    9.0347 H         1 RES1    0.0000
     21 C7         6.9267    4.1468   10.5610 C.3       1 RES1    0.0000
     22 H10        6.6196    5.0638   10.7726 H         1 RES1    0.0000
     23 H11        7.6858    4.2183    9.9300 H         1 RES1    0.0000
     24 C8         7.4076    3.4657   11.8538 C.3       1 RES1    0.0000
     25 H12        6.6552    3.5042   12.5105 H         1 RES1    0.0000
     26 C9         8.5654    4.2440   12.4432 C.ar      1 RES1    0.0000
     27 C10        8.3071    5.3952   13.1923 C.ar      1 RES1    0.0000
     28 H13        7.4078    5.6636   13.3358 H         1 RES1    0.0000
     29 C11        9.3329    6.1535   13.7291 C.ar      1 RES1    0.0000
     30 H14        9.1362    6.9261   14.2447 H         1 RES1    0.0000
     31 C12       10.6512    5.7783   13.5090 C.ar      1 RES1    0.0000
     32 H15       11.3616    6.3011   13.8627 H         1 RES1    0.0000
     33 C13       10.9271    4.6395   12.7717 C.ar      1 RES1    0.0000
     34 H16       11.8307    4.3839   12.6259 H         1 RES1    0.0000
     35 C14        9.8974    3.8617   12.2384 C.ar      1 RES1    0.0000
     36 C15        7.9533    1.3121   13.0270 C.3       1 RES1    0.0000
     37 H17        8.6279    1.8029   13.5422 H         1 RES1    0.0000
     38 H18        8.2461    0.3850   12.9047 H         1 RES1    0.0000
     39 H19        7.1014    1.3242   13.5102 H         1 RES1    0.0000
     40 C16       12.1468    1.7892   10.3587 C.2       1 RES1    0.0000
     41 C17       13.2042    2.1296    9.3593 C.ar      1 RES1    0.0000
     42 C18       13.1434    3.2684    8.5635 C.ar      1 RES1    0.0000
     43 H20       12.4079    3.8652    8.6441 H         1 RES1    0.0000
     44 C19       14.1552    3.5346    7.6513 C.ar      1 RES1    0.0000
     45 H21       14.1180    4.2994    7.0892 H         1 RES1    0.0000
     46 C20       15.2185    2.6518    7.5848 C.ar      1 RES1    0.0000
     47 C21       15.3021    1.5082    8.3550 C.ar      1 RES1    0.0000
     48 H22       16.0448    0.9209    8.2781 H         1 RES1    0.0000
     49 C22       14.2753    1.2434    9.2394 C.ar      1 RES1    0.0000
     50 H23       14.2981    0.4547    9.7691 H         1 RES1    0.0000
@<TRIPOS>BOND
     1    1    6 1
     2    2   40 2
     3    3    5 2
     4    4    5 2
     5    5   46 1
     6    6    7 1
     7    8    6 1
     8    9    8 1
     9   10    8 1
    10   11    8 1
    11   12   11 1
    12   13   12 1
    13   14   12 1
    14   15   12 1
    15   16   15 1
    16   17   15 1
    17   18   15 1
    18   19   18 1
    19   20   18 1
    20   21   18 1
    21   22   21 1
    22   23   21 1
    23   24   11 1
    24   25   24 1
    25   26   24 1
    26   27   26 ar
    27   28   27 1
    28   29   27 ar
    29   30   29 1
    30   31   29 ar
    31   32   31 1
    32   33   31 ar
    33   34   33 1
    34   35    6 1
    35   36   11 1
    36   37   36 1
    37   38   36 1
    38   39   36 1
    39   40    1 1
    40   41   40 1
    41   42   41 ar
    42   43   42 1
    43   44   42 ar
    44   45   44 1
    45   46   44 ar
    46   47   46 ar
    47   48   47 1
    48   49   41 ar
    49   50   49 1
    50   21   24 1
    51   26   35 ar
    52   33   35 ar
    53   47   49 ar
@<TRIPOS>SUBSTRUCTURE
     1 RES1 1

@<TRIPOS>CRYSIN
  13.0410   11.4255   12.3040  90.0000  93.4225  90.0000  14 1

