# MOL2 file generated by ConQuest
# Please check atom types

@<TRIPOS>MOLECULE
RAKWIJ
    45    50     1
SMALL
NO_CHARGES
****
Generated from CSD

@<TRIPOS>ATOM
      1 O1         5.3618    1.9671    4.5851 O.2       1 RES1    0.0000
      2 O2         5.6327    3.3742    3.0139 O.2       1 RES1    0.0000
      3 O3         1.5032   -0.6058    0.1096 O.2       1 RES1    0.0000
      4 O4         3.4202   -1.1869    0.8992 O.2       1 RES1    0.0000
      5 N1         4.9689    2.5675    3.6201 N.pl3     1 RES1    0.0000
      6 N2         2.4491   -0.4480    0.8596 N.pl3     1 RES1    0.0000
      7 C1         3.7022    4.7910    4.7497 C.ar      1 RES1    0.0000
      8 C2         4.0920    5.9354    4.0700 C.ar      1 RES1    0.0000
      9 C3         5.2610    6.5528    4.5954 C.ar      1 RES1    0.0000
     10 H1         5.6484    7.2898    4.1825 H         1 RES1    0.0000
     11 C4         5.8062    5.9961    5.7732 C.ar      1 RES1    0.0000
     12 H2         6.6331    6.3164    6.0544 H         1 RES1    0.0000
     13 C5         5.2338    5.0553    6.5091 C.ar      1 RES1    0.0000
     14 H3         5.5862    4.8143    7.3350 H         1 RES1    0.0000
     15 C6         4.0884    4.4380    6.0094 C.ar      1 RES1    0.0000
     16 C7         2.9243    3.7211    6.5991 C.ar      1 RES1    0.0000
     17 C8         2.7156    3.2779    7.8379 C.ar      1 RES1    0.0000
     18 H4         3.4102    3.2842    8.4565 H         1 RES1    0.0000
     19 C9         1.4970    2.8177    8.1962 C.ar      1 RES1    0.0000
     20 H5         1.3617    2.5269    9.0687 H         1 RES1    0.0000
     21 C10        0.4391    2.7710    7.2932 C.ar      1 RES1    0.0000
     22 H6        -0.3858    2.4305    7.5583 H         1 RES1    0.0000
     23 C11        0.6194    3.2381    5.9837 C.ar      1 RES1    0.0000
     24 H7        -0.0716    3.2204    5.3618 H         1 RES1    0.0000
     25 C12        1.8503    3.7180    5.6625 C.ar      1 RES1    0.0000
     26 C13        2.3936    4.2252    4.3165 C.3       1 RES1    0.0000
     27 C14        1.9010    5.4318    3.4981 C.ar      1 RES1    0.0000
     28 C15        0.6603    5.6960    2.9468 C.ar      1 RES1    0.0000
     29 H8        -0.0556    5.1222    3.0963 H         1 RES1    0.0000
     30 C16        0.5017    6.8389    2.1643 C.ar      1 RES1    0.0000
     31 H9        -0.3242    7.0302    1.7819 H         1 RES1    0.0000
     32 C17        1.5660    7.6817    1.9555 C.ar      1 RES1    0.0000
     33 H10        1.4378    8.4514    1.4493 H         1 RES1    0.0000
     34 C18        2.7846    7.4298    2.4584 C.ar      1 RES1    0.0000
     35 H11        3.5008    7.9911    2.2672 H         1 RES1    0.0000
     36 C19        2.9579    6.3164    3.2698 C.ar      1 RES1    0.0000
     37 C20        2.4753    2.9907    3.3847 C.ar      1 RES1    0.0000
     38 C21        3.6185    2.2437    3.1107 C.ar      1 RES1    0.0000
     39 C22        3.6177    1.1106    2.3212 C.ar      1 RES1    0.0000
     40 H12        4.3969    0.6220    2.1852 H         1 RES1    0.0000
     41 C23        2.4363    0.7251    1.7445 C.ar      1 RES1    0.0000
     42 C24        1.2746    1.4228    1.9506 C.ar      1 RES1    0.0000
     43 H13        0.4819    1.1569    1.5441 H         1 RES1    0.0000
     44 C25        1.3098    2.5294    2.7764 C.ar      1 RES1    0.0000
     45 H14        0.5170    2.9887    2.9340 H         1 RES1    0.0000
@<TRIPOS>BOND
     1    1    5 2
     2    2    5 2
     3    3    6 2
     4    4    6 2
     5    5   38 1
     6    6   41 1
     7    7    8 ar
     8    8    9 ar
     9    9   10 1
    10   11    9 ar
    11   12   11 1
    12   13   11 ar
    13   14   13 1
    14   15    7 ar
    15   16   15 1
    16   17   16 ar
    17   18   17 1
    18   19   17 ar
    19   20   19 1
    20   21   19 ar
    21   22   21 1
    22   23   21 ar
    23   24   23 1
    24   25   16 ar
    25   26    7 1
    26   27   26 1
    27   28   27 ar
    28   29   28 1
    29   30   28 ar
    30   31   30 1
    31   32   30 ar
    32   33   32 1
    33   34   32 ar
    34   35   34 1
    35   36    8 1
    36   37   26 1
    37   38   37 ar
    38   39   38 ar
    39   40   39 1
    40   41   39 ar
    41   42   41 ar
    42   43   42 1
    43   44   37 ar
    44   45   44 1
    45   13   15 ar
    46   23   25 ar
    47   25   26 1
    48   27   36 ar
    49   34   36 ar
    50   42   44 ar
@<TRIPOS>SUBSTRUCTURE
     1 RES1 1

@<TRIPOS>CRYSIN
   7.7580   15.5500   17.1790  90.0000 110.7200  90.0000  14 1

