# MOL2 file generated by ConQuest
# Please check atom types

@<TRIPOS>MOLECULE
RAKWIJ04
    45    50     1
SMALL
NO_CHARGES
****
Generated from CSD

@<TRIPOS>ATOM
      1 O1         5.3840    1.9639    4.5573 O.2       1 RES1    0.0000
      2 O2         5.6347    3.3865    2.9957 O.2       1 RES1    0.0000
      3 O3         1.5007   -0.5960    0.0966 O.2       1 RES1    0.0000
      4 O4         3.4151   -1.1895    0.8965 O.2       1 RES1    0.0000
      5 N1         4.9843    2.5705    3.5976 N.pl3     1 RES1    0.0000
      6 N2         2.4509   -0.4426    0.8512 N.pl3     1 RES1    0.0000
      7 C1         3.7240    4.7749    4.7598 C.ar      1 RES1    0.0000
      8 C2         4.1134    5.9229    4.0734 C.ar      1 RES1    0.0000
      9 C3         5.3211    6.5573    4.6007 C.ar      1 RES1    0.0000
     10 H1         5.7617    7.2678    4.1972 H         1 RES1    0.0000
     11 C4         5.7361    5.9337    5.8256 C.ar      1 RES1    0.0000
     12 H2         6.5127    6.3045    6.1776 H         1 RES1    0.0000
     13 C5         5.2779    5.0014    6.5248 C.ar      1 RES1    0.0000
     14 H3         5.6794    4.7144    7.3125 H         1 RES1    0.0000
     15 C6         4.0945    4.4212    6.0072 C.ar      1 RES1    0.0000
     16 C7         2.9392    3.7138    6.5875 C.ar      1 RES1    0.0000
     17 C8         2.6832    3.2376    7.8398 C.ar      1 RES1    0.0000
     18 H4         3.3717    3.2158    8.4651 H         1 RES1    0.0000
     19 C9         1.4747    2.8032    8.1934 C.ar      1 RES1    0.0000
     20 H5         1.3268    2.5162    9.0647 H         1 RES1    0.0000
     21 C10        0.4469    2.7784    7.2723 C.ar      1 RES1    0.0000
     22 H6        -0.3849    2.4464    7.5247 H         1 RES1    0.0000
     23 C11        0.6350    3.2438    5.9735 C.ar      1 RES1    0.0000
     24 H7        -0.0535    3.2298    5.3481 H         1 RES1    0.0000
     25 C12        1.8693    3.7169    5.6552 C.ar      1 RES1    0.0000
     26 C13        2.4112    4.2242    4.3113 C.3       1 RES1    0.0000
     27 C14        1.9208    5.4373    3.4963 C.ar      1 RES1    0.0000
     28 C15        0.6902    5.7057    2.9514 C.ar      1 RES1    0.0000
     29 H8        -0.0274    5.1333    3.1025 H         1 RES1    0.0000
     30 C16        0.5337    6.8490    2.1653 C.ar      1 RES1    0.0000
     31 H9        -0.2894    7.0414    1.7779 H         1 RES1    0.0000
     32 C17        1.6060    7.6867    1.9692 C.ar      1 RES1    0.0000
     33 H10        1.4797    8.4623    1.4709 H         1 RES1    0.0000
     34 C18        2.8015    7.4338    2.4579 C.ar      1 RES1    0.0000
     35 H11        3.5167    7.9938    2.2585 H         1 RES1    0.0000
     36 C19        2.9903    6.3138    3.2825 C.ar      1 RES1    0.0000
     37 C20        2.4926    2.9971    3.3725 C.ar      1 RES1    0.0000
     38 C21        3.6279    2.2432    3.0968 C.ar      1 RES1    0.0000
     39 C22        3.6200    1.1107    2.3100 C.ar      1 RES1    0.0000
     40 H12        4.3980    0.6205    2.1733 H         1 RES1    0.0000
     41 C23        2.4403    0.7291    1.7377 C.ar      1 RES1    0.0000
     42 C24        1.2805    1.4318    1.9451 C.ar      1 RES1    0.0000
     43 H13        0.4846    1.1712    1.5400 H         1 RES1    0.0000
     44 C25        1.3233    2.5333    2.7697 C.ar      1 RES1    0.0000
     45 H14        0.5307    2.9925    2.9337 H         1 RES1    0.0000
@<TRIPOS>BOND
     1    1    5 2
     2    2    5 2
     3    3    6 2
     4    4    6 2
     5    5   38 1
     6    6   41 1
     7    7    8 ar
     8    8    9 ar
     9    9   10 1
    10   11    9 ar
    11   12   11 1
    12   13   11 ar
    13   14   13 1
    14   15    7 ar
    15   16   15 1
    16   17   16 ar
    17   18   17 1
    18   19   17 ar
    19   20   19 1
    20   21   19 ar
    21   22   21 1
    22   23   21 ar
    23   24   23 1
    24   25   16 ar
    25   26    7 1
    26   27   26 1
    27   28   27 ar
    28   29   28 1
    29   30   28 ar
    30   31   30 1
    31   32   30 ar
    32   33   32 1
    33   34   32 ar
    34   35   34 1
    35   36    8 1
    36   37   26 1
    37   38   37 ar
    38   39   38 ar
    39   40   39 1
    40   41   39 ar
    41   42   41 ar
    42   43   42 1
    43   44   37 ar
    44   45   44 1
    45   13   15 ar
    46   23   25 ar
    47   25   26 1
    48   27   36 ar
    49   34   36 ar
    50   42   44 ar
@<TRIPOS>SUBSTRUCTURE
     1 RES1 1

@<TRIPOS>CRYSIN
   7.7220   15.5130   17.1110  90.0000 110.0400  90.0000  14 1

