# MOL2 file generated by ConQuest
# Please check atom types

@<TRIPOS>MOLECULE
RAKXAE
    45    48     1
SMALL
NO_CHARGES
****
Generated from CSD

@<TRIPOS>ATOM
      1 C1         7.9916    1.5136    2.9606 C.2       1 RES1    0.0000
      2 C2         6.7008    0.9769    2.4724 C.ar      1 RES1    0.0000
      3 C3         6.5802   -0.3284    1.9777 C.ar      1 RES1    0.0000
      4 C4         8.7341    2.5027    2.3758 C.2       1 RES1    0.0000
      5 C5         5.3239   -0.7745    1.6082 C.ar      1 RES1    0.0000
      6 H1         5.2143   -1.6424    1.2912 H         1 RES1    0.0000
      7 C6         5.5925    1.8102    2.5062 C.ar      1 RES1    0.0000
      8 H2         5.6904    2.6900    2.7933 H         1 RES1    0.0000
      9 C7         8.7166    1.2051    4.1415 C.2       1 RES1    0.0000
     10 C8         4.2384    0.0586    1.7087 C.ar      1 RES1    0.0000
     11 C9        10.8403    3.6130    2.8412 C.ar      1 RES1    0.0000
     12 C10        8.4101    0.2478    5.2302 C.2       1 RES1    0.0000
     13 C11        4.3517    1.3613    2.1214 C.ar      1 RES1    0.0000
     14 H3         3.6119    1.9241    2.1399 H         1 RES1    0.0000
     15 C12       11.8474    3.9414    3.7290 C.ar      1 RES1    0.0000
     16 H4        11.8277    3.6221    4.6032 H         1 RES1    0.0000
     17 N1         2.9113   -0.4552    1.3501 N.pl3     1 RES1    0.0000
     18 C13       10.8294    4.1013    1.5442 C.ar      1 RES1    0.0000
     19 C14        8.5959    3.3609    1.1642 C.3       1 RES1    0.0000
     20 H5         8.0911    2.8827    0.4883 H         1 RES1    0.0000
     21 H6         8.1025    4.1635    1.3947 H         1 RES1    0.0000
     22 C15        7.7693   -1.2311    1.8303 C.3       1 RES1    0.0000
     23 H7         7.9513   -1.6598    2.6703 H         1 RES1    0.0000
     24 H8         8.5319   -0.7142    1.5617 H         1 RES1    0.0000
     25 H9         7.5840   -1.8981    1.1652 H         1 RES1    0.0000
     26 C16       12.8812    4.7443    3.3042 C.ar      1 RES1    0.0000
     27 H10       13.5791    4.9547    3.8824 H         1 RES1    0.0000
     28 C17       12.8771    5.2356    2.0179 C.ar      1 RES1    0.0000
     29 H11       13.5735    5.7843    1.7366 H         1 RES1    0.0000
     30 C18       11.8602    4.9289    1.1369 C.ar      1 RES1    0.0000
     31 H12       11.8681    5.2776    0.2745 H         1 RES1    0.0000
     32 C19        6.8559   -1.3938    5.9422 C.3       1 RES1    0.0000
     33 H13        7.6078   -1.9658    6.1600 H         1 RES1    0.0000
     34 H14        6.5298   -0.9915    6.7626 H         1 RES1    0.0000
     35 C20        5.8120   -2.1669    5.3259 C.3       1 RES1    0.0000
     36 H15        5.1274   -1.5780    5.0007 H         1 RES1    0.0000
     37 H16        5.4359   -2.7694    5.9725 H         1 RES1    0.0000
     38 H17        6.1763   -2.6700    4.5944 H         1 RES1    0.0000
     39 O1         7.2674   -0.3661    5.0143 O.3       1 RES1    0.0000
     40 O2         9.8735    3.7279    0.6294 O.3       1 RES1    0.0000
     41 O3         9.0982    0.0663    6.1867 O.2       1 RES1    0.0000
     42 O4         2.8288   -1.6133    0.9728 O.2       1 RES1    0.0000
     43 O5         1.9530    0.2882    1.4445 O.2       1 RES1    0.0000
     44 N2         9.8030    2.7190    3.1784 N.pl3     1 RES1    0.0000
     45 N3         9.8244    1.9349    4.2628 N.2       1 RES1    0.0000
@<TRIPOS>BOND
     1    1    2 1
     2    2    3 ar
     3    3    5 ar
     4    4    1 2
     5    5    6 1
     6    7    2 ar
     7    8    7 1
     8    9    1 1
     9   10    5 ar
    10   11   15 ar
    11   12    9 1
    12   13    7 ar
    13   14   13 1
    14   15   16 1
    15   17   10 1
    16   18   11 ar
    17   19    4 1
    18   20   19 1
    19   21   19 1
    20   22    3 1
    21   23   22 1
    22   24   22 1
    23   25   22 1
    24   26   15 ar
    25   27   26 1
    26   28   26 ar
    27   29   28 1
    28   30   18 ar
    29   31   30 1
    30   32   33 1
    31   34   32 1
    32   35   32 1
    33   36   35 1
    34   37   35 1
    35   38   35 1
    36   39   12 1
    37   40   18 1
    38   41   12 2
    39   42   17 2
    40   43   17 2
    41   44    4 1
    42   45    9 2
    43   10   13 ar
    44   11   44 1
    45   19   40 1
    46   28   30 ar
    47   32   39 1
    48   44   45 1
@<TRIPOS>SUBSTRUCTURE
     1 RES1 1

@<TRIPOS>CRYSIN
   9.3525   10.0265   10.8420 113.4260  96.9140  97.5900   2 1

