# MOL2 file generated by ConQuest
# Please check atom types

@<TRIPOS>MOLECULE
RALDUE
    31    31     1
SMALL
NO_CHARGES
****
Generated from CSD

@<TRIPOS>ATOM
      1 N1         3.1231    6.4900    0.6970 N.pl3     1 RES1    0.0000
      2 N2         2.7611    5.3221    1.0036 N.2       1 RES1    0.0000
      3 N3         1.3195    5.3957    2.8690 N.am      1 RES1    0.0000
      4 O1         3.2196    7.4461    1.4991 O.2       1 RES1    0.0000
      5 O2         3.4725    4.7079    3.0872 O.2       1 RES1    0.0000
      6 C1         3.4237    6.7393   -0.7549 C.3       1 RES1    0.0000
      7 H1         3.7466    5.9045   -1.1547 H         1 RES1    0.0000
      8 C2         4.4968    7.7890   -0.9014 C.3       1 RES1    0.0000
      9 H2         5.3109    7.4828   -0.4725 H         1 RES1    0.0000
     10 H3         4.2137    8.6068   -0.4632 H         1 RES1    0.0000
     11 C3         4.7676    8.0665   -2.3735 C.3       1 RES1    0.0000
     12 H4         5.4209    8.7804   -2.4505 H         1 RES1    0.0000
     13 H5         5.1410    7.2728   -2.7865 H         1 RES1    0.0000
     14 C4         3.5027    8.4625   -3.0993 C.3       1 RES1    0.0000
     15 H6         3.6947    8.5791   -4.0424 H         1 RES1    0.0000
     16 H7         3.1823    9.3094   -2.7513 H         1 RES1    0.0000
     17 C5         2.4296    7.4097   -2.9295 C.3       1 RES1    0.0000
     18 H8         2.7178    6.5861   -3.3527 H         1 RES1    0.0000
     19 H9         1.6175    7.7050   -3.3695 H         1 RES1    0.0000
     20 C6         2.1388    7.1463   -1.4566 C.3       1 RES1    0.0000
     21 H10        1.7779    7.9462   -1.0443 H         1 RES1    0.0000
     22 H11        1.4809    6.4388   -1.3728 H         1 RES1    0.0000
     23 C7         2.5488    5.1524    2.4298 C.2       1 RES1    0.0000
     24 C8         0.2871    6.0025    2.0375 C.3       1 RES1    0.0000
     25 H12        0.3491    6.9581    2.0969 H         1 RES1    0.0000
     26 H13       -0.5780    5.7183    2.3428 H         1 RES1    0.0000
     27 H14        0.4093    5.7292    1.1250 H         1 RES1    0.0000
     28 C9         1.0276    5.2221    4.2810 C.3       1 RES1    0.0000
     29 H15        0.1782    4.7881    4.3812 H         1 RES1    0.0000
     30 H16        1.0005    6.0809    4.7098 H         1 RES1    0.0000
     31 H17        1.7124    4.6841    4.6857 H         1 RES1    0.0000
@<TRIPOS>BOND
     1    1    2 un
     2    2   23 1
     3    3   23 1
     4    4    1 un
     5    5   23 2
     6    6    1 1
     7    7    6 1
     8    8    6 1
     9    9    8 1
    10   10    8 1
    11   11    8 1
    12   12   11 1
    13   13   11 1
    14   14   11 1
    15   15   14 1
    16   16   14 1
    17   17   14 1
    18   18   17 1
    19   19   17 1
    20   20    6 1
    21   21   20 1
    22   22   20 1
    23   24    3 1
    24   25   24 1
    25   26   24 1
    26   27   24 1
    27   28    3 1
    28   29   28 1
    29   30   28 1
    30   31   28 1
    31   17   20 1
@<TRIPOS>SUBSTRUCTURE
     1 RES1 1

@<TRIPOS>CRYSIN
   6.2213    9.4453   10.3865  65.3600  74.8450  76.0580   2 1

