# MOL2 file generated by ConQuest
# Please check atom types

@<TRIPOS>MOLECULE
RALPAW
    48    50     1
SMALL
NO_CHARGES
****
Generated from CSD

@<TRIPOS>ATOM
      1 C1        -4.3061    4.7678    9.9386 C.ar      1 RES1    0.0000
      2 C2        -5.1725    4.8328    8.8589 C.ar      1 RES1    0.0000
      3 H1        -5.6656    4.0883    8.6005 H         1 RES1    0.0000
      4 C3        -5.2829    6.0129    8.1809 C.ar      1 RES1    0.0000
      5 C4        -4.5701    7.1296    8.5186 C.ar      1 RES1    0.0000
      6 H2        -4.6538    7.9121    8.0248 H         1 RES1    0.0000
      7 C5        -3.7274    7.0726    9.6047 C.ar      1 RES1    0.0000
      8 H3        -3.2478    7.8265    9.8631 H         1 RES1    0.0000
      9 C6        -3.5981    5.9004   10.3032 C.ar      1 RES1    0.0000
     10 H4        -3.0240    5.8671   11.0336 H         1 RES1    0.0000
     11 C7        -4.1276    3.5101   10.6920 C.2       1 RES1    0.0000
     12 H5        -3.5909    3.5244   11.4519 H         1 RES1    0.0000
     13 C8        -4.3652    1.2450   11.1705 C.3       1 RES1    0.0000
     14 H6        -3.8383    1.5428   11.9419 H         1 RES1    0.0000
     15 C9        -5.6553    0.6146   11.6451 C.3       1 RES1    0.0000
     16 H7        -6.2034    0.4118   10.8481 H         1 RES1    0.0000
     17 C10       -5.3832   -0.6827   12.3999 C.3       1 RES1    0.0000
     18 H8        -6.2279   -1.0961   12.6429 H         1 RES1    0.0000
     19 H9        -4.9011   -0.4847   13.2173 H         1 RES1    0.0000
     20 C11       -4.5683   -1.6584   11.5530 C.3       1 RES1    0.0000
     21 H10       -4.3677   -2.4489   12.0762 H         1 RES1    0.0000
     22 H11       -5.0931   -1.9325   10.7842 H         1 RES1    0.0000
     23 C12       -3.2865   -1.0280   11.0848 C.3       1 RES1    0.0000
     24 H12       -2.8170   -1.6458   10.5040 H         1 RES1    0.0000
     25 H13       -2.7185   -0.8459   11.8498 H         1 RES1    0.0000
     26 C13       -3.5552    0.2661   10.3364 C.3       1 RES1    0.0000
     27 H14       -4.0364    0.0681    9.5177 H         1 RES1    0.0000
     28 H15       -2.7086    0.6764   10.0934 H         1 RES1    0.0000
     29 C14       -7.5451    1.8564   12.2694 C.2       1 RES1    0.0000
     30 H16       -7.9385    1.4779   11.5172 H         1 RES1    0.0000
     31 C15       -8.3405    2.7926   13.0651 C.ar      1 RES1    0.0000
     32 C16       -7.8517    3.3011   14.2573 C.ar      1 RES1    0.0000
     33 H17       -7.0419    3.0048   14.6027 H         1 RES1    0.0000
     34 C17       -8.5864    4.2451   14.9187 C.ar      1 RES1    0.0000
     35 C18       -9.7906    4.7140   14.4531 C.ar      1 RES1    0.0000
     36 H18      -10.2649    5.3603   14.9251 H         1 RES1    0.0000
     37 C19      -10.2731    4.2071   13.2800 C.ar      1 RES1    0.0000
     38 H19      -11.0889    4.5081   12.9461 H         1 RES1    0.0000
     39 C20       -9.5598    3.2504   12.5905 C.ar      1 RES1    0.0000
     40 H20       -9.9003    2.9066   11.7973 H         1 RES1    0.0000
     41 N1        -6.1768    6.0715    7.0001 N.pl3     1 RES1    0.0000
     42 N2        -4.6574    2.4267   10.3633 N.2       1 RES1    0.0000
     43 N3        -6.3634    1.5327   12.5419 N.2       1 RES1    0.0000
     44 N4        -8.0543    4.7884   16.1775 N.pl3     1 RES1    0.0000
     45 O1        -6.1568    7.0599    6.3259 O.2       1 RES1    0.0000
     46 O2        -6.8866    5.1258    6.7724 O.2       1 RES1    0.0000
     47 O3        -6.9259    4.4970   16.5140 O.2       1 RES1    0.0000
     48 O4        -8.7769    5.5361   16.8325 O.2       1 RES1    0.0000
@<TRIPOS>BOND
     1    1    2 ar
     2    2    3 1
     3    4    2 ar
     4    5    4 ar
     5    6    5 1
     6    7    5 ar
     7    8    7 1
     8    9    1 ar
     9   10    9 1
    10   11    1 1
    11   12   11 1
    12   13   14 1
    13   15   13 1
    14   16   15 1
    15   17   15 1
    16   18   17 1
    17   19   17 1
    18   20   17 1
    19   21   20 1
    20   22   20 1
    21   23   20 1
    22   24   23 1
    23   25   23 1
    24   26   13 1
    25   27   26 1
    26   28   26 1
    27   29   30 1
    28   31   29 1
    29   32   31 ar
    30   33   32 1
    31   34   32 ar
    32   35   34 ar
    33   36   35 1
    34   37   35 ar
    35   38   37 1
    36   39   31 ar
    37   40   39 1
    38   41    4 1
    39   42   11 2
    40   43   15 1
    41   44   34 1
    42   45   41 2
    43   46   41 2
    44   47   44 2
    45   48   44 2
    46    7    9 ar
    47   13   42 1
    48   23   26 1
    49   29   43 2
    50   37   39 ar
@<TRIPOS>SUBSTRUCTURE
     1 RES1 1

@<TRIPOS>CRYSIN
  19.2880   15.8400   15.4850  90.0000 124.2970  90.0000  15 1

