# MOL2 file generated by ConQuest
# Please check atom types

@<TRIPOS>MOLECULE
RAMKIZ
    71    64     2
SMALL
NO_CHARGES
****
Generated from CSD

@<TRIPOS>ATOM
      1 O1        -0.5689   12.1329   -2.3635 O.2       1 RES1    0.0000
      2 O2        -1.1089   10.6986   -3.8427 O.2       1 RES1    0.0000
      3 N1        -0.5593   11.0107   -2.8057 N.pl3     1 RES1    0.0000
      4 C1         0.1780    9.9894   -2.0584 C.ar      1 RES1    0.0000
      5 C2         1.0135   10.3346   -1.0613 C.ar      1 RES1    0.0000
      6 H1         1.1299   11.2409   -0.8004 H         1 RES1    0.0000
      7 C3         1.7188    9.2651   -0.4068 C.ar      1 RES1    0.0000
      8 H2         2.3045    9.4328    0.3206 H         1 RES1    0.0000
      9 C4         1.5050    7.9429   -0.8954 C.ar      1 RES1    0.0000
     10 C5         0.6788    7.7038   -1.8705 C.ar      1 RES1    0.0000
     11 H3         0.5615    6.8118   -2.1734 H         1 RES1    0.0000
     12 C6        -0.0001    8.6830   -2.4476 C.ar      1 RES1    0.0000
     13 H4        -0.6178    8.4799   -3.1418 H         1 RES1    0.0000
     14 N2         2.3515    6.7433   -0.3250 N.2       1 RES1    0.0000
     15 N3         2.6643    7.0780    0.7031 N.2       1 RES1    0.0000
     16 C7         3.4663    5.8446    1.1696 C.ar      1 RES1    0.0000
     17 C8         3.6880    5.8897    2.5117 C.ar      1 RES1    0.0000
     18 H5         3.3561    6.6177    3.0224 H         1 RES1    0.0000
     19 C9         4.3902    4.8841    3.1219 C.ar      1 RES1    0.0000
     20 H6         4.5148    4.9112    4.0638 H         1 RES1    0.0000
     21 C10        4.9308    3.8124    2.3879 C.ar      1 RES1    0.0000
     22 C11        4.7646    3.8395    0.9994 C.ar      1 RES1    0.0000
     23 C12        4.0080    4.8270    0.3913 C.ar      1 RES1    0.0000
     24 H7         3.8615    4.8089   -0.5483 H         1 RES1    0.0000
     25 O3         5.4505    2.8866    0.2974 O.3       1 RES1    0.0000
     26 C13        5.6221    3.1002   -1.0989 C.3       1 RES1    0.0000
     27 H8         6.3025    2.4834   -1.4438 H         1 RES1    0.0000
     28 H9         5.9113    4.0237   -1.2558 H         1 RES1    0.0000
     29 H10        4.7735    2.9400   -1.5610 H         1 RES1    0.0000
     30 N4         5.6677    2.8204    3.0153 N.3       1 RES1    0.0000
     31 C14        5.5078    1.4094    2.6222 C.3       1 RES1    0.0000
     32 H11        4.8017    1.3485    1.9302 H         1 RES1    0.0000
     33 H12        5.2058    0.8905    3.4093 H         1 RES1    0.0000
     34 C15        6.7634    0.7882    2.0850 C.3       1 RES1    0.0000
     35 H13        6.5996   -0.1625    1.8616 H         1 RES1    0.0000
     36 H14        7.0440    1.2568    1.2580 H         1 RES1    0.0000
     37 O4         7.7886    0.8852    3.0673 O.3       1 RES1    0.0000
     38 C16        9.0387    0.4039    2.6200 C.3       1 RES1    0.0000
     39 H15        9.2212    0.7461    1.7091 H         1 RES1    0.0000
     40 H16        9.0202   -0.5851    2.5802 H         1 RES1    0.0000
     41 C17       10.1022    0.8461    3.5420 C.3       1 RES1    0.0000
     42 H17        9.8378    0.6513    4.4772 H         1 RES1    0.0000
     43 H18       10.9393    0.3557    3.3496 H         1 RES1    0.0000
     44 O5        10.3140    2.2480    3.3830 O.3       1 RES1    0.0000
     45 C18       11.3174    2.7452    4.2362 C.3       1 RES1    0.0000
     46 H19       12.1998    2.3872    3.9687 H         1 RES1    0.0000
     47 H20       11.1387    2.4684    5.1693 H         1 RES1    0.0000
     48 C19       11.3155    4.2652    4.1323 C.3       1 RES1    0.0000
     49 H21       11.9916    4.6156    4.7647 H         1 RES1    0.0000
     50 H22       11.6119    4.5088    3.2192 H         1 RES1    0.0000
     51 O6        10.0646    4.9466    4.3910 O.3       1 RES1    0.0000
     52 C20        9.7909    5.0519    5.6866 C.3       1 RES1    0.0000
     53 H23       10.3744    5.7543    6.0691 Du        2 SUP2    0.0000
     54 H24       10.0318    4.1975    6.1244 Du        2 SUP2    0.0000
     55 C21       11.3155    4.2652    4.1323 Du        2 SUP2    0.0000
     56 H25       10.8173    4.6382    3.3607 Du        2 SUP2    0.0000
     57 H26       12.1936    4.7021    4.2628 Du        2 SUP2    0.0000
     58 O7        10.4214    4.0237    5.5142 Du        2 SUP2    0.0000
     59 C22        9.7909    5.0519    5.6866 Du        2 SUP2    0.0000
     60 H27        9.9415    5.5573    4.8487 Du        2 SUP2    0.0000
     61 H28       10.3149    5.5309    6.3765 Du        2 SUP2    0.0000
     62 C23        8.4130    5.3677    6.0293 C.3       1 RES1    0.0000
     63 H29        8.3739    5.6197    6.9845 H         1 RES1    0.0000
     64 H30        8.1268    6.1544    5.5009 H         1 RES1    0.0000
     65 O8         7.4947    4.3110    5.8001 O.3       1 RES1    0.0000
     66 C24        7.2221    4.0508    4.4374 C.3       1 RES1    0.0000
     67 H31        8.0337    3.7033    3.9886 H         1 RES1    0.0000
     68 H32        6.9430    4.8834    3.9798 H         1 RES1    0.0000
     69 C25        6.1174    3.0295    4.3777 C.3       1 RES1    0.0000
     70 H33        6.4408    2.1721    4.7536 H         1 RES1    0.0000
     71 H34        5.3553    3.3363    4.9327 H         1 RES1    0.0000
@<TRIPOS>BOND
     1    1    3 2
     2    2    3 2
     3    3    4 1
     4    4    5 ar
     5    5    6 1
     6    7    5 ar
     7    8    7 1
     8    9    7 ar
     9   10    9 ar
    10   11   10 1
    11   12    4 ar
    12   13   12 1
    13   14    9 1
    14   15   14 2
    15   16   15 1
    16   17   16 ar
    17   18   17 1
    18   19   17 ar
    19   20   19 1
    20   21   19 ar
    21   22   21 ar
    22   23   16 ar
    23   24   23 1
    24   25   22 1
    25   26   25 1
    26   27   26 1
    27   28   26 1
    28   29   26 1
    29   30   21 1
    30   31   30 1
    31   32   31 1
    32   33   31 1
    33   34   31 1
    34   35   34 1
    35   36   34 1
    36   37   34 1
    37   38   37 1
    38   39   38 1
    39   40   38 1
    40   41   38 1
    41   42   41 1
    42   43   41 1
    43   44   41 1
    44   45   44 1
    45   46   45 1
    46   47   45 1
    47   48   45 1
    48   49   48 1
    49   50   48 1
    50   51   48 1
    51   52   51 1
    52   62   52 1
    53   63   62 1
    54   64   62 1
    55   65   62 1
    56   66   65 1
    57   67   66 1
    58   68   66 1
    59   69   30 1
    60   70   69 1
    61   71   69 1
    62   10   12 ar
    63   22   23 ar
    64   66   69 1
@<TRIPOS>SUBSTRUCTURE
     1 RES1 1
     2 SUP2 53

@<TRIPOS>CRYSIN
  14.1610    7.5210   22.9670  90.0000 105.7030  90.0000  14 1

