# MOL2 file generated by ConQuest
# Please check atom types

@<TRIPOS>MOLECULE
RAMRUS
    31    33     1
SMALL
NO_CHARGES
****
Generated from CSD

@<TRIPOS>ATOM
      1 O1         5.1145    5.9491    3.8040 O.2       1 RES1    0.0000
      2 O2         3.4587    8.6616    7.9771 O.3       1 RES1    0.0000
      3 O3         3.3668    9.8152    5.9634 O.3       1 RES1    0.0000
      4 O4         4.7597   -0.0549    7.2412 O.2       1 RES1    0.0000
      5 O5         3.3610    0.8240    8.5707 O.2       1 RES1    0.0000
      6 N1         4.3732    7.0433    5.6778 N.am      1 RES1    0.0000
      7 N2         4.0783    0.8904    7.6291 N.pl3     1 RES1    0.0000
      8 C1         4.7811    5.9033    4.9666 C.2       1 RES1    0.0000
      9 C2         4.5531    4.6123    5.7119 C.ar      1 RES1    0.0000
     10 C3         5.1948    3.5045    5.1805 C.ar      1 RES1    0.0000
     11 H1         5.7115    3.5777    4.4106 H         1 RES1    0.0000
     12 C4         5.0504    2.2844    5.8212 C.ar      1 RES1    0.0000
     13 H2         5.4583    1.5245    5.4744 H         1 RES1    0.0000
     14 C5         4.3201    2.2020    6.9426 C.ar      1 RES1    0.0000
     15 C6         3.6698    3.3122    7.4998 C.ar      1 RES1    0.0000
     16 H3         3.1266    3.2366    8.2498 H         1 RES1    0.0000
     17 C7         3.8826    4.5345    6.8662 C.ar      1 RES1    0.0000
     18 H4         3.5517    5.3128    7.2530 H         1 RES1    0.0000
     19 C8         4.6901    7.9405    8.0758 C.3       1 RES1    0.0000
     20 H5         4.5342    7.1417    8.6048 H         1 RES1    0.0000
     21 H6         5.3277    8.4899    8.5590 H         1 RES1    0.0000
     22 C9         5.3141    7.5285    6.7710 C.3       1 RES1    0.0000
     23 H7         6.1157    6.9746    6.8756 H         1 RES1    0.0000
     24 C10        3.5132    9.9114    7.3247 C.3       1 RES1    0.0000
     25 H8         2.8103   10.4813    7.6773 H         1 RES1    0.0000
     26 H9         4.3629   10.3348    7.5222 H         1 RES1    0.0000
     27 C11        4.5126    9.5680    5.2558 C.3       1 RES1    0.0000
     28 H10        5.1325   10.2891    5.4391 H         1 RES1    0.0000
     29 H11        4.2892    9.6161    4.3130 H         1 RES1    0.0000
     30 C12        5.2526    8.2427    5.4932 C.3       1 RES1    0.0000
     31 H12        6.0242    8.0962    4.9078 H         1 RES1    0.0000
@<TRIPOS>BOND
     1    1    8 2
     2    2   19 1
     3    3   24 1
     4    4    7 2
     5    5    7 2
     6    6    8 1
     7    7   14 1
     8    8    9 1
     9    9   10 ar
    10   10   11 1
    11   12   10 ar
    12   13   12 1
    13   14   12 ar
    14   15   14 ar
    15   16   15 1
    16   17    9 ar
    17   18   17 1
    18   19   20 1
    19   21   19 1
    20   22    6 1
    21   23   22 1
    22   24    2 1
    23   25   24 1
    24   26   24 1
    25   27    3 1
    26   28   27 1
    27   29   27 1
    28   30    6 1
    29   31   30 1
    30   15   17 ar
    31   19   22 1
    32   22   30 1
    33   27   30 1
@<TRIPOS>SUBSTRUCTURE
     1 RES1 1

@<TRIPOS>CRYSIN
   4.5210   22.8900   11.8400  90.0000  96.8600  90.0000 231 1

