# MOL2 file generated by ConQuest
# Please check atom types

@<TRIPOS>MOLECULE
RAMSAZ
    32    34     1
SMALL
NO_CHARGES
****
Generated from CSD

@<TRIPOS>ATOM
      1 N1         9.2910    0.5265    8.8276 N.3       1 RES1    0.0000
      2 N2         5.1558   -1.2903   13.4623 N.pl3     1 RES1    0.0000
      3 O1         4.9970   -0.8178   14.5705 O.2       1 RES1    0.0000
      4 O2         4.5673   -2.2700   13.0731 O.2       1 RES1    0.0000
      5 O3         8.9310   -1.3403    6.5804 O.3       1 RES1    0.0000
      6 O4        11.0996   -0.6193    6.7922 O.3       1 RES1    0.0000
      7 C1         8.9523    1.2824   10.0174 C.3       1 RES1    0.0000
      8 H1         8.5991    2.1452    9.7517 H         1 RES1    0.0000
      9 H2         9.7606    1.4399   10.5297 H         1 RES1    0.0000
     10 C2         7.9404    0.5900   10.9026 C.ar      1 RES1    0.0000
     11 C3         7.6995    1.0833   12.1755 C.ar      1 RES1    0.0000
     12 H3         8.1699    1.8285   12.4726 H         1 RES1    0.0000
     13 C4         6.7847    0.4978   13.0015 C.ar      1 RES1    0.0000
     14 H4         6.6168    0.8476   13.8473 H         1 RES1    0.0000
     15 C5         6.1136   -0.6209   12.5599 C.ar      1 RES1    0.0000
     16 C6         6.3304   -1.1581   11.3225 C.ar      1 RES1    0.0000
     17 H5         5.8731   -1.9185   11.0447 H         1 RES1    0.0000
     18 C7         7.2468   -0.5433   10.4972 C.ar      1 RES1    0.0000
     19 H6         7.4056   -0.8943    9.6500 H         1 RES1    0.0000
     20 C8         8.5229    0.8437    7.6106 C.3       1 RES1    0.0000
     21 H7         7.8566    1.5501    7.7426 H         1 RES1    0.0000
     22 C9         8.0615   -0.2441    6.7126 C.3       1 RES1    0.0000
     23 H8         7.2081   -0.5698    7.0419 H         1 RES1    0.0000
     24 H9         7.9065    0.1316    5.8329 H         1 RES1    0.0000
     25 C10       10.1314   -1.0709    5.9058 C.3       1 RES1    0.0000
     26 H10       10.4443   -1.8775    5.4682 H         1 RES1    0.0000
     27 H11        9.9759   -0.3988    5.2251 H         1 RES1    0.0000
     28 C11       11.0729    0.7767    7.0110 C.3       1 RES1    0.0000
     29 H12       11.1063    1.2177    6.1468 H         1 RES1    0.0000
     30 H13       11.8779    1.0225    7.4906 H         1 RES1    0.0000
     31 C12        9.9081    1.3122    7.7563 C.3       1 RES1    0.0000
     32 H14        9.9812    2.2678    7.9614 H         1 RES1    0.0000
@<TRIPOS>BOND
     1    1    7 1
     2    2    3 2
     3    4    2 2
     4    5   22 1
     5    6   25 1
     6    7    8 1
     7    9    7 1
     8   10    7 1
     9   11   10 ar
    10   12   11 1
    11   13   11 ar
    12   14   13 1
    13   15    2 1
    14   16   15 ar
    15   17   16 1
    16   18   10 ar
    17   19   18 1
    18   20    1 1
    19   21   20 1
    20   22   20 1
    21   23   22 1
    22   24   22 1
    23   25    5 1
    24   26   25 1
    25   27   25 1
    26   28    6 1
    27   29   28 1
    28   30   28 1
    29   31    1 1
    30   32   31 1
    31   13   15 ar
    32   16   18 ar
    33   20   31 1
    34   28   31 1
@<TRIPOS>SUBSTRUCTURE
     1 RES1 1

