# MOL2 file generated by ConQuest
# Please check atom types

@<TRIPOS>MOLECULE
RAMTEH
    51    54     1
SMALL
NO_CHARGES
****
Generated from CSD

@<TRIPOS>ATOM
      1 N1         3.3765    3.3376    7.3130 N.am      1 RES1    0.0000
      2 C1         2.6796    3.9942    8.3324 C.2       1 RES1    0.0000
      3 O1         2.5585    5.2271    8.2859 O.2       1 RES1    0.0000
      4 C2         2.1598    3.1657    9.3646 C.2       1 RES1    0.0000
      5 H1         1.6562    3.5490   10.0467 H         1 RES1    0.0000
      6 C3         2.3832    1.8364    9.3765 C.2       1 RES1    0.0000
      7 H2         2.0455    1.3170   10.0695 H         1 RES1    0.0000
      8 C4         3.1173    1.2366    8.3561 C.2       1 RES1    0.0000
      9 H3         3.2843    0.3215    8.3817 H         1 RES1    0.0000
     10 C5         3.5900    1.9835    7.3212 C.2       1 RES1    0.0000
     11 C6         4.2843    1.3652    6.1404 C.3       1 RES1    0.0000
     12 H4         4.7402    0.5503    6.4376 H         1 RES1    0.0000
     13 C7         5.3159    2.3100    5.5559 C.3       1 RES1    0.0000
     14 H5         5.7722    1.8932    4.8081 H         1 RES1    0.0000
     15 H6         5.9745    2.5511    6.2261 H         1 RES1    0.0000
     16 C8         4.5529    3.5429    5.0936 C.3       1 RES1    0.0000
     17 H7         5.1891    4.1612    4.6778 H         1 RES1    0.0000
     18 C9         3.9391    4.2279    6.2872 C.3       1 RES1    0.0000
     19 H8         4.6172    4.7832    6.7030 H         1 RES1    0.0000
     20 H9         3.2350    4.8166    5.9735 H         1 RES1    0.0000
     21 C10        3.5216    3.1360    4.0431 C.3       1 RES1    0.0000
     22 H10        3.0541    3.9250    3.7294 H         1 RES1    0.0000
     23 H11        3.9764    2.7366    3.2854 H         1 RES1    0.0000
     24 N2         2.5594    2.1875    4.5811 N.3       1 RES1    0.0000
     25 C11        3.2589    0.9868    5.0553 C.3       1 RES1    0.0000
     26 H12        3.7131    0.5589    4.3121 H         1 RES1    0.0000
     27 H13        2.6163    0.3574    5.4191 H         1 RES1    0.0000
     28 C12        1.5331    1.8537    3.5881 C.3       1 RES1    0.0000
     29 H14        1.0356    1.0758    3.8854 H         1 RES1    0.0000
     30 H15        1.9579    1.6348    2.7437 H         1 RES1    0.0000
     31 C13        0.5861    3.0111    3.3893 C.ar      1 RES1    0.0000
     32 C14        0.0299    3.4105    2.1738 C.ar      1 RES1    0.0000
     33 N3         0.2693    2.6537    0.9456 N.pl3     1 RES1    0.0000
     34 O2         0.2964    3.2720   -0.1085 O.2       1 RES1    0.0000
     35 O3         0.3939    1.4456    1.0140 O.2       1 RES1    0.0000
     36 C15       -0.7928    4.5272    2.0480 C.ar      1 RES1    0.0000
     37 H16       -1.1181    4.7745    1.2128 H         1 RES1    0.0000
     38 C16       -1.1256    5.2630    3.1632 C.ar      1 RES1    0.0000
     39 C17       -0.5992    4.8796    4.4151 C.ar      1 RES1    0.0000
     40 C18        0.2479    3.7927    4.5027 C.ar      1 RES1    0.0000
     41 H17        0.6071    3.5713    5.3306 H         1 RES1    0.0000
     42 C19       -2.3443    6.8854    1.9267 C.3       1 RES1    0.0000
     43 H18       -2.8577    7.6842    2.0717 H         1 RES1    0.0000
     44 H19       -2.8820    6.2399    1.4626 H         1 RES1    0.0000
     45 H20       -1.5692    7.0944    1.4015 H         1 RES1    0.0000
     46 O4        -1.9366    6.3475    3.1832 O.3       1 RES1    0.0000
     47 C20       -0.5031    5.3087    6.7577 C.3       1 RES1    0.0000
     48 H21       -0.8955    5.8936    7.4096 H         1 RES1    0.0000
     49 H22        0.4516    5.4077    6.7713 H         1 RES1    0.0000
     50 H23       -0.7333    4.3998    6.9647 H         1 RES1    0.0000
     51 O5        -0.9992    5.6426    5.4574 O.3       1 RES1    0.0000
@<TRIPOS>BOND
     1    1    2 1
     2    2    3 2
     3    4    2 1
     4    5    4 1
     5    6    4 2
     6    7    6 1
     7    8    6 1
     8    9    8 1
     9   10    1 1
    10   11   10 1
    11   12   11 1
    12   13   11 1
    13   14   13 1
    14   15   13 1
    15   16   13 1
    16   17   16 1
    17   18    1 1
    18   19   18 1
    19   20   18 1
    20   21   16 1
    21   22   21 1
    22   23   21 1
    23   24   21 1
    24   25   11 1
    25   26   25 1
    26   27   25 1
    27   28   24 1
    28   29   28 1
    29   30   28 1
    30   31   28 1
    31   32   31 ar
    32   33   32 1
    33   34   33 2
    34   35   33 2
    35   36   32 ar
    36   37   36 1
    37   38   36 ar
    38   39   38 ar
    39   40   31 ar
    40   41   40 1
    41   42   43 1
    42   44   42 1
    43   45   42 1
    44   46   38 1
    45   47   48 1
    46   49   47 1
    47   50   47 1
    48   51   39 1
    49    8   10 2
    50   16   18 1
    51   24   25 1
    52   39   40 ar
    53   42   46 1
    54   47   51 1
@<TRIPOS>SUBSTRUCTURE
     1 RES1 1

@<TRIPOS>CRYSIN
   8.3922   12.3660    9.4322  90.0000 104.8200  90.0000   4 1

