# MOL2 file generated by ConQuest
# Please check atom types

@<TRIPOS>MOLECULE
RANLEA
    33    35     1
SMALL
NO_CHARGES
****
Generated from CSD

@<TRIPOS>ATOM
      1 C1         3.5023    4.1435    8.2621 C.ar      1 RES1    0.0000
      2 N1         4.8827    3.8675    8.1349 N.am      1 RES1    0.0000
      3 O1         5.7354    4.9782    8.3757 O.3       1 RES1    0.0000
      4 C2         3.0803    5.4285    8.5739 C.ar      1 RES1    0.0000
      5 H1         3.6972    6.1160    8.6840 H         1 RES1    0.0000
      6 N2         6.8349    3.4453    7.2289 N.am      1 RES1    0.0000
      7 O2         7.9102    5.3636    7.9818 O.2       1 RES1    0.0000
      8 C3         1.7201    5.6677    8.7175 C.ar      1 RES1    0.0000
      9 H2         1.4259    6.5223    8.9357 H         1 RES1    0.0000
     10 O3         5.1075    1.9012    6.9434 O.2       1 RES1    0.0000
     11 C4         0.8009    4.6587    8.5403 C.ar      1 RES1    0.0000
     12 H3        -0.1081    4.8338    8.6245 H         1 RES1    0.0000
     13 O4        11.0556    1.0409    4.5122 O.3       1 RES1    0.0000
     14 C5         1.2370    3.3844    8.2360 C.ar      1 RES1    0.0000
     15 H4         0.6155    2.7029    8.1192 H         1 RES1    0.0000
     16 C6         2.5887    3.1078    8.1011 C.ar      1 RES1    0.0000
     17 H5         2.8790    2.2458    7.9059 H         1 RES1    0.0000
     18 C7         5.5402    2.9434    7.3637 C.2       1 RES1    0.0000
     19 C8         6.9605    4.6540    7.8512 C.2       1 RES1    0.0000
     20 C9         7.9122    2.7951    6.5290 C.ar      1 RES1    0.0000
     21 C10        8.5059    3.4212    5.4385 C.ar      1 RES1    0.0000
     22 H6         8.1993    4.2511    5.1509 H         1 RES1    0.0000
     23 C11        9.5521    2.8024    4.7874 C.ar      1 RES1    0.0000
     24 H7         9.9550    3.2167    4.0596 H         1 RES1    0.0000
     25 C12       10.0070    1.5576    5.2189 C.ar      1 RES1    0.0000
     26 C13        9.3945    0.9241    6.2892 C.ar      1 RES1    0.0000
     27 H8         9.6840    0.0842    6.5649 H         1 RES1    0.0000
     28 C14        8.3446    1.5522    6.9468 C.ar      1 RES1    0.0000
     29 H9         7.9328    1.1353    7.6696 H         1 RES1    0.0000
     30 C15       11.7349   -0.0862    5.0671 C.3       1 RES1    0.0000
     31 H10       12.5105   -0.2840    4.5380 H         1 RES1    0.0000
     32 H11       11.1468   -0.8446    5.0682 H         1 RES1    0.0000
     33 H12       12.0031    0.1129    5.9674 H         1 RES1    0.0000
@<TRIPOS>BOND
     1    1    2 1
     2    2    3 1
     3    3   19 1
     4    4    1 ar
     5    5    4 1
     6    6   18 1
     7    7   19 2
     8    8    4 ar
     9    9    8 1
    10   10   18 2
    11   11    8 ar
    12   12   11 1
    13   13   25 1
    14   14   11 ar
    15   15   14 1
    16   16    1 ar
    17   17   16 1
    18   18    2 1
    19   19    6 1
    20   20    6 1
    21   21   20 ar
    22   22   21 1
    23   23   21 ar
    24   24   23 1
    25   25   23 ar
    26   26   25 ar
    27   27   26 1
    28   28   20 ar
    29   29   28 1
    30   30   13 1
    31   31   30 1
    32   32   30 1
    33   33   30 1
    34   14   16 ar
    35   26   28 ar
@<TRIPOS>SUBSTRUCTURE
     1 RES1 1

@<TRIPOS>CRYSIN
  10.3080    6.6820   19.2300  90.0000  92.4490  90.0000 231 1

