# MOL2 file generated by ConQuest
# Please check atom types

@<TRIPOS>MOLECULE
RANWUY
    18    18     1
SMALL
NO_CHARGES
****
Generated from CSD

@<TRIPOS>ATOM
      1 N1         1.6250   10.1118    2.7679 N.3       1 RES1    0.0000
      2 C1         1.8972   11.4324    2.5500 C.2       1 RES1    0.0000
      3 C2         1.4436   12.3590    3.5121 C.2       1 RES1    0.0000
      4 C3         0.7179   11.9386    4.5968 C.2       1 RES1    0.0000
      5 C4         0.4435   10.5764    4.7777 C.2       1 RES1    0.0000
      6 C5         0.9249    9.6886    3.8557 C.2       1 RES1    0.0000
      7 N2         2.6926   11.6426    1.4617 N.2       1 RES1    0.0000
      8 N3         2.6345   12.8707    0.9172 N.pl3     1 RES1    0.0000
      9 O1         1.6933   13.6644    1.1357 O.2       1 RES1    0.0000
     10 O2         3.5338   13.1445    0.1026 O.2       1 RES1    0.0000
     11 C6         2.0887    9.1009    1.8010 C.3       1 RES1    0.0000
     12 H1         1.6894   13.2675    3.3610 H         1 RES1    0.0000
     13 H2         0.4342   12.6024    5.2566 H         1 RES1    0.0000
     14 H3        -0.0519   10.2279    5.4885 H         1 RES1    0.0000
     15 H4         0.7924    8.7648    3.9491 H         1 RES1    0.0000
     16 H5         1.7351    9.3609    0.9226 H         1 RES1    0.0000
     17 H6         3.0314    9.1368    1.7372 H         1 RES1    0.0000
     18 H7         1.8119    8.2186    2.1257 H         1 RES1    0.0000
@<TRIPOS>BOND
     1    1    2 1
     2    2    3 1
     3    3    4 2
     4    4    5 1
     5    5    6 2
     6    6    1 1
     7    7    2 2
     8    8    7 1
     9    9    8 2
    10   10    8 2
    11   11    1 1
    12   12    3 1
    13   13    4 1
    14   14    5 1
    15   15    6 1
    16   16   11 1
    17   17   11 1
    18   18   11 1
@<TRIPOS>SUBSTRUCTURE
     1 RES1 1

@<TRIPOS>CRYSIN
   7.7530   13.8290    6.0700  90.0000  90.0000  90.0000  33 1

