# MOL2 file generated by ConQuest
# Please check atom types

@<TRIPOS>MOLECULE
RAPFIY
    22    22     1
SMALL
NO_CHARGES
****
Generated from CSD

@<TRIPOS>ATOM
      1 C1         1.0881   12.6529    1.6627 C.ar      1 RES1    0.0000
      2 C2         1.1410   14.0409    1.6376 C.ar      1 RES1    0.0000
      3 H1         0.6128   14.5411    2.2162 H         1 RES1    0.0000
      4 C3         1.9792   14.6636    0.7511 C.ar      1 RES1    0.0000
      5 C4         2.7757   13.9730   -0.1332 C.ar      1 RES1    0.0000
      6 H2         3.3423   14.4111   -0.7260 H         1 RES1    0.0000
      7 C5         2.6912   12.5996   -0.0961 C.ar      1 RES1    0.0000
      8 C6         1.8619   11.9222    0.7773 C.ar      1 RES1    0.0000
      9 H3         1.8239   10.9930    0.7697 H         1 RES1    0.0000
     10 C7         0.1684   12.0011    2.6453 C.2       1 RES1    0.0000
     11 C8        -0.6403    9.9044    3.4128 C.3       1 RES1    0.0000
     12 H4        -0.4947   10.1865    4.3200 H         1 RES1    0.0000
     13 H5        -0.4129    8.9749    3.3254 H         1 RES1    0.0000
     14 H6        -1.5639   10.0301    3.1835 H         1 RES1    0.0000
     15 N1         2.0258   16.1360    0.7326 N.pl3     1 RES1    0.0000
     16 N2         3.5397   11.8208   -1.0175 N.pl3     1 RES1    0.0000
     17 O1         0.1947   10.6955    2.5186 O.3       1 RES1    0.0000
     18 O2        -0.5002   12.6133    3.4303 O.2       1 RES1    0.0000
     19 O3         1.2579   16.7333    1.4466 O.2       1 RES1    0.0000
     20 O4         2.8270   16.6653    0.0022 O.2       1 RES1    0.0000
     21 O5         4.2825   12.4285   -1.7660 O.2       1 RES1    0.0000
     22 O6         3.4734   10.6192   -0.9629 O.2       1 RES1    0.0000
@<TRIPOS>BOND
     1    1    2 ar
     2    2    3 1
     3    4    2 ar
     4    5    4 ar
     5    6    5 1
     6    7    5 ar
     7    8    1 ar
     8    9    8 1
     9   10    1 1
    10   11   12 1
    11   13   11 1
    12   14   11 1
    13   15    4 1
    14   16    7 1
    15   17   10 1
    16   18   10 2
    17   19   15 2
    18   20   15 2
    19   21   16 2
    20   22   16 2
    21    7    8 ar
    22   11   17 1
@<TRIPOS>SUBSTRUCTURE
     1 RES1 1

@<TRIPOS>CRYSIN
   4.5833   18.8430   11.1120  90.0000 100.7380  90.0000  14 1

