# MOL2 file generated by ConQuest
# Please check atom types

@<TRIPOS>MOLECULE
RAPHEY
    39    41     1
SMALL
NO_CHARGES
****
Generated from CSD

@<TRIPOS>ATOM
      1 C1         8.2508   -0.3005   16.3934 C.ar      1 RES1    0.0000
      2 C2         8.7219   -1.5284   16.0020 C.ar      1 RES1    0.0000
      3 H1         8.6326   -1.8069   15.1193 H         1 RES1    0.0000
      4 C3         9.3258   -2.3376   16.9262 C.ar      1 RES1    0.0000
      5 H2         9.6373   -3.1762   16.6729 H         1 RES1    0.0000
      6 C4         9.4750   -1.9244   18.2125 C.ar      1 RES1    0.0000
      7 H3         9.9052   -2.4717   18.8284 H         1 RES1    0.0000
      8 C5         8.9924   -0.7039   18.6004 C.ar      1 RES1    0.0000
      9 H4         9.0816   -0.4297   19.4837 H         1 RES1    0.0000
     10 C6         8.3767    0.1151   17.6905 C.ar      1 RES1    0.0000
     11 H5         8.0480    0.9445   17.9524 H         1 RES1    0.0000
     12 C7         6.3640    0.5166   15.1815 C.ar      1 RES1    0.0000
     13 C8         5.5018   -0.3820   15.7700 C.ar      1 RES1    0.0000
     14 H6         5.8215   -1.0100   16.3765 H         1 RES1    0.0000
     15 C9         4.1575   -0.3416   15.4488 C.ar      1 RES1    0.0000
     16 H7         3.5720   -0.9524   15.8371 H         1 RES1    0.0000
     17 C10        3.6782    0.5882   14.5652 C.ar      1 RES1    0.0000
     18 H8         2.7716    0.6170   14.3637 H         1 RES1    0.0000
     19 C11        4.5442    1.4819   13.9738 C.ar      1 RES1    0.0000
     20 H9         4.2188    2.1020   13.3629 H         1 RES1    0.0000
     21 C12        5.8909    1.4660   14.2785 C.ar      1 RES1    0.0000
     22 C13        6.5139    3.4339   13.1270 C.2       1 RES1    0.0000
     23 H10        5.6481    3.7540   13.2403 H         1 RES1    0.0000
     24 C14        7.4579    4.2076   12.3665 C.ar      1 RES1    0.0000
     25 C15        8.7819    3.7626   12.1831 C.ar      1 RES1    0.0000
     26 C16        9.6489    4.5148   11.3782 C.ar      1 RES1    0.0000
     27 H11       10.5223    4.2266   11.2431 H         1 RES1    0.0000
     28 C17        9.2163    5.6674   10.7942 C.ar      1 RES1    0.0000
     29 H12        9.7963    6.1614   10.2623 H         1 RES1    0.0000
     30 C18        7.9187    6.1069   10.9883 C.ar      1 RES1    0.0000
     31 C19        7.0431    5.3944   11.7651 C.ar      1 RES1    0.0000
     32 H13        6.1751    5.7017   11.8917 H         1 RES1    0.0000
     33 N1         6.8448    2.3058   13.6542 N.2       1 RES1    0.0000
     34 N2         7.4771    7.3287   10.3366 N.pl3     1 RES1    0.0000
     35 O1         9.2177    2.6388   12.7278 O.3       1 RES1    0.0000
     36 O2         7.7123    0.5790   15.4452 O.3       1 RES1    0.0000
     37 O3         8.2652    7.9267    9.6041 O.2       1 RES1    0.0000
     38 O4         6.3299    7.7186   10.5418 O.2       1 RES1    0.0000
     39 H14        8.5203    2.2525   13.0932 H         1 RES1    0.0000
@<TRIPOS>BOND
     1    1    2 ar
     2    2    3 1
     3    4    2 ar
     4    5    4 1
     5    6    4 ar
     6    7    6 1
     7    8    6 ar
     8    9    8 1
     9   10    1 ar
    10   11   10 1
    11   12   13 ar
    12   13   14 1
    13   15   13 ar
    14   16   15 1
    15   17   15 ar
    16   18   17 1
    17   19   17 ar
    18   20   19 1
    19   21   12 ar
    20   22   23 1
    21   24   22 1
    22   25   24 ar
    23   26   25 ar
    24   27   26 1
    25   28   26 ar
    26   29   28 1
    27   30   28 ar
    28   31   24 ar
    29   32   31 1
    30   33   21 1
    31   34   30 1
    32   35   25 1
    33   36    1 1
    34   37   34 2
    35   38   34 2
    36   39   35 1
    37    8   10 ar
    38   12   36 1
    39   19   21 ar
    40   22   33 2
    41   30   31 ar
@<TRIPOS>SUBSTRUCTURE
     1 RES1 1

@<TRIPOS>CRYSIN
  11.8219    6.1210   22.3560  90.0000  94.4030  90.0000  14 1

