# MOL2 file generated by ConQuest
# Please check atom types

@<TRIPOS>MOLECULE
RAPZUG
    23    25     1
SMALL
NO_CHARGES
****
Generated from CSD

@<TRIPOS>ATOM
      1 C1        11.8193    2.5007    1.8115 C.2       1 RES1    0.0000
      2 C2        10.3543    2.1874    1.6927 C.3       1 RES1    0.0000
      3 H1         9.7863    2.9487    1.5445 H         1 RES1    0.0000
      4 H2        10.1045    1.6918    2.5612 H         1 RES1    0.0000
      5 C3        10.1361    1.2754    0.4703 C.3       1 RES1    0.0000
      6 H3        10.2943    1.8824   -0.4191 H         1 RES1    0.0000
      7 H4         9.1633    0.9710    0.4424 H         1 RES1    0.0000
      8 C4        11.0599    0.0471    0.4082 C.3       1 RES1    0.0000
      9 H5        10.9652   -0.4944   -0.3260 H         1 RES1    0.0000
     10 H6        10.8311   -0.5421    1.2263 H         1 RES1    0.0000
     11 C5        12.5174    0.4283    0.5402 C.ar      1 RES1    0.0000
     12 C6        12.7597    1.6090    1.2247 C.ar      1 RES1    0.0000
     13 C7        13.9931    2.1457    1.5026 C.ar      1 RES1    0.0000
     14 C8        15.1240    1.4505    1.0579 C.ar      1 RES1    0.0000
     15 C9        14.9306    0.2532    0.3640 C.ar      1 RES1    0.0000
     16 H7        15.7136   -0.2383    0.0000 H         1 RES1    0.0000
     17 C10       13.6479   -0.2538    0.1040 C.ar      1 RES1    0.0000
     18 H8        13.5647   -1.0722   -0.3648 H         1 RES1    0.0000
     19 N1        12.4022    3.4949    2.4060 N.2       1 RES1    0.0000
     20 N2        16.4582    1.9402    1.3357 N.pl3     1 RES1    0.0000
     21 O1        13.8442    3.2870    2.2166 O.3       1 RES1    0.0000
     22 O2        16.5615    2.9999    1.9535 O.2       1 RES1    0.0000
     23 O3        17.4255    1.2784    0.9469 O.2       1 RES1    0.0000
@<TRIPOS>BOND
     1    1    2 1
     2    2    3 1
     3    4    2 1
     4    5    2 1
     5    6    5 1
     6    7    5 1
     7    8    5 1
     8    9    8 1
     9   10    8 1
    10   11    8 1
    11   12    1 1
    12   13   12 ar
    13   14   13 ar
    14   15   14 ar
    15   16   15 1
    16   17   11 ar
    17   18   17 1
    18   19    1 2
    19   20   14 1
    20   21   13 1
    21   22   20 2
    22   23   20 2
    23   11   12 ar
    24   15   17 ar
    25   19   21 1
@<TRIPOS>SUBSTRUCTURE
     1 RES1 1

@<TRIPOS>CRYSIN
  19.1700    5.9569    7.7612  90.0000  90.0000  90.0000  29 1

