# MOL2 file generated by ConQuest
# Please check atom types

@<TRIPOS>MOLECULE
RAQRUX
    34    37     1
SMALL
USER_CHARGES
****
Generated from CSD

@<TRIPOS>ATOM
      1 N1        12.9898    1.2926    4.9263 N.pl3     1 RES1    1.0000
      2 O1        14.1107    2.2131    4.6864 O.3       1 RES1    0.0000
      3 N2        13.6699    3.2036    3.8247 N.2       1 RES1    0.0000
      4 C1        11.5455    3.6937    2.5889 C.3       1 RES1    0.0000
      5 C2        10.0756    3.6465    3.0655 C.3       1 RES1    0.0000
      6 H1         9.4869    3.8932    2.3219 H         1 RES1    0.0000
      7 C3         9.7377    2.2654    3.5267 C.2       1 RES1    0.0000
      8 C4        10.6313    1.3630    4.1504 C.2       1 RES1    0.0000
      9 C5        11.9847    1.7615    4.2284 C.2       1 RES1    0.0000
     10 C6        12.4418    2.9376    3.5428 C.2       1 RES1    0.0000
     11 C7        12.0138    5.1093    2.2677 C.3       1 RES1    0.0000
     12 H2        12.9842    5.1250    2.2948 H         1 RES1    0.0000
     13 H3        11.7445    5.3248    1.3615 H         1 RES1    0.0000
     14 C8        11.4920    6.1836    3.1907 C.2       1 RES1    0.0000
     15 C9        10.5043    5.9809    4.0614 C.2       1 RES1    0.0000
     16 C10        9.8708    4.6370    4.2284 C.3       1 RES1    0.0000
     17 H4         8.9184    4.7630    4.3568 H         1 RES1    0.0000
     18 H5        10.2217    4.2336    5.0379 H         1 RES1    0.0000
     19 N3         8.5395    1.7215    3.5770 N.pl3     1 RES1    1.0000
     20 O2         8.7162    0.4012    4.2639 O.3       1 RES1    0.0000
     21 N4        10.0379    0.2608    4.5761 N.2       1 RES1    0.0000
     22 O3        13.1747    0.3367    5.6777 O.2       1 RES1   -1.0000
     23 N5        11.6486    2.9172    1.2248 N.pl3     1 RES1    0.0000
     24 O4        12.7617    2.6255    0.8681 O.2       1 RES1    0.0000
     25 O5        10.6304    2.7384    0.5818 O.2       1 RES1    0.0000
     26 C11       12.1856    7.5146    2.9546 C.3       1 RES1    0.0000
     27 H6        11.8491    8.1646    3.5764 H         1 RES1    0.0000
     28 H7        12.0123    7.8099    2.0581 H         1 RES1    0.0000
     29 H8        13.1306    7.4083    3.0810 H         1 RES1    0.0000
     30 C12        9.9343    7.0536    4.9495 C.3       1 RES1    0.0000
     31 H9        10.5114    7.8207    4.9366 H         1 RES1    0.0000
     32 H10        9.8639    6.7204    5.8480 H         1 RES1    0.0000
     33 H11        9.0631    7.3021    4.6315 H         1 RES1    0.0000
     34 O6         7.4118    2.0421    3.2436 O.2       1 RES1   -1.0000
@<TRIPOS>BOND
     1    1    2 1
     2    2    3 1
     3    3   10 2
     4    4    5 1
     5    5    6 1
     6    7    5 1
     7    8    7 1
     8    9    1 2
     9   10    4 1
    10   11    4 1
    11   12   11 1
    12   13   11 1
    13   14   11 1
    14   15   14 2
    15   16    5 1
    16   17   16 1
    17   18   16 1
    18   19    7 2
    19   20   19 1
    20   21    8 2
    21   22    1 1
    22   23    4 1
    23   24   23 2
    24   25   23 2
    25   26   14 1
    26   27   26 1
    27   28   26 1
    28   29   26 1
    29   30   15 1
    30   31   30 1
    31   32   30 1
    32   33   30 1
    33   34   19 1
    34    8    9 1
    35    9   10 1
    36   15   16 1
    37   20   21 1
@<TRIPOS>SUBSTRUCTURE
     1 RES1 1

@<TRIPOS>CRYSIN
  12.0520   18.0076    6.5433  90.0000  99.7020  90.0000   9 1

