# MOL2 file generated by ConQuest
# Please check atom types

@<TRIPOS>MOLECULE
RAQSEI
    42    46     1
SMALL
USER_CHARGES
****
Generated from CSD

@<TRIPOS>ATOM
      1 C1         0.7749    0.7310    6.2255 C.3       1 RES1    0.0000
      2 C2         1.9994    0.3673    7.0997 C.3       1 RES1    0.0000
      3 C3         3.1793    0.1230    6.2009 C.2       1 RES1    0.0000
      4 C4         3.1134   -0.4680    4.9358 C.2       1 RES1    0.0000
      5 C5         1.8065   -0.7243    4.4162 C.2       1 RES1    0.0000
      6 C6         0.6657   -0.2246    5.0664 C.2       1 RES1    0.0000
      7 C7        -0.5304    0.8841    7.0408 C.3       1 RES1    0.0000
      8 C8        -0.6847   -0.2401    8.0377 C.2       1 RES1    0.0000
      9 C9         0.3167   -1.0081    8.4257 C.2       1 RES1    0.0000
     10 C10        1.7169   -0.9290    7.8865 C.3       1 RES1    0.0000
     11 C11       -0.6361    2.2355    7.6792 C.2       1 RES1    0.0000
     12 C12       -1.2330    3.3808    7.3109 C.2       1 RES1    0.0000
     13 C13       -0.8692    4.3711    8.2587 C.2       1 RES1    0.0000
     14 C14       -0.0760    3.7715    9.1329 C.2       1 RES1    0.0000
     15 C15       -0.9965   -2.2970    9.9600 C.3       1 RES1    0.0000
     16 C16       -0.7435   -3.3210   11.0169 C.3       1 RES1    0.0000
     17 N1         1.4075   -1.4287    3.3750 N.pl3     1 RES1    1.0000
     18 N2        -0.4357   -0.5991    4.4899 N.2       1 RES1    0.0000
     19 N3         4.4342    0.2693    6.4907 N.pl3     1 RES1    1.0000
     20 N4         4.2855   -0.7044    4.3965 N.2       1 RES1    0.0000
     21 N5         1.0437    2.1102    5.5762 N.pl3     1 RES1    0.0000
     22 O1         1.9320   -2.0513    2.4782 O.2       1 RES1   -1.0000
     23 O2        -0.0776   -1.3664    3.4231 O.3       1 RES1    0.0000
     24 O3         5.0767    0.6875    7.4130 O.2       1 RES1   -1.0000
     25 O4         5.1846   -0.2558    5.3189 O.3       1 RES1    0.0000
     26 O5         1.8300    2.8591    6.1106 O.2       1 RES1    0.0000
     27 O6         0.3934    2.3833    4.5832 O.2       1 RES1    0.0000
     28 O7         0.0997    2.4504    8.8098 O.3       1 RES1    0.0000
     29 O8         0.2602   -2.0230    9.3245 O.3       1 RES1    0.0000
     30 H1         2.1848    1.1162    7.7362 H         1 RES1    0.0000
     31 H2        -1.2969    0.8188    6.4013 H         1 RES1    0.0000
     32 H3        -1.5907   -0.4106    8.4238 H         1 RES1    0.0000
     33 H4         2.3558   -0.9797    8.6536 H         1 RES1    0.0000
     34 H5         1.8663   -1.7078    7.2765 H         1 RES1    0.0000
     35 H6        -1.8251    3.5125    6.5153 H         1 RES1    0.0000
     36 H7        -1.1538    5.3288    8.2666 H         1 RES1    0.0000
     37 H8         0.3396    4.2225    9.9227 H         1 RES1    0.0000
     38 H9        -1.3611   -1.4619   10.3716 H         1 RES1    0.0000
     39 H10       -1.6494   -2.6509    9.2901 H         1 RES1    0.0000
     40 H11       -1.6007   -3.5371   11.4825 H         1 RES1    0.0000
     41 H12       -0.0858   -2.9610   11.6780 H         1 RES1    0.0000
     42 H13       -0.3740   -4.1496   10.5955 H         1 RES1    0.0000
@<TRIPOS>BOND
     1    1    2 1
     2    2    3 1
     3    3    4 1
     4    4    5 1
     5    5    6 1
     6    6    1 1
     7    7    1 1
     8    8    7 1
     9    9    8 2
    10   10    2 1
    11   11    7 1
    12   12   11 2
    13   13   12 1
    14   14   13 2
    15   15   16 1
    16   16   40 1
    17   17    5 2
    18   18    6 2
    19   19    3 2
    20   20    4 2
    21   21    1 1
    22   22   17 1
    23   23   17 1
    24   24   19 1
    25   25   19 1
    26   26   21 2
    27   27   21 2
    28   28   11 1
    29   29    9 1
    30   30    2 1
    31   31    7 1
    32   32    8 1
    33   33   10 1
    34   34   10 1
    35   35   12 1
    36   36   13 1
    37   37   14 1
    38   38   15 1
    39   39   15 1
    40   41   16 1
    41   42   16 1
    42    9   10 1
    43   14   28 1
    44   15   29 1
    45   18   23 1
    46   20   25 1
@<TRIPOS>SUBSTRUCTURE
     1 RES1 1

@<TRIPOS>CRYSIN
   8.8570    9.9944   10.9743 112.1190  99.6100 100.4220   2 1

