# MOL2 file generated by ConQuest
# Please check atom types

@<TRIPOS>MOLECULE
RARNUU
    65    67     1
SMALL
NO_CHARGES
****
Generated from CSD

@<TRIPOS>ATOM
      1 C1         9.2783    2.7027    0.8884 C.3       1 RES1    0.0000
      2 H1         9.4838    1.8444    1.3135 H         1 RES1    0.0000
      3 C2        10.4711    3.6022    1.1823 C.ar      1 RES1    0.0000
      4 C3        10.3854    4.9747    1.2306 C.ar      1 RES1    0.0000
      5 H2         9.5734    5.3983    1.0729 H         1 RES1    0.0000
      6 C4        11.5223    5.7250    1.5184 C.ar      1 RES1    0.0000
      7 C5        12.7423    5.1357    1.7663 C.ar      1 RES1    0.0000
      8 H3        13.4864    5.6573    1.9639 H         1 RES1    0.0000
      9 C6        12.8443    3.7669    1.7164 C.ar      1 RES1    0.0000
     10 H4        13.6639    3.3557    1.8713 H         1 RES1    0.0000
     11 C7        11.7171    2.9927    1.4320 C.ar      1 RES1    0.0000
     12 N1        11.4125    7.1735    1.5658 N.pl3     1 RES1    0.0000
     13 O1        12.3795    7.8238    1.9189 O.2       1 RES1    0.0000
     14 O2        10.3612    7.6946    1.2404 O.2       1 RES1    0.0000
     15 O3        11.7119    1.6454    1.3792 O.3       1 RES1    0.0000
     16 C8        12.8826    0.9073    1.7629 C.3       1 RES1    0.0000
     17 H5        13.5495    1.0870    0.9962 H         1 RES1    0.0000
     18 H6        13.1789    1.3022    2.6750 H         1 RES1    0.0000
     19 C9        12.5055   -0.5319    1.8298 C.2       1 RES1    0.0000
     20 H7        13.2030   -1.1429    1.9034 H         1 RES1    0.0000
     21 C10       11.3114   -1.0164    1.7966 C.2       1 RES1    0.0000
     22 H8        10.5036   -0.3793    1.4685 H         1 RES1    0.0000
     23 H9        11.1782   -2.0377    1.7626 H         1 RES1    0.0000
     24 C11        8.0019    3.1950    1.5537 C.ar      1 RES1    0.0000
     25 C12        7.0112    3.8697    0.8802 C.ar      1 RES1    0.0000
     26 H10        7.0997    4.0512   -0.0267 H         1 RES1    0.0000
     27 C13        5.8703    4.2801    1.5745 C.ar      1 RES1    0.0000
     28 C14        5.6837    4.0013    2.8946 C.ar      1 RES1    0.0000
     29 H11        4.8658    4.4013    3.3701 H         1 RES1    0.0000
     30 C15        6.6639    3.3156    3.5866 C.ar      1 RES1    0.0000
     31 H12        6.5458    3.1126    4.4857 H         1 RES1    0.0000
     32 C16        7.8319    2.9311    2.9254 C.ar      1 RES1    0.0000
     33 N2         4.8531    5.0367    0.8455 N.pl3     1 RES1    0.0000
     34 O4         3.9257    5.4992    1.4769 O.2       1 RES1    0.0000
     35 O5         4.9919    5.2160   -0.3468 O.2       1 RES1    0.0000
     36 O6         8.8720    2.2988    3.5168 O.3       1 RES1    0.0000
     37 C17        8.7282    1.8675    4.8812 C.3       1 RES1    0.0000
     38 H13        8.0077    1.0529    4.7780 H         1 RES1    0.0000
     39 H14        8.6086    2.8730    5.4231 H         1 RES1    0.0000
     40 C18        9.9809    1.2937    5.3447 C.2       1 RES1    0.0000
     41 H15        9.9078    0.7210    6.0736 H         1 RES1    0.0000
     42 C19       11.1066    1.4517    4.9223 C.2       1 RES1    0.0000
     43 H16       11.2554    2.0110    4.1952 H         1 RES1    0.0000
     44 H17       11.8196    1.0128    5.3251 H         1 RES1    0.0000
     45 C20        9.1259    2.3995   -0.5931 C.ar      1 RES1    0.0000
     46 C21        9.4811    3.2824   -1.5918 C.ar      1 RES1    0.0000
     47 H18        9.7658    4.1874   -1.3455 H         1 RES1    0.0000
     48 C22        9.4070    2.8887   -2.9212 C.ar      1 RES1    0.0000
     49 C23        9.0019    1.6308   -3.2865 C.ar      1 RES1    0.0000
     50 H19        9.0285    1.2912   -4.2362 H         1 RES1    0.0000
     51 C24        8.6129    0.7432   -2.3070 C.ar      1 RES1    0.0000
     52 H20        8.4011   -0.2529   -2.5146 H         1 RES1    0.0000
     53 C25        8.6483    1.1266   -0.9663 C.ar      1 RES1    0.0000
     54 N3         9.8021    3.8417   -3.9555 N.pl3     1 RES1    0.0000
     55 O7         9.9677    3.4306   -5.0972 O.2       1 RES1    0.0000
     56 O8         9.9333    5.0051   -3.6558 O.2       1 RES1    0.0000
     57 O9         8.2583    0.3463    0.0679 O.3       1 RES1    0.0000
     58 C26        7.8819   -1.0107   -0.1593 C.3       1 RES1    0.0000
     59 H21        7.1030   -1.0371   -0.8501 H         1 RES1    0.0000
     60 H22        8.7442   -1.5648   -0.5721 H         1 RES1    0.0000
     61 C27        7.5202   -1.6086    1.1459 C.2       1 RES1    0.0000
     62 H23        7.4197   -2.6128    1.1317 H         1 RES1    0.0000
     63 C28        7.4802   -1.0128    2.2865 C.2       1 RES1    0.0000
     64 H24        7.6115    0.0000    2.3400 H         1 RES1    0.0000
     65 H25        7.1486   -1.5429    3.1099 H         1 RES1    0.0000
@<TRIPOS>BOND
     1    1    2 1
     2    3    1 1
     3    4    3 ar
     4    5    4 1
     5    6    4 ar
     6    7    6 ar
     7    8    7 1
     8    9    7 ar
     9   10    9 1
    10   11    3 ar
    11   12    6 1
    12   13   12 2
    13   14   12 2
    14   15   11 1
    15   16   15 1
    16   17   16 1
    17   18   16 1
    18   19   16 1
    19   20   19 1
    20   21   19 2
    21   22   21 1
    22   23   21 1
    23   24    1 1
    24   25   24 ar
    25   26   25 1
    26   27   25 ar
    27   28   27 ar
    28   29   28 1
    29   30   28 ar
    30   31   30 1
    31   32   24 ar
    32   33   27 1
    33   34   33 2
    34   35   33 2
    35   36   32 1
    36   37   36 1
    37   38   37 1
    38   39   37 1
    39   40   37 1
    40   41   40 1
    41   42   40 2
    42   43   42 1
    43   44   42 1
    44   45    1 1
    45   46   45 ar
    46   47   46 1
    47   48   46 ar
    48   49   48 ar
    49   50   49 1
    50   51   49 ar
    51   52   51 1
    52   53   45 ar
    53   54   48 1
    54   55   54 2
    55   56   54 2
    56   57   53 1
    57   58   57 1
    58   59   58 1
    59   60   58 1
    60   61   58 1
    61   62   61 1
    62   63   61 2
    63   64   63 1
    64   65   63 1
    65    9   11 ar
    66   30   32 ar
    67   51   53 ar
@<TRIPOS>SUBSTRUCTURE
     1 RES1 1

@<TRIPOS>CRYSIN
  12.4354   12.1584   17.9173  90.0000  95.9220  90.0000 231 1

