# MOL2 file generated by ConQuest
# Please check atom types

@<TRIPOS>MOLECULE
RARQIN
    28    29     1
SMALL
NO_CHARGES
****
Generated from CSD

@<TRIPOS>ATOM
      1 C1        -0.0434    5.4806    1.7500 C.ar      1 RES1    0.0000
      2 C2        -0.7503    5.5863    0.5575 C.ar      1 RES1    0.0000
      3 H1        -1.2548    6.3688    0.3689 H         1 RES1    0.0000
      4 C3         0.6628    4.3289    2.0518 C.ar      1 RES1    0.0000
      5 H2         1.1182    4.2564    2.8817 H         1 RES1    0.0000
      6 C4         1.1261    1.3276   -2.8880 C.ar      1 RES1    0.0000
      7 C5         1.0163    2.4958   -1.9763 C.2       1 RES1    0.0000
      8 C6         0.7676   -0.9852   -3.4266 C.ar      1 RES1    0.0000
      9 H3         0.4293   -1.8466   -3.2087 H         1 RES1    0.0000
     10 C7         1.9487    0.4607   -4.9922 C.ar      1 RES1    0.0000
     11 H4         2.3845    0.5829   -5.8263 H         1 RES1    0.0000
     12 C8         1.4398   -0.7762   -4.6191 C.ar      1 RES1    0.0000
     13 C9         0.0275    3.4210   -0.0545 C.ar      1 RES1    0.0000
     14 C10       -0.7134    4.5395   -0.3584 C.ar      1 RES1    0.0000
     15 H5        -1.1905    4.5963   -1.1778 H         1 RES1    0.0000
     16 C11        1.7969    1.5082   -4.1015 C.ar      1 RES1    0.0000
     17 H6         2.1539    2.3617   -4.3173 H         1 RES1    0.0000
     18 C12        0.5949    0.0820   -2.5506 C.ar      1 RES1    0.0000
     19 H7         0.1214   -0.0363   -1.7353 H         1 RES1    0.0000
     20 C13        0.7091    3.2790    1.1422 C.ar      1 RES1    0.0000
     21 H8         1.1948    2.4863    1.3371 H         1 RES1    0.0000
     22 N1         1.6364   -1.8963   -5.5560 N.pl3     1 RES1    0.0000
     23 O1         0.1048    2.3348   -0.9936 O.3       1 RES1    0.0000
     24 O2        -0.0058    6.4855    2.6923 O.3       1 RES1    0.0000
     25 H9        -0.4546    7.1418    2.4206 H         1 RES1    0.0000
     26 O3         1.6856    3.4991   -2.0864 O.2       1 RES1    0.0000
     27 O4         1.4131   -3.0377   -5.1385 O.2       1 RES1    0.0000
     28 O5         1.9949   -1.6415   -6.7087 O.2       1 RES1    0.0000
@<TRIPOS>BOND
     1    1    2 ar
     2    2    3 1
     3    4    1 ar
     4    5    4 1
     5    6    7 1
     6    7   23 1
     7    8    9 1
     8   10   11 1
     9   12    8 ar
    10   13   14 ar
    11   14    2 ar
    12   15   14 1
    13   16    6 ar
    14   17   16 1
    15   18    6 ar
    16   19   18 1
    17   20    4 ar
    18   21   20 1
    19   22   12 1
    20   23   13 1
    21   24    1 1
    22   25   24 1
    23   26    7 2
    24   27   22 2
    25   28   22 2
    26    8   18 ar
    27   10   12 ar
    28   10   16 ar
    29   13   20 ar
@<TRIPOS>SUBSTRUCTURE
     1 RES1 1

@<TRIPOS>CRYSIN
   7.2280    7.8880   20.9580  90.0000  90.0000  90.0000  19 1

