# MOL2 file generated by ConQuest
# Please check atom types

@<TRIPOS>MOLECULE
RARRIN
    61    63     1
SMALL
NO_CHARGES
****
Generated from CSD

@<TRIPOS>ATOM
      1 C1         4.4527    5.5125   23.7817 C.ar      1 RES1    0.0000
      2 C2         4.3530    7.4219   22.1250 C.3       1 RES1    0.0000
      3 C3         4.4758    9.3959   24.4123 C.3       1 RES1    0.0000
      4 C4         4.0859    2.7670   24.1367 C.ar      1 RES1    0.0000
      5 C5         4.0900    7.9162   24.6353 C.3       1 RES1    0.0000
      6 C6         5.4375    4.6056   23.3952 C.ar      1 RES1    0.0000
      7 C7         4.2296    9.3371   20.4670 C.ar      1 RES1    0.0000
      8 C8         4.6039    8.9229   21.8873 C.3       1 RES1    0.0000
      9 C9         4.0442    9.8409   22.9930 C.3       1 RES1    0.0000
     10 C10        3.0269    9.9025   20.1352 C.ar      1 RES1    0.0000
     11 C11        4.5598   11.2514   22.6999 C.2       1 RES1    0.0000
     12 C12        4.7029    6.9969   23.5685 C.3       1 RES1    0.0000
     13 C13        3.1081    3.6447   24.5239 C.ar      1 RES1    0.0000
     14 C14        5.1536    9.1311   19.4667 C.ar      1 RES1    0.0000
     15 C15        5.2614    3.2398   23.5752 C.ar      1 RES1    0.0000
     16 C16        4.8900    9.4945   18.1400 C.ar      1 RES1    0.0000
     17 C17        3.6845   10.0811   17.8268 C.ar      1 RES1    0.0000
     18 C18        2.7529   10.2936   18.8078 C.ar      1 RES1    0.0000
     19 C19        4.7887   13.2870   20.5719 C.3       1 RES1    0.0000
     20 C20        3.9087   13.4333   21.7819 C.3       1 RES1    0.0000
     21 C21        4.5256   14.2525   22.8935 C.3       1 RES1    0.0000
     22 N1         2.9325    7.0472   21.7996 N.pl3     1 RES1    0.0000
     23 O1         5.7364   11.5324   22.8072 O.2       1 RES1    0.0000
     24 O2         2.0085    7.6467   22.3637 O.2       1 RES1    0.0000
     25 O3         3.5866   12.0689   22.3207 O.3       1 RES1    0.0000
     26 O4         2.7547    6.1304   21.0071 O.2       1 RES1    0.0000
     27 C22        3.2795    5.0259   24.3468 C.ar      1 RES1    0.0000
     28 O5         5.9131    9.4452   24.5461 O.3       1 RES1    0.0000
     29 C23        3.8102   10.2906   25.4595 C.3       1 RES1    0.0000
     30 C24        2.5009   13.9060   21.3699 C.3       1 RES1    0.0000
     31 C25        4.6166    7.4595   25.9875 C.2       1 RES1    0.0000
     32 O6         3.9197    7.2333   26.9216 O.2       1 RES1    0.0000
     33 H1         5.5846    8.9632   21.9783 H         1 RES1    0.0000
     34 H2         2.7807   10.0688   25.3814 H         1 RES1    0.0000
     35 H3         2.2767    3.2967   24.8580 H         1 RES1    0.0000
     36 H4         6.2219    4.9028   23.0121 H         1 RES1    0.0000
     37 H5         3.9799    1.7200   24.3037 H         1 RES1    0.0000
     38 H6         5.5962    9.3928   17.4769 H         1 RES1    0.0000
     39 H7         6.0075    8.8277   19.6554 H         1 RES1    0.0000
     40 H8         1.8133   10.6586   18.5855 H         1 RES1    0.0000
     41 H9         5.7121    7.1678   23.6541 H         1 RES1    0.0000
     42 H10        3.1921    7.9254   24.5641 H         1 RES1    0.0000
     43 H11        5.6422    7.2953   26.1007 H         1 RES1    0.0000
     44 H12        2.0798   13.1808   20.7021 H         1 RES1    0.0000
     45 H13        5.5267   13.9045   23.1024 H         1 RES1    0.0000
     46 H14        3.9336   14.2432   23.7701 H         1 RES1    0.0000
     47 H15        5.7295   12.9652   20.7718 H         1 RES1    0.0000
     48 H16        5.0285   14.1509   20.1298 H         1 RES1    0.0000
     49 H17        3.9741   11.1944   25.2602 H         1 RES1    0.0000
     50 H18        4.9068    6.8537   21.4601 H         1 RES1    0.0000
     51 H19        4.4028   12.7342   19.9493 H         1 RES1    0.0000
     52 H20        2.7170   14.7822   20.9290 H         1 RES1    0.0000
     53 H21        4.5998   15.0901   22.6254 H         1 RES1    0.0000
     54 H22        6.1118    9.9934   24.0640 H         1 RES1    0.0000
     55 H23        4.2232   10.0580   26.3404 H         1 RES1    0.0000
     56 H24        3.5802   10.4076   16.9098 H         1 RES1    0.0000
     57 H25        3.0646    9.8733   22.8729 H         1 RES1    0.0000
     58 H26        2.3520   10.1535   20.7769 H         1 RES1    0.0000
     59 H27        6.0018    2.6177   23.3653 H         1 RES1    0.0000
     60 H28        2.5838    5.6172   24.6492 H         1 RES1    0.0000
     61 H29        2.0913   14.1047   22.3624 H         1 RES1    0.0000
@<TRIPOS>BOND
     1    1    6 ar
     2    2    8 1
     3    3    5 1
     4    4   13 ar
     5    5   12 1
     6    6   15 ar
     7    7    8 1
     8    8    9 1
     9    9    3 1
    10   10    7 ar
    11   11    9 1
    12   12    1 1
    13   13   27 ar
    14   14    7 ar
    15   15    4 ar
    16   16   14 ar
    17   17   16 ar
    18   18   10 ar
    19   19   20 1
    20   20   21 1
    21   21   45 1
    22   22    2 1
    23   23   11 2
    24   24   22 2
    25   25   11 1
    26   26   22 2
    27   27    1 ar
    28   28    3 1
    29   29    3 1
    30   30   20 1
    31   31    5 1
    32   32   31 2
    33   33    8 1
    34   34   29 1
    35   35   13 1
    36   36    6 1
    37   37    4 1
    38   38   16 1
    39   39   14 1
    40   40   18 1
    41   41   12 1
    42   42    5 1
    43   43   31 1
    44   44   30 1
    45   46   21 1
    46   47   19 1
    47   48   19 1
    48   49   29 1
    49   50    2 1
    50   51   19 1
    51   52   30 1
    52   53   21 1
    53   54   28 1
    54   55   29 1
    55   56   17 1
    56   57    9 1
    57   58   10 1
    58   59   15 1
    59   60   27 1
    60   61   30 1
    61    2   12 1
    62   17   18 ar
    63   20   25 1
@<TRIPOS>SUBSTRUCTURE
     1 RES1 1

@<TRIPOS>CRYSIN
   5.7932   15.3981   25.7810  90.0000  90.0000  90.0000  19 1

