# MOL2 file generated by ConQuest
# Please check atom types

@<TRIPOS>MOLECULE
RASDEU
    15    15     1
SMALL
NO_CHARGES
****
Generated from CSD

@<TRIPOS>ATOM
      1 C1         7.5633    2.8546    1.9519 C.ar      1 RES1    0.0000
      2 C2         8.1494    1.8428    2.7217 C.ar      1 RES1    0.0000
      3 C3         7.6817    1.7234    4.0270 C.ar      1 RES1    0.0000
      4 C4         6.7049    2.5539    4.5352 C.ar      1 RES1    0.0000
      5 C5         6.1546    3.5482    3.7449 C.ar      1 RES1    0.0000
      6 C6         6.5733    3.6872    2.4436 C.ar      1 RES1    0.0000
      7 N1         7.9696    3.0781    0.5534 N.pl3     1 RES1    0.0000
      8 O1         8.9267    2.4803    0.0931 O.2       1 RES1    0.0000
      9 O2         7.3284    3.8767   -0.1109 O.2       1 RES1    0.0000
     10 C7         9.2352    0.9212    2.2560 C.3       1 RES1    0.0000
     11 C8        10.5497    1.6080    2.0902 C.2       1 RES1    0.0000
     12 O3        10.8508    2.6507    2.6217 O.2       1 RES1    0.0000
     13 C9        11.5792    0.9073    1.1930 C.2       1 RES1    0.0000
     14 O4        11.2525   -0.0855    0.5657 O.co2     1 RES1    0.0000
     15 O5        12.7511    1.4587    1.1698 O.co2     1 RES1    0.0000
@<TRIPOS>BOND
     1    1    2 ar
     2    2    3 ar
     3    3    4 ar
     4    4    5 ar
     5    5    6 ar
     6    6    1 ar
     7    7    1 1
     8    8    7 2
     9    9    7 2
    10   10    2 1
    11   11   10 1
    12   12   11 2
    13   13   11 1
    14   14   13 2
    15   15   13 1
@<TRIPOS>SUBSTRUCTURE
     1 RES1 1

@<TRIPOS>CRYSIN
  12.7650    5.1490   14.9510  90.0000 113.6300  90.0000  14 1

