# MOL2 file generated by ConQuest
# Please check atom types

@<TRIPOS>MOLECULE
RASZAM
    19    19     1
SMALL
NO_CHARGES
****
Generated from CSD

@<TRIPOS>ATOM
      1 O1        -0.0203    0.2304    8.4238 O.3       1 RES1    0.0000
      2 O2         1.3643    1.0101   10.0237 O.2       1 RES1    0.0000
      3 N1        -2.8052    2.3551    8.5819 N.ar      1 RES1    0.0000
      4 N2        -0.7009    1.4873    8.5268 N.3       1 RES1    0.0000
      5 C1        -2.0275    1.3335    8.9360 C.ar      1 RES1    0.0000
      6 C2        -2.4640    0.2654    9.7167 C.ar      1 RES1    0.0000
      7 C3        -3.7802    0.2741   10.1398 C.ar      1 RES1    0.0000
      8 C4        -4.6025    1.3264    9.7821 C.ar      1 RES1    0.0000
      9 C5        -4.0789    2.3311    9.0181 C.ar      1 RES1    0.0000
     10 C6         1.0692    0.1565    9.2371 C.2       1 RES1    0.0000
     11 C7         1.7731   -1.1349    9.0161 C.3       1 RES1    0.0000
     12 H1        -0.5838    1.8933    7.7675 H         1 RES1    0.0000
     13 H2        -1.9132   -0.4104    9.9591 H         1 RES1    0.0000
     14 H3        -4.0959   -0.4596   10.6642 H         1 RES1    0.0000
     15 H4        -5.5468    1.3461   10.0619 H         1 RES1    0.0000
     16 H5        -4.6455    3.0862    8.7106 H         1 RES1    0.0000
     17 H6         1.2202   -1.8878    8.9896 H         1 RES1    0.0000
     18 H7         2.4609   -1.2093    9.6506 H         1 RES1    0.0000
     19 H8         2.1664   -1.1163    8.1524 H         1 RES1    0.0000
@<TRIPOS>BOND
     1    1    4 1
     2    2   10 2
     3    3    5 ar
     4    4    5 1
     5    5    6 ar
     6    6    7 ar
     7    7    8 ar
     8    8    9 ar
     9    9    3 ar
    10   10    1 1
    11   11   10 1
    12   12    4 1
    13   13    6 1
    14   14    7 1
    15   15    8 1
    16   16    9 1
    17   17   11 1
    18   18   11 1
    19   19   11 1
@<TRIPOS>SUBSTRUCTURE
     1 RES1 1

@<TRIPOS>CRYSIN
   9.4320    5.4720   14.9983  90.0000 101.6570  90.0000  14 1

