# MOL2 file generated by ConQuest
# Please check atom types

@<TRIPOS>MOLECULE
RATMUV
    47    48     1
SMALL
NO_CHARGES
****
Generated from CSD

@<TRIPOS>ATOM
      1 O1         9.4949    2.7065    5.4763 O.2       1 RES1    0.0000
      2 O2        10.9907    4.1496    1.4746 O.2       1 RES1    0.0000
      3 O3         8.6812    0.3011    1.5196 O.2       1 RES1    0.0000
      4 O4         4.6261    1.2640    4.6644 O.2       1 RES1    0.0000
      5 O5         4.2594    1.1481    2.5632 O.2       1 RES1    0.0000
      6 O6         5.7102    6.8280    2.4012 O.3       1 RES1    0.0000
      7 N1        10.2534    3.4279    3.4791 N.am      1 RES1    0.0000
      8 N2         9.7718    2.2558    1.4874 N.am      1 RES1    0.0000
      9 N3         4.9720    1.0265    3.5257 N.pl3     1 RES1    0.0000
     10 C1         9.5563    2.5463    4.2800 C.2       1 RES1    0.0000
     11 C2        10.3751    3.3265    2.1109 C.2       1 RES1    0.0000
     12 C3         9.1046    1.2560    2.1376 C.2       1 RES1    0.0000
     13 C4         8.8694    1.3639    3.6253 C.3       1 RES1    0.0000
     14 C5        10.9347    4.5467    4.1530 C.3       1 RES1    0.0000
     15 H1        11.2498    5.1724    3.4968 H         1 RES1    0.0000
     16 H2        11.6795    4.2105    4.6584 H         1 RES1    0.0000
     17 H3        10.3202    4.9865    4.7452 H         1 RES1    0.0000
     18 C6         9.8795    2.1656    0.0293 C.3       1 RES1    0.0000
     19 H4         9.1167    1.6981   -0.3196 H         1 RES1    0.0000
     20 H5        10.6805    1.6900   -0.2038 H         1 RES1    0.0000
     21 H6         9.9120    3.0493   -0.3438 H         1 RES1    0.0000
     22 C7         9.4512    0.1029    4.2941 C.3       1 RES1    0.0000
     23 H7         9.1707   -0.6757    3.8068 H         1 RES1    0.0000
     24 H8         9.1349    0.0462    5.1988 H         1 RES1    0.0000
     25 H9        10.4095    0.1537    4.2929 H         1 RES1    0.0000
     26 C8         7.3321    1.5938    3.9029 C.3       1 RES1    0.0000
     27 H10        7.2119    1.5561    4.8743 H         1 RES1    0.0000
     28 C9         6.3898    0.5308    3.2978 C.3       1 RES1    0.0000
     29 H11        6.5541    0.4771    2.3340 H         1 RES1    0.0000
     30 C10        6.4486   -0.8652    3.8816 C.3       1 RES1    0.0000
     31 H12        6.5026   -0.8102    4.8381 H         1 RES1    0.0000
     32 H13        7.2217   -1.3220    3.5426 H         1 RES1    0.0000
     33 H14        5.6568   -1.3492    3.6331 H         1 RES1    0.0000
     34 C11        6.9128    2.9887    3.4641 C.ar      1 RES1    0.0000
     35 C12        6.6513    3.9820    4.3977 C.ar      1 RES1    0.0000
     36 H15        6.7452    3.7885    5.3025 H         1 RES1    0.0000
     37 C13        6.2584    5.2417    4.0208 C.ar      1 RES1    0.0000
     38 H16        6.0933    5.8898    4.6668 H         1 RES1    0.0000
     39 C14        6.1075    5.5487    2.6827 C.ar      1 RES1    0.0000
     40 C15        6.3646    4.5885    1.7284 C.ar      1 RES1    0.0000
     41 H17        6.2755    4.7892    0.8250 H         1 RES1    0.0000
     42 C16        6.7563    3.3254    2.1286 C.ar      1 RES1    0.0000
     43 H18        6.9213    2.6797    1.4800 H         1 RES1    0.0000
     44 C17        5.2270    7.0906    1.1073 C.3       1 RES1    0.0000
     45 H19        4.9501    8.0082    1.0494 H         1 RES1    0.0000
     46 H20        4.4790    6.5180    0.9215 H         1 RES1    0.0000
     47 H21        5.9231    6.9256    0.4668 H         1 RES1    0.0000
@<TRIPOS>BOND
     1    1   10 2
     2    2   11 2
     3    3   12 2
     4    4    9 2
     5    5    9 2
     6    6   39 1
     7    7   10 1
     8    8   11 1
     9    9   28 1
    10   10   13 1
    11   11    7 1
    12   12    8 1
    13   13   12 1
    14   14    7 1
    15   15   14 1
    16   16   14 1
    17   17   14 1
    18   18    8 1
    19   19   18 1
    20   20   18 1
    21   21   18 1
    22   22   13 1
    23   23   22 1
    24   24   22 1
    25   25   22 1
    26   26   13 1
    27   27   26 1
    28   28   26 1
    29   29   28 1
    30   30   28 1
    31   31   30 1
    32   32   30 1
    33   33   30 1
    34   34   26 1
    35   35   34 ar
    36   36   35 1
    37   37   35 ar
    38   38   37 1
    39   39   37 ar
    40   40   39 ar
    41   41   40 1
    42   42   34 ar
    43   43   42 1
    44   44    6 1
    45   45   44 1
    46   46   44 1
    47   47   44 1
    48   40   42 ar
@<TRIPOS>SUBSTRUCTURE
     1 RES1 1

@<TRIPOS>CRYSIN
   8.3157    9.2369   12.7478  80.9990  71.7290  75.3950   2 1

