# MOL2 file generated by ConQuest
# Please check atom types

@<TRIPOS>MOLECULE
RAVCUM
    47    49     1
SMALL
NO_CHARGES
****
Generated from CSD

@<TRIPOS>ATOM
      1 O1        -2.6545    6.5629   11.0043 O.3       1 RES1    0.0000
      2 O2        -0.7619    7.0581   12.0599 O.3       1 RES1    0.0000
      3 O3         1.3694    7.0827   12.8008 O.2       1 RES1    0.0000
      4 O4         1.9763    1.6211    9.9199 O.2       1 RES1    0.0000
      5 N1        -0.8706    5.0586   10.9780 N.2       1 RES1    0.0000
      6 N2         1.6790    2.7493   10.4678 N.3       1 RES1    0.0000
      7 C1        -6.1182    8.1237    7.8251 C.ar      1 RES1    0.0000
      8 C2        -6.5789    7.0680    8.6124 C.ar      1 RES1    0.0000
      9 C3        -5.6759    6.2962    9.3433 C.ar      1 RES1    0.0000
     10 C4        -4.3108    6.5776    9.2856 C.ar      1 RES1    0.0000
     11 C5        -3.8487    7.6333    8.4971 C.ar      1 RES1    0.0000
     12 C6        -4.7531    8.4051    7.7675 C.ar      1 RES1    0.0000
     13 C7        -3.3402    5.7185   10.0215 C.3       1 RES1    0.0000
     14 C8        -1.4440    6.1315   11.3027 C.2       1 RES1    0.0000
     15 C9         0.5020    6.5125   12.2040 C.2       1 RES1    0.0000
     16 C10        0.5046    5.1729   11.4782 C.3       1 RES1    0.0000
     17 C11        1.5252    5.2220   10.3474 C.3       1 RES1    0.0000
     18 C12        1.6558    3.9267    9.5501 C.3       1 RES1    0.0000
     19 C13        2.9913    3.9500    8.7929 C.3       1 RES1    0.0000
     20 C14        0.5042    3.7485    8.5497 C.3       1 RES1    0.0000
     21 C15        1.0345    2.6657   11.7941 C.3       1 RES1    0.0000
     22 C16       -0.3350    1.9861   11.6449 C.3       1 RES1    0.0000
     23 C17        1.9180    1.8066   12.6917 C.3       1 RES1    0.0000
     24 C18        0.9113    4.0606   12.4460 C.3       1 RES1    0.0000
     25 H1        -6.7171    8.5907    7.1958 H         1 RES1    0.0000
     26 H2        -7.7348    6.7103    8.7252 H         1 RES1    0.0000
     27 H3        -5.9508    5.4691    9.8911 H         1 RES1    0.0000
     28 H4        -2.7658    7.7673    8.5873 H         1 RES1    0.0000
     29 H5        -4.3643    9.2421    7.1833 H         1 RES1    0.0000
     30 H6        -2.4978    5.4076    9.2768 H         1 RES1    0.0000
     31 H7        -3.6918    4.9775   10.5931 H         1 RES1    0.0000
     32 H8         1.3055    5.9361    9.7156 H         1 RES1    0.0000
     33 H9         2.4605    5.4445   10.8815 H         1 RES1    0.0000
     34 H10        3.6533    3.9451    9.3646 H         1 RES1    0.0000
     35 H11        3.1786    3.0479    8.3366 H         1 RES1    0.0000
     36 H12        3.0298    4.6825    8.2614 H         1 RES1    0.0000
     37 H13        0.5682    3.0356    7.9229 H         1 RES1    0.0000
     38 H14       -0.4579    3.6747    9.0261 H         1 RES1    0.0000
     39 H15        0.5705    4.4859    7.8101 H         1 RES1    0.0000
     40 H16       -0.1695    1.0692   11.1698 H         1 RES1    0.0000
     41 H17       -1.0211    2.4580   11.1573 H         1 RES1    0.0000
     42 H18       -0.6187    1.7821   12.4986 H         1 RES1    0.0000
     43 H19        1.9172    0.8726   12.3607 H         1 RES1    0.0000
     44 H20        1.4261    1.6960   13.6144 H         1 RES1    0.0000
     45 H21        2.7263    2.2368   12.7118 H         1 RES1    0.0000
     46 H22        0.3018    3.9574   13.1380 H         1 RES1    0.0000
     47 H23        1.7508    4.3015   12.8246 H         1 RES1    0.0000
@<TRIPOS>BOND
     1    1   13 1
     2    2   14 1
     3    3   15 2
     4    4    6 1
     5    5   14 2
     6    6   18 1
     7    7    8 ar
     8    8    9 ar
     9    9   10 ar
    10   10   11 ar
    11   11   12 ar
    12   12    7 ar
    13   13   10 1
    14   14    1 1
    15   15    2 1
    16   16    5 1
    17   17   16 1
    18   18   17 1
    19   19   18 1
    20   20   18 1
    21   21    6 1
    22   22   21 1
    23   23   21 1
    24   24   16 1
    25   25    7 1
    26   26    8 1
    27   27    9 1
    28   28   11 1
    29   29   12 1
    30   30   13 1
    31   31   13 1
    32   32   17 1
    33   33   17 1
    34   34   19 1
    35   35   19 1
    36   36   19 1
    37   37   20 1
    38   38   20 1
    39   39   20 1
    40   40   22 1
    41   41   22 1
    42   42   22 1
    43   43   23 1
    44   44   23 1
    45   45   23 1
    46   46   24 1
    47   47   24 1
    48   15   16 1
    49   21   24 1
@<TRIPOS>SUBSTRUCTURE
     1 RES1 1

@<TRIPOS>CRYSIN
  11.8680   12.2900   12.8660  90.0000 103.0000  90.0000 231 1

