# MOL2 file generated by ConQuest
# Please check atom types

@<TRIPOS>MOLECULE
RAVDAT
    58    62     1
SMALL
NO_CHARGES
****
Generated from CSD

@<TRIPOS>ATOM
      1 O1         2.3289    6.6450    2.0578 O.3       1 RES1    0.0000
      2 O2        -0.8112    4.6777   -0.3753 O.2       1 RES1    0.0000
      3 O3         0.7166    5.9352    0.7056 O.3       1 RES1    0.0000
      4 O4         1.1594   -0.3074    2.4669 O.2       1 RES1    0.0000
      5 N1         1.7892    4.3909    1.9918 N.2       1 RES1    0.0000
      6 N2         0.9808    0.8867    2.0578 N.3       1 RES1    0.0000
      7 C1         5.4459    7.1181    2.0044 C.ar      1 RES1    0.0000
      8 C2         5.1864    7.9080    0.9052 C.ar      1 RES1    0.0000
      9 C3         6.0580    8.9401    0.6185 C.ar      1 RES1    0.0000
     10 C4         7.1455    9.1971    1.3916 C.ar      1 RES1    0.0000
     11 C5         7.4480    8.3700    2.4795 C.ar      1 RES1    0.0000
     12 C6         6.5659    7.3491    2.7859 C.ar      1 RES1    0.0000
     13 C7         6.6369    6.3245    3.8415 C.ar      1 RES1    0.0000
     14 C8         7.5867    6.0861    4.8030 C.ar      1 RES1    0.0000
     15 C9         7.3885    4.9982    5.6548 C.ar      1 RES1    0.0000
     16 C10        6.2892    4.1673    5.5395 C.ar      1 RES1    0.0000
     17 C11        5.3385    4.4132    4.5725 C.ar      1 RES1    0.0000
     18 C12        5.4994    5.5049    3.7164 C.ar      1 RES1    0.0000
     19 C13        4.6220    5.9482    2.5877 C.3       1 RES1    0.0000
     20 C14        3.2610    6.3804    3.1317 C.3       1 RES1    0.0000
     21 C15        1.6581    5.5868    1.6404 C.2       1 RES1    0.0000
     22 C16        0.7381    3.6681    1.2468 C.3       1 RES1    0.0000
     23 C17        1.3035    2.5801    0.3120 C.3       1 RES1    0.0000
     24 C18        1.9197    1.3823    0.9980 C.3       1 RES1    0.0000
     25 C19        3.2825    1.6841    1.6066 C.3       1 RES1    0.0000
     26 C20        2.0538    0.2683   -0.0365 C.3       1 RES1    0.0000
     27 C21        0.2236    1.7921    2.9926 C.3       1 RES1    0.0000
     28 C22       -0.9928    1.0153    3.4986 C.3       1 RES1    0.0000
     29 C23        1.1089    2.1703    4.1564 C.3       1 RES1    0.0000
     30 C24       -0.2935    3.0030    2.1759 C.3       1 RES1    0.0000
     31 C25        0.0671    4.7504    0.4090 C.2       1 RES1    0.0000
     32 H1         8.1155    4.8007    6.4279 H         1 RES1    0.0000
     33 H2         4.3232    7.7254    0.2839 H         1 RES1    0.0000
     34 H3         6.1777    3.3234    6.2058 H         1 RES1    0.0000
     35 H4         2.0612    3.0347   -0.3092 H         1 RES1    0.0000
     36 H5         0.4950    2.2262   -0.3106 H         1 RES1    0.0000
     37 H6         7.7792   10.0429    1.1639 H         1 RES1    0.0000
     38 H7         4.4772    3.7686    4.4797 H         1 RES1    0.0000
     39 H8         3.9511    2.0380    0.8363 H         1 RES1    0.0000
     40 H9         3.6863    0.7843    2.0466 H         1 RES1    0.0000
     41 H10        3.1761    2.4404    2.3699 H         1 RES1    0.0000
     42 H11        5.8697    9.5585   -0.2460 H         1 RES1    0.0000
     43 H12        2.7246    0.5850   -0.8209 H         1 RES1    0.0000
     44 H13        1.0844    0.0503   -0.4582 H         1 RES1    0.0000
     45 H14        2.4482   -0.6185    0.4386 H         1 RES1    0.0000
     46 H15        8.4578    6.7176    4.8972 H         1 RES1    0.0000
     47 H16        4.3903    5.1975    1.8456 H         1 RES1    0.0000
     48 H17       -1.5605    1.6375    4.1747 H         1 RES1    0.0000
     49 H18       -0.6629    0.1267    4.0173 H         1 RES1    0.0000
     50 H19       -1.6134    0.7340    2.6608 H         1 RES1    0.0000
     51 H20        8.3444    8.5246    3.0614 H         1 RES1    0.0000
     52 H21        0.5653    2.8204    4.8269 H         1 RES1    0.0000
     53 H22        1.9858    2.6844    3.7909 H         1 RES1    0.0000
     54 H23        1.4098    1.2779    4.6863 H         1 RES1    0.0000
     55 H24        3.3843    7.2765    3.7207 H         1 RES1    0.0000
     56 H25       -0.6436    3.7500    2.8731 H         1 RES1    0.0000
     57 H26       -1.1190    2.6639    1.5673 H         1 RES1    0.0000
     58 H27        2.8649    5.5924    3.7558 H         1 RES1    0.0000
@<TRIPOS>BOND
     1    1   20 1
     2    2   31 2
     3    3   21 1
     4    4    6 1
     5    5   21 2
     6    6   24 1
     7    7    8 ar
     8    8    9 ar
     9    9   10 ar
    10   10   11 ar
    11   11   12 ar
    12   12    7 ar
    13   13   12 1
    14   14   13 ar
    15   15   14 ar
    16   16   15 ar
    17   17   16 ar
    18   18   13 ar
    19   19    7 1
    20   20   19 1
    21   21    1 1
    22   22    5 1
    23   23   22 1
    24   24   23 1
    25   25   24 1
    26   26   24 1
    27   27    6 1
    28   28   27 1
    29   29   27 1
    30   30   22 1
    31   31    3 1
    32   32   15 1
    33   33    8 1
    34   34   16 1
    35   35   23 1
    36   36   23 1
    37   37   10 1
    38   38   17 1
    39   39   25 1
    40   40   25 1
    41   41   25 1
    42   42    9 1
    43   43   26 1
    44   44   26 1
    45   45   26 1
    46   46   14 1
    47   47   19 1
    48   48   28 1
    49   49   28 1
    50   50   28 1
    51   51   11 1
    52   52   29 1
    53   53   29 1
    54   54   29 1
    55   55   20 1
    56   56   30 1
    57   57   30 1
    58   58   20 1
    59   17   18 ar
    60   18   19 1
    61   22   31 1
    62   27   30 1
@<TRIPOS>SUBSTRUCTURE
     1 RES1 1

@<TRIPOS>CRYSIN
   8.2660   18.6290   14.2160  90.0000  98.6000  90.0000 231 1

