# MOL2 file generated by ConQuest
# Please check atom types

@<TRIPOS>MOLECULE
RAVNEH
    32    32     1
SMALL
NO_CHARGES
****
Generated from CSD

@<TRIPOS>ATOM
      1 O1         9.3775    3.3289    3.4381 O.2       1 RES1    0.0000
      2 O2        10.6752    1.2306    6.6442 O.2       1 RES1    0.0000
      3 O3         6.5436    4.4831    4.7612 O.2       1 RES1    0.0000
      4 O4         7.2151    3.3098    6.4107 O.2       1 RES1    0.0000
      5 N1         9.9169    3.1079    5.5971 N.am      1 RES1    0.0000
      6 N2         7.3313    4.2389    5.6451 N.pl3     1 RES1    0.0000
      7 C1         9.7628    4.5390    5.7255 C.ar      1 RES1    0.0000
      8 C2        10.8917    5.3426    5.7781 C.ar      1 RES1    0.0000
      9 C3        10.6887    6.7069    5.9676 C.ar      1 RES1    0.0000
     10 C4         9.4411    7.2499    6.0696 C.ar      1 RES1    0.0000
     11 C5         8.2938    6.4804    5.9467 C.ar      1 RES1    0.0000
     12 C6         8.4993    5.1189    5.7912 C.ar      1 RES1    0.0000
     13 C7        12.2787    4.7655    5.6629 C.3       1 RES1    0.0000
     14 C8         6.9215    7.1039    6.0596 C.3       1 RES1    0.0000
     15 C9         9.6588    2.5813    4.3258 C.2       1 RES1    0.0000
     16 C10        9.7065    1.1037    4.0900 C.3       1 RES1    0.0000
     17 C11       10.2667    2.3521    6.7409 C.2       1 RES1    0.0000
     18 C12       10.0955    3.0287    8.0516 C.3       1 RES1    0.0000
     19 H1        11.4531    7.2854    6.0279 H         1 RES1    0.0000
     20 H2         9.3555    8.1926    6.2313 H         1 RES1    0.0000
     21 H3        12.5270    4.3603    6.4965 H         1 RES1    0.0000
     22 H4        12.2946    4.1038    4.9677 H         1 RES1    0.0000
     23 H5        12.9000    5.4668    5.4510 H         1 RES1    0.0000
     24 H6         6.5362    7.1912    5.1850 H         1 RES1    0.0000
     25 H7         6.9961    7.9702    6.4656 H         1 RES1    0.0000
     26 H8         6.3601    6.5445    6.6017 H         1 RES1    0.0000
     27 H9         9.4338    0.9141    3.1891 H         1 RES1    0.0000
     28 H10       10.6031    0.7872    4.2253 H         1 RES1    0.0000
     29 H11        9.1158    0.6617    4.7032 H         1 RES1    0.0000
     30 H12       10.2080    2.3889    8.7592 H         1 RES1    0.0000
     31 H13        9.2161    3.4108    8.1026 H         1 RES1    0.0000
     32 H14       10.7523    3.7232    8.1405 H         1 RES1    0.0000
@<TRIPOS>BOND
     1    1   15 2
     2    2   17 2
     3    3    6 2
     4    4    6 2
     5    5    7 1
     6    6   12 1
     7    7    8 ar
     8    8    9 ar
     9    9   10 ar
    10   10   11 ar
    11   11   12 ar
    12   12    7 ar
    13   13    8 1
    14   14   11 1
    15   15    5 1
    16   16   15 1
    17   17    5 1
    18   18   17 1
    19   19    9 1
    20   20   10 1
    21   21   13 1
    22   22   13 1
    23   23   13 1
    24   24   14 1
    25   25   14 1
    26   26   14 1
    27   27   16 1
    28   28   16 1
    29   29   16 1
    30   30   18 1
    31   31   18 1
    32   32   18 1
@<TRIPOS>SUBSTRUCTURE
     1 RES1 1

@<TRIPOS>CRYSIN
  12.2310   13.6430    7.7330  90.0000  90.0000  90.0000  19 1

