# MOL2 file generated by ConQuest
# Please check atom types

@<TRIPOS>MOLECULE
RAWNUA
    35    37     1
SMALL
NO_CHARGES
****
Generated from CSD

@<TRIPOS>ATOM
      1 C1         6.2216    1.6256    5.8100 C.2       1 RES1    0.0000
      2 C2         6.0752    3.3077   -0.6921 C.ar      1 RES1    0.0000
      3 C3         5.4414    1.5698    7.0511 C.ar      1 RES1    0.0000
      4 C4         7.4666    3.0434    1.7040 C.ar      1 RES1    0.0000
      5 N1         6.3948    0.5554    5.0867 N.2       1 RES1    0.0000
      6 C5         4.6149    0.4938    7.3384 C.ar      1 RES1    0.0000
      7 H1         4.5610   -0.2170    6.7420 H         1 RES1    0.0000
      8 O1         7.1727    0.9689    3.9835 O.3       1 RES1    0.0000
      9 C6         6.9270    2.2408   -0.4889 C.ar      1 RES1    0.0000
     10 H2         7.0389    1.6040   -1.1573 H         1 RES1    0.0000
     11 C7         5.9149    4.2424    0.2972 C.ar      1 RES1    0.0000
     12 H3         5.3428    4.9652    0.1721 H         1 RES1    0.0000
     13 C8         3.9353    1.5055    9.3874 C.ar      1 RES1    0.0000
     14 H4         3.4260    1.4872   10.1648 H         1 RES1    0.0000
     15 C9         7.4245    2.2921    4.1044 C.2       1 RES1    0.0000
     16 C10        8.2156    2.9146    3.0131 C.3       1 RES1    0.0000
     17 H5         9.0136    2.3838    2.8644 H         1 RES1    0.0000
     18 H6         8.4992    3.7975    3.2982 H         1 RES1    0.0000
     19 C11        5.4985    2.6093    7.9635 C.ar      1 RES1    0.0000
     20 H7         6.0455    3.3418    7.7929 H         1 RES1    0.0000
     21 C12        6.6149    4.0988    1.4872 C.ar      1 RES1    0.0000
     22 H8         6.5040    4.7351    2.1564 H         1 RES1    0.0000
     23 C13        7.6100    2.1138    0.6970 C.ar      1 RES1    0.0000
     24 H9         8.1785    1.3887    0.8214 H         1 RES1    0.0000
     25 C14        3.8755    0.4665    8.4934 C.ar      1 RES1    0.0000
     26 H10        3.3282   -0.2632    8.6717 H         1 RES1    0.0000
     27 C15        4.7543    2.5695    9.1212 C.ar      1 RES1    0.0000
     28 H11        4.8076    3.2729    9.7282 H         1 RES1    0.0000
     29 C16        6.8571    2.7443    5.2173 C.2       1 RES1    0.0000
     30 H12        6.8746    3.6158    5.5414 H         1 RES1    0.0000
     31 O2         5.4466    3.3379   -1.9084 O.3       1 RES1    0.0000
     32 C17        4.5677    4.4133   -2.1809 C.3       1 RES1    0.0000
     33 H13        4.1958    4.3079   -3.0589 H         1 RES1    0.0000
     34 H14        5.0514    5.2415   -2.1354 H         1 RES1    0.0000
     35 H15        3.8604    4.4207   -1.5323 H         1 RES1    0.0000
@<TRIPOS>BOND
     1    1    3 1
     2    2    9 ar
     3    3    6 ar
     4    4   16 1
     5    5    1 2
     6    6    7 1
     7    8    5 1
     8    9   10 1
     9   11    2 ar
    10   12   11 1
    11   13   14 1
    12   15    8 1
    13   16   15 1
    14   17   16 1
    15   18   16 1
    16   19    3 ar
    17   20   19 1
    18   21    4 ar
    19   22   21 1
    20   23    4 ar
    21   24   23 1
    22   25    6 ar
    23   26   25 1
    24   27   13 ar
    25   28   27 1
    26   29    1 1
    27   30   29 1
    28   31    2 1
    29   32   31 1
    30   33   32 1
    31   34   32 1
    32   35   32 1
    33    9   23 ar
    34   11   21 ar
    35   13   25 ar
    36   15   29 2
    37   19   27 ar
@<TRIPOS>SUBSTRUCTURE
     1 RES1 1

@<TRIPOS>CRYSIN
   8.6503    5.6960   14.1476  90.0000  98.4680  90.0000   4 1

