# MOL2 file generated by ConQuest
# Please check atom types

@<TRIPOS>MOLECULE
RAXRAL
    31    33     1
SMALL
NO_CHARGES
****
Generated from CSD

@<TRIPOS>ATOM
      1 O1         3.6332    1.6080    9.6151 O.3       1 RES1    0.0000
      2 H1         3.3932    2.2969    9.1977 H         1 RES1    0.0000
      3 O2         6.6322   -0.8146   12.8644 O.3       1 RES1    0.0000
      4 N1         4.1320    1.9728   10.8727 N.2       1 RES1    0.0000
      5 N2         5.2025    2.5097   13.2979 N.3       1 RES1    0.0000
      6 N3         4.2527    0.2995   13.7685 N.3       1 RES1    0.0000
      7 C1         4.5825    0.9730   11.4979 C.2       1 RES1    0.0000
      8 H2         4.5799    0.1188   11.0835 H         1 RES1    0.0000
      9 C2         5.1251    1.1226   12.8991 C.3       1 RES1    0.0000
     10 C3         5.2426    2.7886   14.6720 C.ar      1 RES1    0.0000
     11 C4         5.4966    4.0984   15.1051 C.ar      1 RES1    0.0000
     12 H3         5.6063    4.7953   14.4689 H         1 RES1    0.0000
     13 C5         5.5873    4.3764   16.4591 C.ar      1 RES1    0.0000
     14 H4         5.7530    5.2673   16.7452 H         1 RES1    0.0000
     15 C6         5.4392    3.3668   17.4041 C.ar      1 RES1    0.0000
     16 H5         5.5150    3.5595   18.3313 H         1 RES1    0.0000
     17 C7         7.9781   -1.0879   12.8731 C.2       1 RES1    0.0000
     18 H6         8.3545   -1.9598   12.8410 H         1 RES1    0.0000
     19 C8         6.5225    0.5480   12.9406 C.2       1 RES1    0.0000
     20 C9         7.7425    1.1155   12.9808 C.2       1 RES1    0.0000
     21 H7         7.9381    2.0441   13.0318 H         1 RES1    0.0000
     22 C10        8.6848    0.0460   12.9316 C.2       1 RES1    0.0000
     23 H8         9.6314    0.1234   12.9394 H         1 RES1    0.0000
     24 C11        5.1787    2.0766   16.9743 C.ar      1 RES1    0.0000
     25 H9         5.0771    1.3852   17.6172 H         1 RES1    0.0000
     26 C12        5.0616    1.7662   15.6148 C.ar      1 RES1    0.0000
     27 C13        4.7221    0.3634   15.1668 C.3       1 RES1    0.0000
     28 H10        5.5239   -0.2084   15.2634 H         1 RES1    0.0000
     29 H11        4.0187   -0.0023   15.7598 H         1 RES1    0.0000
     30 H12        3.4352    0.6436   13.7146 H         1 RES1    0.0000
     31 H13        4.8249    3.0952   12.7918 H         1 RES1    0.0000
@<TRIPOS>BOND
     1    1    2 1
     2    3   17 1
     3    4    1 1
     4    5    9 1
     5    6    9 1
     6    7    4 2
     7    8    7 1
     8    9    7 1
     9   10    5 1
    10   11   10 ar
    11   12   11 1
    12   13   11 ar
    13   14   13 1
    14   15   13 ar
    15   16   15 1
    16   17   18 1
    17   19    3 1
    18   20   19 2
    19   21   20 1
    20   22   17 2
    21   23   22 1
    22   24   15 ar
    23   25   24 1
    24   26   10 ar
    25   27    6 1
    26   28   27 1
    27   29   27 1
    28   30    6 1
    29   31    5 1
    30    9   19 1
    31   20   22 1
    32   24   26 ar
    33   26   27 1
@<TRIPOS>SUBSTRUCTURE
     1 RES1 1

@<TRIPOS>CRYSIN
  21.0265    7.6615   15.0596  90.0000  98.1600  90.0000  15 1

