# MOL2 file generated by ConQuest
# Please check atom types

@<TRIPOS>MOLECULE
RAXWOD
    60    63     1
SMALL
NO_CHARGES
****
Generated from CSD

@<TRIPOS>ATOM
      1 O1         2.4958   10.1585    3.2915 O.3       1 RES1    0.0000
      2 O2         3.9698   10.1367    4.9951 O.2       1 RES1    0.0000
      3 O3         3.5168    7.6630    3.4348 O.3       1 RES1    0.0000
      4 O4         5.2068    6.2886    2.9623 O.2       1 RES1    0.0000
      5 O5        -2.5661   11.9728    7.4160 O.2       1 RES1    0.0000
      6 O6        -1.3785   11.5661    9.1321 O.2       1 RES1    0.0000
      7 O7         3.0443    4.9435    9.7111 O.2       1 RES1    0.0000
      8 O8         5.1080    4.4251    9.6133 O.2       1 RES1    0.0000
      9 O9         1.3334    5.5678    1.7473 O.2       1 RES1    0.0000
     10 N1         2.7593    6.7213    0.4358 N.am      1 RES1    0.0000
     11 N2        -1.5407   11.6100    7.9348 N.pl3     1 RES1    0.0000
     12 N3         4.0994    4.8822    9.1172 N.pl3     1 RES1    0.0000
     13 C1         3.5278    9.8298    2.3048 C.3       1 RES1    0.0000
     14 H1         4.3893   10.2542    2.4987 H         1 RES1    0.0000
     15 C2         3.6320    8.3136    2.1580 C.3       1 RES1    0.0000
     16 H2         4.4951    8.0860    1.7547 H         1 RES1    0.0000
     17 C3         2.5126    7.9397    1.1979 C.3       1 RES1    0.0000
     18 H3         1.6823    7.8309    1.7072 H         1 RES1    0.0000
     19 C4         3.6711    6.8095   -0.7075 C.3       1 RES1    0.0000
     20 H4         4.1111    5.9528   -0.8275 H         1 RES1    0.0000
     21 H5         4.3559    7.4699   -0.5157 H         1 RES1    0.0000
     22 C5         2.9635    7.1897   -2.0016 C.3       1 RES1    0.0000
     23 H6         3.5375    6.9604   -2.7491 H         1 RES1    0.0000
     24 H7         2.1535    6.6610   -2.0803 H         1 RES1    0.0000
     25 C6         2.5973    8.6525   -2.1025 C.3       1 RES1    0.0000
     26 H8         2.1353    8.7959   -2.9426 H         1 RES1    0.0000
     27 H9         3.4167    9.1724   -2.1279 H         1 RES1    0.0000
     28 C7         1.7207    9.1888   -0.9718 C.3       1 RES1    0.0000
     29 H10        1.4484   10.0946   -1.1868 H         1 RES1    0.0000
     30 H11        0.9187    8.6463   -0.9109 H         1 RES1    0.0000
     31 C8         2.4070    9.1900    0.3548 C.2       1 RES1    0.0000
     32 C9         2.9796   10.2124    0.9705 C.2       1 RES1    0.0000
     33 H12        3.0342   11.0688    0.6131 H         1 RES1    0.0000
     34 C10        2.8489   10.2542    4.5778 C.2       1 RES1    0.0000
     35 C11        1.6743   10.5518    5.4375 C.ar      1 RES1    0.0000
     36 C12        0.5161   11.0824    4.9029 C.ar      1 RES1    0.0000
     37 H13        0.4472   11.2042    3.9834 H         1 RES1    0.0000
     38 C13       -0.5374   11.4318    5.7173 C.ar      1 RES1    0.0000
     39 H14       -1.3119   11.8047    5.3637 H         1 RES1    0.0000
     40 C14       -0.4110   11.2144    7.0681 C.ar      1 RES1    0.0000
     41 C15        0.7058   10.6557    7.6282 C.ar      1 RES1    0.0000
     42 H15        0.7496   10.4974    8.5439 H         1 RES1    0.0000
     43 C16        1.7644   10.3335    6.8032 C.ar      1 RES1    0.0000
     44 H16        2.5406    9.9691    7.1647 H         1 RES1    0.0000
     45 C17        4.3935    6.7016    3.7290 C.2       1 RES1    0.0000
     46 C18        4.2587    6.2381    5.1399 C.ar      1 RES1    0.0000
     47 C19        3.2575    6.6866    5.9871 C.ar      1 RES1    0.0000
     48 H17        2.6234    7.2877    5.6696 H         1 RES1    0.0000
     49 C20        3.1886    6.2536    7.2956 C.ar      1 RES1    0.0000
     50 H18        2.5113    6.5441    7.8624 H         1 RES1    0.0000
     51 C21        4.1614    5.3732    7.7350 C.ar      1 RES1    0.0000
     52 C22        5.1700    4.9234    6.9272 C.ar      1 RES1    0.0000
     53 H19        5.8140    4.3382    7.2563 H         1 RES1    0.0000
     54 C23        5.2151    5.3506    5.6234 C.ar      1 RES1    0.0000
     55 H20        5.8888    5.0449    5.0600 H         1 RES1    0.0000
     56 C24        2.1022    5.5954    0.7903 C.2       1 RES1    0.0000
     57 C25        2.3457    4.3587   -0.0394 C.3       1 RES1    0.0000
     58 H21        2.1827    4.5570   -0.9643 H         1 RES1    0.0000
     59 H22        1.7536    3.6598    0.2480 H         1 RES1    0.0000
     60 H23        3.2562    4.0736    0.0719 H         1 RES1    0.0000
@<TRIPOS>BOND
     1    1   13 1
     2    2   34 2
     3    3   15 1
     4    4   45 2
     5    5   11 2
     6    6   11 2
     7    7   12 2
     8    8   12 2
     9    9   56 2
    10   10   17 1
    11   11   40 1
    12   12   51 1
    13   13   14 1
    14   15   13 1
    15   16   15 1
    16   17   15 1
    17   18   17 1
    18   19   10 1
    19   20   19 1
    20   21   19 1
    21   22   19 1
    22   23   22 1
    23   24   22 1
    24   25   22 1
    25   26   25 1
    26   27   25 1
    27   28   25 1
    28   29   28 1
    29   30   28 1
    30   31   17 1
    31   32   13 1
    32   33   32 1
    33   34    1 1
    34   35   34 1
    35   36   35 ar
    36   37   36 1
    37   38   36 ar
    38   39   38 1
    39   40   38 ar
    40   41   40 ar
    41   42   41 1
    42   43   35 ar
    43   44   43 1
    44   45    3 1
    45   46   45 1
    46   47   46 ar
    47   48   47 1
    48   49   47 ar
    49   50   49 1
    50   51   49 ar
    51   52   51 ar
    52   53   52 1
    53   54   46 ar
    54   55   54 1
    55   56   10 1
    56   57   56 1
    57   58   57 1
    58   59   57 1
    59   60   57 1
    60   28   31 1
    61   31   32 2
    62   41   43 ar
    63   52   54 ar
@<TRIPOS>SUBSTRUCTURE
     1 RES1 1

@<TRIPOS>CRYSIN
   9.5136   10.9065   12.1105  74.8440  81.7240  85.9420   2 1

