# MOL2 file generated by ConQuest
# Please check atom types

@<TRIPOS>MOLECULE
RAYDON
    52    48     2
SMALL
NO_CHARGES
****
Generated from CSD

@<TRIPOS>ATOM
      1 C1         7.0296    9.1128    3.4540 C.ar      1 RES1    0.0000
      2 C2         5.6522    8.6987    3.4340 C.ar      1 RES1    0.0000
      3 C3         5.3863    7.3238    3.3816 C.ar      1 RES1    0.0000
      4 H1         4.4830    7.0302    3.3595 H         1 RES1    0.0000
      5 C4         6.4089    6.3760    3.3595 C.ar      1 RES1    0.0000
      6 C5         7.7715    6.8183    3.4015 C.ar      1 RES1    0.0000
      7 H2         8.4781    6.1825    3.3973 H         1 RES1    0.0000
      8 C6         8.0491    8.1313    3.4477 C.ar      1 RES1    0.0000
      9 H3         8.9571    8.4095    3.4750 H         1 RES1    0.0000
     10 C7         3.2415    9.2561    3.4980 C.3       1 RES1    0.0000
     11 H4         3.0519    8.7023    4.2965 H         1 RES1    0.0000
     12 H5         3.0075    8.7280    2.6933 H         1 RES1    0.0000
     13 C8         2.4060   10.5209    3.5421 C.3       1 RES1    0.0000
     14 H6         2.6204   11.0217    4.3689 H         1 RES1    0.0000
     15 H7         2.6441   11.0937    2.7709 H         1 RES1    0.0000
     16 C9         0.9156   10.2445    3.5075 C.3       1 RES1    0.0000
     17 H8         0.6777    9.6655    4.2734 H         1 RES1    0.0000
     18 H9         0.6985    9.7529    2.6765 H         1 RES1    0.0000
     19 C10        0.0746   11.5116    3.5662 C.3       1 RES1    0.0000
     20 H10        0.2595   11.9824    4.4182 H         1 RES1    0.0000
     21 H11        0.3455   12.1108    2.8265 H         1 RES1    0.0000
     22 C11       -1.4190   11.2444    3.4666 C.3       1 RES1    0.0000
     23 H12       -1.9056   12.0954    3.4812 H         1 RES1    0.0000
     24 H13       -1.7039   10.6930    4.2241 H         1 RES1    0.0000
     25 H14       -1.6105   10.7726    2.6282 H         1 RES1    0.0000
     26 C12        4.8444    4.4685    3.2861 C.3       1 RES1    0.0000
     27 H15        4.3540    4.7981    2.4918 H         1 RES1    0.0000
     28 H16        4.3466    4.7544    4.0940 H         1 RES1    0.0000
     29 C13        4.9101    2.9575    3.2452 C.3       1 RES1    0.0000
     30 H17        5.4113    2.6328    4.0363 H         1 RES1    0.0000
     31 H18        5.4099    2.6765    2.4362 H         1 RES1    0.0000
     32 C14        3.5312    2.3102    3.2273 C.3       1 RES1    0.0000
     33 H19        3.0075    2.6456    3.9964 H         1 RES1    0.0000
     34 H20        3.0594    2.5763    2.3995 H         1 RES1    0.0000
     35 C15        3.5980    0.7927    3.2976 C.3       1 RES1    0.0000
     36 H21        4.0693    0.5240    4.1265 H         1 RES1    0.0000
     37 H22        4.1226    0.4572    2.5286 H         1 RES1    0.0000
     38 C16        2.2320    0.1492    2.9441 C.3       1 RES1    0.0000
     39 H23        2.3045   -0.8271    3.0060 H         1 RES1    0.0000
     40 H24        1.9783    0.4007    2.0323 H         1 RES1    0.0000
     41 H25        1.5497    0.4649    3.5725 H         1 RES1    0.0000
     42 N1         4.6460    9.5995    3.4655 N.3       1 RES1    0.0000
     43 H26        4.8612   10.4335    3.5883 H         1 RES1    0.0000
     44 N2         6.1745    5.0488    3.3092 N.3       1 RES1    0.0000
     45 H27        6.8543    4.5361    3.3155 H         1 RES1    0.0000
     46 N3         7.4300   10.4567    3.4582 N.pl3     1 RES1    0.0000
     47 O1         6.5691   11.3780    3.4524 O.2       1 RES1    0.0000
     48 O2         8.6439   10.7289    3.4565 O.2       1 RES1    0.0000
     49 C17        2.2164    0.1438    3.6533 Du        2 SUP2    0.0000
     50 H28        2.3119   -0.8296    3.6942 Du        2 SUP2    0.0000
     51 H29        1.5586    0.3776    2.9661 Du        2 SUP2    0.0000
     52 H30        1.9130    0.4778    4.5231 Du        2 SUP2    0.0000
@<TRIPOS>BOND
     1    1    2 ar
     2    2    3 ar
     3    3    4 1
     4    5    3 ar
     5    6    5 ar
     6    7    6 1
     7    8    1 ar
     8    9    8 1
     9   10   11 1
    10   12   10 1
    11   13   10 1
    12   14   13 1
    13   15   13 1
    14   16   13 1
    15   17   16 1
    16   18   16 1
    17   19   16 1
    18   20   19 1
    19   21   19 1
    20   22   19 1
    21   23   22 1
    22   24   22 1
    23   25   22 1
    24   26   27 1
    25   28   26 1
    26   29   26 1
    27   30   29 1
    28   31   29 1
    29   32   29 1
    30   33   32 1
    31   34   32 1
    32   35   32 1
    33   36   35 1
    34   37   35 1
    35   38   35 1
    36   39   38 1
    37   40   38 1
    38   41   38 1
    39   42    2 1
    40   43   42 1
    41   44    5 1
    42   45   44 1
    43   46    1 1
    44   47   46 2
    45   48   46 2
    46    6    8 ar
    47   10   42 1
    48   26   44 1
@<TRIPOS>SUBSTRUCTURE
     1 RES1 1
     2 SUP2 49

@<TRIPOS>CRYSIN
  29.6593   29.6593   10.4920  90.0000  90.0000 120.0000 233 1

