# MOL2 file generated by ConQuest
# Please check atom types

@<TRIPOS>MOLECULE
RAYFUV
    68    71     1
SMALL
NO_CHARGES
****
Generated from CSD

@<TRIPOS>ATOM
      1 O1         0.4498    9.9294    6.3890 O.3       1 RES1    0.0000
      2 O2         0.5268    7.8218    5.5978 O.2       1 RES1    0.0000
      3 O3         1.6159    8.6970    8.9259 O.3       1 RES1    0.0000
      4 O4         3.0567   10.3599    8.4289 O.2       1 RES1    0.0000
      5 O5        -1.3644    6.6058   15.2121 O.2       1 RES1    0.0000
      6 O6        -1.4338    4.9076   13.8616 O.2       1 RES1    0.0000
      7 O7         6.1015    8.9057    8.6520 O.2       1 RES1    0.0000
      8 O8         2.8978    5.7268    9.5098 O.2       1 RES1    0.0000
      9 N1        -1.1285    6.0674   14.1301 N.pl3     1 RES1    0.0000
     10 N2         4.4338    7.2828    8.7231 N.am      1 RES1    0.0000
     11 C1        -1.4372   11.3868    6.2771 C.3       1 RES1    0.0000
     12 H1        -1.4410   11.4377    7.2555 H         1 RES1    0.0000
     13 H2        -2.3507   11.5014    5.9415 H         1 RES1    0.0000
     14 H3        -0.8643   12.0946    5.9154 H         1 RES1    0.0000
     15 C2        -0.9082   10.0445    5.8471 C.3       1 RES1    0.0000
     16 H4        -1.4821    9.3195    6.1995 H         1 RES1    0.0000
     17 H5        -0.8908    9.9807    4.8594 H         1 RES1    0.0000
     18 C3         1.0378    8.7478    6.1731 C.2       1 RES1    0.0000
     19 C4         2.4791    8.7500    6.7082 C.3       1 RES1    0.0000
     20 C5         3.3148    9.6371    5.7739 C.3       1 RES1    0.0000
     21 H6         2.9711   10.5551    5.8005 H         1 RES1    0.0000
     22 H7         3.2560    9.2934    4.8573 H         1 RES1    0.0000
     23 H8         4.2504    9.6291    6.0672 H         1 RES1    0.0000
     24 C6         2.4475    9.3758    8.0993 C.2       1 RES1    0.0000
     25 C7         1.3988    9.3468   10.1961 C.3       1 RES1    0.0000
     26 H9         0.8172   10.1370   10.0658 H         1 RES1    0.0000
     27 H10        2.2651    9.6610   10.5580 H         1 RES1    0.0000
     28 C8         0.7591    8.4150   11.1771 C.ar      1 RES1    0.0000
     29 C9         0.6752    8.8737   12.4990 C.ar      1 RES1    0.0000
     30 H11        1.0363    9.7217   12.7265 H         1 RES1    0.0000
     31 C10        0.0721    8.1018   13.4717 C.ar      1 RES1    0.0000
     32 H12        0.0043    8.4123   14.3680 H         1 RES1    0.0000
     33 C11       -0.4330    6.8618   13.1081 C.ar      1 RES1    0.0000
     34 C12       -0.3567    6.3736   11.8125 C.ar      1 RES1    0.0000
     35 H13       -0.7060    5.5170   11.5945 H         1 RES1    0.0000
     36 C13        0.2440    7.1675   10.8386 C.ar      1 RES1    0.0000
     37 H14        0.3021    6.8569    9.9422 H         1 RES1    0.0000
     38 C14        2.9586    7.2825    6.7280 C.3       1 RES1    0.0000
     39 H15        2.3087    6.7570    7.2577 H         1 RES1    0.0000
     40 H16        2.9257    6.9393    5.8005 H         1 RES1    0.0000
     41 C15        4.3567    7.0023    7.2850 C.3       1 RES1    0.0000
     42 H17        5.0077    7.5962    6.8132 H         1 RES1    0.0000
     43 C16        4.7266    5.5329    6.9741 C.3       1 RES1    0.0000
     44 H18        3.9611    4.9556    7.2208 H         1 RES1    0.0000
     45 H19        4.8665    5.4432    5.9978 H         1 RES1    0.0000
     46 C17        5.9572    5.0300    7.6853 C.ar      1 RES1    0.0000
     47 C18        5.8342    4.2076    8.8092 C.ar      1 RES1    0.0000
     48 H20        4.9700    3.9660    9.1204 H         1 RES1    0.0000
     49 C19        6.9621    3.7358    9.4795 C.ar      1 RES1    0.0000
     50 H21        6.8629    3.1875   10.2480 H         1 RES1    0.0000
     51 C20        8.2283    4.0680    9.0219 C.ar      1 RES1    0.0000
     52 H22        8.9988    3.7373    9.4695 H         1 RES1    0.0000
     53 C21        8.3653    4.8855    7.9071 C.ar      1 RES1    0.0000
     54 H23        9.2324    5.1148    7.5938 H         1 RES1    0.0000
     55 C22        7.2383    5.3721    7.2473 C.ar      1 RES1    0.0000
     56 H24        7.3421    5.9410    6.4944 H         1 RES1    0.0000
     57 C23        5.3382    8.2080    9.2785 C.2       1 RES1    0.0000
     58 C24        5.7228    8.8692   11.7678 C.ar      1 RES1    0.0000
     59 H25        6.4008    9.5090   11.5859 H         1 RES1    0.0000
     60 C25        5.2905    8.6118   13.0743 C.ar      1 RES1    0.0000
     61 H26        5.6717    9.0981   13.7955 H         1 RES1    0.0000
     62 C26        4.3107    7.6548   13.3380 C.ar      1 RES1    0.0000
     63 H27        4.0433    7.4964   14.2357 H         1 RES1    0.0000
     64 C27        3.7152    6.9239   12.3051 C.ar      1 RES1    0.0000
     65 H28        3.0506    6.2680   12.4814 H         1 RES1    0.0000
     66 C28        3.7041    6.6064    9.7132 C.2       1 RES1    0.0000
     67 C29        5.1178    8.1476   10.7532 C.ar      1 RES1    0.0000
     68 C30        4.1372    7.1973   11.0134 C.ar      1 RES1    0.0000
@<TRIPOS>BOND
     1    1   15 1
     2    2   18 2
     3    3   24 1
     4    4   24 2
     5    5    9 2
     6    6    9 2
     7    7   57 2
     8    8   66 2
     9    9   33 1
    10   10   41 1
    11   11   12 1
    12   13   11 1
    13   14   11 1
    14   15   11 1
    15   16   15 1
    16   17   15 1
    17   18    1 1
    18   19   18 1
    19   20   19 1
    20   21   20 1
    21   22   20 1
    22   23   20 1
    23   24   19 1
    24   25    3 1
    25   26   25 1
    26   27   25 1
    27   28   25 1
    28   29   28 ar
    29   30   29 1
    30   31   29 ar
    31   32   31 1
    32   33   31 ar
    33   34   33 ar
    34   35   34 1
    35   36   28 ar
    36   37   36 1
    37   38   19 1
    38   39   38 1
    39   40   38 1
    40   41   38 1
    41   42   41 1
    42   43   41 1
    43   44   43 1
    44   45   43 1
    45   46   43 1
    46   47   46 ar
    47   48   47 1
    48   49   47 ar
    49   50   49 1
    50   51   49 ar
    51   52   51 1
    52   53   51 ar
    53   54   53 1
    54   55   46 ar
    55   56   55 1
    56   57   10 1
    57   58   59 1
    58   60   58 ar
    59   61   60 1
    60   62   60 ar
    61   63   62 1
    62   64   62 ar
    63   65   64 1
    64   66   10 1
    65   67   57 1
    66   68   64 ar
    67   34   36 ar
    68   53   55 ar
    69   58   67 ar
    70   66   68 1
    71   67   68 ar
@<TRIPOS>SUBSTRUCTURE
     1 RES1 1

@<TRIPOS>CRYSIN
   8.5572   14.4690   21.6842  90.0000  90.0000  90.0000  19 1

