# MOL2 file generated by ConQuest
# Please check atom types

@<TRIPOS>MOLECULE
RAYTAM
    35    36     1
SMALL
NO_CHARGES
****
Generated from CSD

@<TRIPOS>ATOM
      1 N1         1.8426    1.2462   15.9858 N.ar      1 RES1    0.0000
      2 C1         2.4140    1.7486   17.0964 C.ar      1 RES1    0.0000
      3 C2         3.7847    1.7112   17.3279 C.ar      1 RES1    0.0000
      4 C3         4.6055    1.1581   16.3766 C.ar      1 RES1    0.0000
      5 C4         4.0426    0.6618   15.2244 C.ar      1 RES1    0.0000
      6 C5         2.6733    0.7137   15.0766 C.ar      1 RES1    0.0000
      7 C6         1.5245    2.3488   18.0642 C.1       1 RES1    0.0000
      8 C7         0.8649    2.8620   18.8817 C.1       1 RES1    0.0000
      9 C8         2.0601    0.1425   13.8641 C.2       1 RES1    0.0000
     10 N2         2.5119    0.3248   12.6208 N.pl3     1 RES1    0.0000
     11 C9         1.6649   -0.3852   11.5971 C.3       1 RES1    0.0000
     12 C10        0.9346   -1.4129   12.4938 C.3       1 RES1    0.0000
     13 N3         1.0388   -0.7366   13.8383 N.pl3     1 RES1    0.0000
     14 O1         3.4633    1.1170   12.2778 O.2       1 RES1    0.0000
     15 C11        0.7460    0.6750   10.9858 C.3       1 RES1    0.0000
     16 C12        2.5559   -0.9878   10.5278 C.3       1 RES1    0.0000
     17 C13       -0.5202   -1.6665   12.1556 C.3       1 RES1    0.0000
     18 C14        1.6764   -2.7292   12.6594 C.3       1 RES1    0.0000
     19 O2         0.3688   -1.1569   14.8333 O.2       1 RES1    0.0000
     20 H1         4.1472    2.0626   18.1312 H         1 RES1    0.0000
     21 H2         5.5450    1.1170   16.5122 H         1 RES1    0.0000
     22 H3         4.5881    0.2898   14.5409 H         1 RES1    0.0000
     23 H4         0.1887    0.2705   10.3305 H         1 RES1    0.0000
     24 H5         0.2057    1.0567   11.6676 H         1 RES1    0.0000
     25 H6         1.2716    1.3537   10.5789 H         1 RES1    0.0000
     26 H7         2.0189   -1.4346    9.8830 H         1 RES1    0.0000
     27 H8         3.0520   -0.2983   10.1015 H         1 RES1    0.0000
     28 H9         3.1544   -1.6085   10.9259 H         1 RES1    0.0000
     29 H10       -0.5789   -2.0916   11.3082 H         1 RES1    0.0000
     30 H11       -0.9059   -2.2256   12.8180 H         1 RES1    0.0000
     31 H12       -0.9872   -0.8393   12.1274 H         1 RES1    0.0000
     32 H13        1.6499   -3.2110   11.8402 H         1 RES1    0.0000
     33 H14        2.5796   -2.5565   12.8955 H         1 RES1    0.0000
     34 H15        1.2618   -3.2424   13.3412 H         1 RES1    0.0000
     35 H16        0.3362    3.3487   19.6092 H         1 RES1    0.0000
@<TRIPOS>BOND
     1    1    2 ar
     2    2    3 ar
     3    3    4 ar
     4    4    5 ar
     5    5    6 ar
     6    6    1 ar
     7    7    2 1
     8    8    7 3
     9    9    6 1
    10   10    9 2
    11   11   10 1
    12   12   11 1
    13   13    9 1
    14   14   10 1
    15   15   11 1
    16   16   11 1
    17   17   12 1
    18   18   12 1
    19   19   13 2
    20   20    3 1
    21   21    4 1
    22   22    5 1
    23   23   15 1
    24   24   15 1
    25   25   15 1
    26   26   16 1
    27   27   16 1
    28   28   16 1
    29   29   17 1
    30   30   17 1
    31   31   17 1
    32   32   18 1
    33   33   18 1
    34   34   18 1
    35   35    8 1
    36   12   13 1
@<TRIPOS>SUBSTRUCTURE
     1 RES1 1

@<TRIPOS>CRYSIN
   6.3480   12.0760   17.6400  90.0000  92.9400  90.0000 231 1

