# MOL2 file generated by ConQuest
# Please check atom types

@<TRIPOS>MOLECULE
RAZTIV
    32    25     2
SMALL
NO_CHARGES
****
Generated from CSD

@<TRIPOS>ATOM
      1 N1         2.8292    4.2711    1.6745 N.3       1 RES1    0.0000
      2 C1         2.8519    3.4367    2.8828 C.3       1 RES1    0.0000
      3 C2         4.0982    2.5815    2.8272 C.3       1 RES1    0.0000
      4 O1         4.1134    1.7699    1.6745 O.3       1 RES1    0.0000
      5 C3        -0.0170    6.3496    1.6745 C.2       1 RES1    0.0000
      6 N2         1.8401    5.2930    1.6745 Du        2 SUP2    0.0000
      7 C4         1.3068    6.1842    1.6745 C.2       1 RES1    0.0000
      8 N3        -0.7224    5.1270    1.6745 N.2       1 RES1    0.0000
      9 O2        -0.1437    8.5782    1.6745 O.2       1 RES1    0.0000
     10 O3        -1.8307    7.7548    1.6745 O.2       1 RES1    0.0000
     11 N4         1.0042    7.3258    1.6745 Du        2 SUP2    0.0000
     12 O4        -2.1995    5.8742    1.6745 Du        2 SUP2    0.0000
     13 C5         0.4898    5.1014    1.6745 Du        2 SUP2    0.0000
     14 N5        -1.4052    6.7633    1.6745 Du        2 SUP2    0.0000
     15 C6         2.1068    6.6097    1.6745 Du        2 SUP2    0.0000
     16 N6        -0.8057    7.5410    1.6745 N.pl3     1 RES1    0.0000
     17 N7         1.5016    4.8274    1.6745 N.pl3     1 RES1    0.0000
     18 C7         0.2477    4.2552    1.6745 C.2       1 RES1    0.0000
     19 H1         2.0784    2.8693    2.9170 H         1 RES1    0.0000
     20 H2         2.8500    4.0026    3.6578 H         1 RES1    0.0000
     21 H3         4.1266    2.0065    3.5955 H         1 RES1    0.0000
     22 H4         4.8698    3.1516    2.8487 H         1 RES1    0.0000
     23 H5         1.9839    6.8650    1.6745 H         1 RES1    0.0000
     24 H6         0.0038    4.2739    1.6745 Du        2 SUP2    0.0000
     25 H7         2.9957    6.9709    1.6745 Du        2 SUP2    0.0000
     26 H8         0.0756    3.3107    1.6745 H         1 RES1    0.0000
     27 C2E        4.0982    2.5815    0.5218 C.3       1 RES1    0.0000
     28 C1E        2.8519    3.4367    0.4662 C.3       1 RES1    0.0000
     29 H1E        2.0784    2.8693    0.4320 H         1 RES1    0.0000
     30 H2E        2.8500    4.0026   -0.3088 H         1 RES1    0.0000
     31 H3E        4.1266    2.0065   -0.2465 H         1 RES1    0.0000
     32 H4E        4.8698    3.1516    0.5003 H         1 RES1    0.0000
@<TRIPOS>BOND
     1    1    2 1
     2    2    3 1
     3    3    4 1
     4    4   27 1
     5    5    7 2
     6    7   17 1
     7    8    5 1
     8    9   16 2
     9   10   16 2
    10   16    5 1
    11   17    1 1
    12   18    8 2
    13   19    2 1
    14   20    2 1
    15   21    3 1
    16   22    3 1
    17   23    7 1
    18   26   18 1
    19   27   28 1
    20   28    1 1
    21   29   28 1
    22   30   28 1
    23   31   27 1
    24   32   27 1
    25   17   18 1
@<TRIPOS>SUBSTRUCTURE
     1 RES1 1
     2 SUP2 6

@<TRIPOS>CRYSIN
  18.9120    6.9190    6.6980  90.0000  90.0000  90.0000  62 4

