# MOL2 file generated by ConQuest
# Please check atom types

@<TRIPOS>MOLECULE
RAZVUK
    38    41     1
SMALL
NO_CHARGES
****
Generated from CSD

@<TRIPOS>ATOM
      1 O1         5.6448    3.4416    4.1086 O.2       1 RES1    0.0000
      2 O2         3.1139    3.2599    5.8087 O.2       1 RES1    0.0000
      3 O3         2.3307    2.2055    4.0948 O.2       1 RES1    0.0000
      4 N1         7.3030    2.6310    6.4817 N.2       1 RES1    0.0000
      5 N2         7.6374    2.7077    7.7014 N.2       1 RES1    0.0000
      6 N3         6.6050    2.8252    8.5311 N.3       1 RES1    0.0000
      7 N4         3.0937    2.2946    5.0475 N.pl3     1 RES1    0.0000
      8 C1         6.8310    3.2388    9.9130 C.3       1 RES1    0.0000
      9 C2         6.4895    4.7090   10.0916 C.3       1 RES1    0.0000
     10 C3         5.1248    5.0171    9.4948 C.3       1 RES1    0.0000
     11 C4         5.0347    4.6631    8.0037 C.3       1 RES1    0.0000
     12 C5         5.9267    5.5324    7.1207 C.3       1 RES1    0.0000
     13 C6         5.6414    5.2592    5.6519 C.3       1 RES1    0.0000
     14 C7         5.6512    3.8003    5.2675 C.2       1 RES1    0.0000
     15 C8         5.7859    2.7453    6.3788 C.3       1 RES1    0.0000
     16 C9         5.3663    3.1749    7.8064 C.3       1 RES1    0.0000
     17 C10        5.2179    1.3870    5.9871 C.ar      1 RES1    0.0000
     18 C11        4.0045    1.1811    5.3212 C.ar      1 RES1    0.0000
     19 C12        3.5645   -0.0661    4.9087 C.ar      1 RES1    0.0000
     20 C13        4.3207   -1.1827    5.2098 C.ar      1 RES1    0.0000
     21 C14        5.4978   -1.0339    5.9183 C.ar      1 RES1    0.0000
     22 C15        5.9435    0.2330    6.2816 C.ar      1 RES1    0.0000
     23 H1         7.7725    3.0240   10.1135 H         1 RES1    0.0000
     24 H2         6.2518    2.6811   10.4747 H         1 RES1    0.0000
     25 H3         6.5013    4.9047   11.0695 H         1 RES1    0.0000
     26 H4         7.2067    5.2760    9.6900 H         1 RES1    0.0000
     27 H5         4.9079    5.9702    9.6143 H         1 RES1    0.0000
     28 H6         4.4308    4.4755    9.9834 H         1 RES1    0.0000
     29 H7         4.0883    4.7963    7.7023 H         1 RES1    0.0000
     30 H8         6.9181    5.3591    7.3372 H         1 RES1    0.0000
     31 H9         5.7808    6.4803    7.3226 H         1 RES1    0.0000
     32 H10        6.2878    5.7367    5.0521 H         1 RES1    0.0000
     33 H11        4.7231    5.5621    5.4172 H         1 RES1    0.0000
     34 H12        4.6274    2.6127    8.1657 H         1 RES1    0.0000
     35 H13        2.7409   -0.1546    4.3935 H         1 RES1    0.0000
     36 H14        4.0069   -2.0795    4.9021 H         1 RES1    0.0000
     37 H15        6.0518   -1.8049    6.1634 H         1 RES1    0.0000
     38 H16        6.8175    0.3397    6.7370 H         1 RES1    0.0000
@<TRIPOS>BOND
     1    1   14 2
     2    2    7 2
     3    3    7 2
     4    4    5 2
     5    5    6 1
     6    6    8 1
     7    7   18 1
     8    8    9 1
     9    9   10 1
    10   10   11 1
    11   11   12 1
    12   12   13 1
    13   13   14 1
    14   14   15 1
    15   15    4 1
    16   16    6 1
    17   17   15 1
    18   18   17 ar
    19   19   18 ar
    20   20   19 ar
    21   21   20 ar
    22   22   17 ar
    23   23    8 1
    24   24    8 1
    25   25    9 1
    26   26    9 1
    27   27   10 1
    28   28   10 1
    29   29   11 1
    30   30   12 1
    31   31   12 1
    32   32   13 1
    33   33   13 1
    34   34   16 1
    35   35   19 1
    36   36   20 1
    37   37   21 1
    38   38   22 1
    39   11   16 1
    40   15   16 1
    41   21   22 ar
@<TRIPOS>SUBSTRUCTURE
     1 RES1 1

@<TRIPOS>CRYSIN
   9.9614   10.5183   13.8393  90.0000 106.3808  90.0000  14 1

