# MOL2 file generated by ConQuest
# Please check atom types

@<TRIPOS>MOLECULE
RAZZEX
    53    55     1
SMALL
NO_CHARGES
****
Generated from CSD

@<TRIPOS>ATOM
      1 O1         4.5005   -6.6038   -3.2476 O.2       1 RES1    0.0000
      2 O2         3.9691   -6.4085   -5.2999 O.2       1 RES1    0.0000
      3 O3         2.3638   -0.3410   -1.8821 O.3       1 RES1    0.0000
      4 O4         0.8906    1.3295   -1.9916 O.2       1 RES1    0.0000
      5 O5         3.4477    1.2689    0.0783 O.3       1 RES1    0.0000
      6 O6         0.0684    1.8103    0.9997 O.2       1 RES1    0.0000
      7 O7         1.8584    3.1289    0.8217 O.3       1 RES1    0.0000
      8 N1         4.0592   -5.9706   -4.1769 N.pl3     1 RES1    0.0000
      9 N2         3.6189    0.4000    2.2068 N.2       1 RES1    0.0000
     10 C1         3.5726   -4.6184   -3.9226 C.ar      1 RES1    0.0000
     11 C2         3.1394   -4.3060   -2.6529 C.ar      1 RES1    0.0000
     12 C3         2.6248   -3.0523   -2.4318 C.ar      1 RES1    0.0000
     13 C4         2.5861   -2.1151   -3.4492 C.ar      1 RES1    0.0000
     14 C5         3.0502   -2.4595   -4.7052 C.ar      1 RES1    0.0000
     15 C6         3.5422   -3.7216   -4.9575 C.ar      1 RES1    0.0000
     16 C7         2.0134   -0.7536   -3.2203 C.3       1 RES1    0.0000
     17 C8         1.6882    0.6871   -1.3949 C.2       1 RES1    0.0000
     18 C9         2.0691    0.9094    0.0646 C.3       1 RES1    0.0000
     19 C10        1.2048    1.9955    0.6867 C.2       1 RES1    0.0000
     20 C11        1.2302    4.2201    1.5671 C.3       1 RES1    0.0000
     21 C12        2.2745    5.2878    1.7295 C.3       1 RES1    0.0000
     22 C13        3.2914    5.0587    2.8309 C.3       1 RES1    0.0000
     23 C14        3.9802    3.6955    2.8485 C.3       1 RES1    0.0000
     24 C15        4.9000    3.4143    1.6747 C.3       1 RES1    0.0000
     25 C16        5.3155    1.9366    1.4986 C.3       1 RES1    0.0000
     26 C17        4.0654    1.1207    1.2775 C.2       1 RES1    0.0000
     27 C18        4.5798    0.5052    3.3220 C.3       1 RES1    0.0000
     28 C19        5.8038    1.2681    2.7938 C.3       1 RES1    0.0000
     29 C20        6.3084    1.8255    0.3541 C.3       1 RES1    0.0000
     30 H1         3.1920   -4.9274   -1.9623 H         1 RES1    0.0000
     31 H2         2.3009   -2.8300   -1.5906 H         1 RES1    0.0000
     32 H3         3.0293   -1.8305   -5.3899 H         1 RES1    0.0000
     33 H4         3.8451   -3.9574   -5.8047 H         1 RES1    0.0000
     34 H5         2.3746   -0.1271   -3.8678 H         1 RES1    0.0000
     35 H6         1.0488   -0.7763   -3.3200 H         1 RES1    0.0000
     36 H7         1.9474    0.0741    0.5615 H         1 RES1    0.0000
     37 H8         0.9292    3.9086    2.4338 H         1 RES1    0.0000
     38 H9         0.4663    4.5662    1.0799 H         1 RES1    0.0000
     39 H10        1.8265    6.1306    1.8977 H         1 RES1    0.0000
     40 H11        2.7521    5.3770    0.8882 H         1 RES1    0.0000
     41 H12        2.8464    5.1850    3.6839 H         1 RES1    0.0000
     42 H13        3.9758    5.7424    2.7585 H         1 RES1    0.0000
     43 H14        4.4950    3.6231    3.6683 H         1 RES1    0.0000
     44 H15        3.2965    3.0076    2.8740 H         1 RES1    0.0000
     45 H16        5.7033    3.9490    1.7803 H         1 RES1    0.0000
     46 H17        4.4593    3.7082    0.8628 H         1 RES1    0.0000
     47 H18        4.8402   -0.3781    3.6252 H         1 RES1    0.0000
     48 H19        4.1809    0.9826    4.0654 H         1 RES1    0.0000
     49 H20        6.5379    0.6601    2.6118 H         1 RES1    0.0000
     50 H21        6.0984    1.9332    3.4355 H         1 RES1    0.0000
     51 H22        7.0798    2.3618    0.5478 H         1 RES1    0.0000
     52 H23        5.8976    2.1345   -0.4578 H         1 RES1    0.0000
     53 H24        6.5740    0.9085    0.2485 H         1 RES1    0.0000
@<TRIPOS>BOND
     1    1    8 2
     2    2    8 2
     3    3   16 1
     4    4   17 2
     5    5   18 1
     6    6   19 2
     7    7   19 1
     8    8   10 1
     9    9   26 2
    10   10   11 ar
    11   11   12 ar
    12   12   13 ar
    13   13   14 ar
    14   14   15 ar
    15   15   10 ar
    16   16   13 1
    17   17    3 1
    18   18   17 1
    19   19   18 1
    20   20    7 1
    21   21   20 1
    22   22   21 1
    23   23   22 1
    24   24   23 1
    25   25   24 1
    26   26    5 1
    27   27    9 1
    28   28   25 1
    29   29   25 1
    30   30   11 1
    31   31   12 1
    32   32   14 1
    33   33   15 1
    34   34   16 1
    35   35   16 1
    36   36   18 1
    37   37   20 1
    38   38   20 1
    39   39   21 1
    40   40   21 1
    41   41   22 1
    42   42   22 1
    43   43   23 1
    44   44   23 1
    45   45   24 1
    46   46   24 1
    47   47   27 1
    48   48   27 1
    49   49   28 1
    50   50   28 1
    51   51   29 1
    52   52   29 1
    53   53   29 1
    54   25   26 1
    55   27   28 1
@<TRIPOS>SUBSTRUCTURE
     1 RES1 1

@<TRIPOS>CRYSIN
  11.9160    8.4200   20.2590  90.0000 105.0500  90.0000  14 1

