# MOL2 file generated by ConQuest
# Please check atom types

@<TRIPOS>MOLECULE
REBDOS
    29    30     1
SMALL
NO_CHARGES
****
Generated from CSD

@<TRIPOS>ATOM
      1 O1        -0.3354    5.0926    7.9841 O.3       1 RES1    0.0000
      2 O2         0.4898    7.0081    7.3148 O.2       1 RES1    0.0000
      3 O3         0.8319   -0.8522    9.1061 O.3       1 RES1    0.0000
      4 N1         0.9812    3.0010    6.9649 N.2       1 RES1    0.0000
      5 N2         0.6899    1.7966    6.7719 N.2       1 RES1    0.0000
      6 N3         1.0665    0.2266   10.0054 N.2       1 RES1    0.0000
      7 C1         0.9333    3.7852    5.7692 C.ar      1 RES1    0.0000
      8 C2         1.2783    3.2368    4.5331 C.ar      1 RES1    0.0000
      9 C3         1.3614    4.0269    3.4152 C.ar      1 RES1    0.0000
     10 C4         1.1062    5.3781    3.5120 C.ar      1 RES1    0.0000
     11 C5         0.7789    5.9323    4.7180 C.ar      1 RES1    0.0000
     12 C6         0.6848    5.1503    5.8623 C.ar      1 RES1    0.0000
     13 C7         0.2971    5.8532    7.1221 C.2       1 RES1    0.0000
     14 C8         1.2746    2.6106    9.9605 C.3       1 RES1    0.0000
     15 C9         1.0613    1.3117    9.2871 C.2       1 RES1    0.0000
     16 C10        0.8083    1.0073    7.9252 C.2       1 RES1    0.0000
     17 C11        0.6678   -0.3311    7.8693 C.2       1 RES1    0.0000
     18 C12        0.4119   -1.2931    6.7827 C.3       1 RES1    0.0000
     19 H1        -0.5207    5.5314    8.6518 H         1 RES1    0.0000
     20 H2         1.4533    2.3260    4.4677 H         1 RES1    0.0000
     21 H3         1.5887    3.6516    2.5958 H         1 RES1    0.0000
     22 H4         1.1569    5.9137    2.7540 H         1 RES1    0.0000
     23 H5         0.6163    6.8466    4.7731 H         1 RES1    0.0000
     24 H6         1.2415    2.4863   10.9123 H         1 RES1    0.0000
     25 H7         0.5877    3.2264    9.6934 H         1 RES1    0.0000
     26 H8         2.1330    2.9626    9.7139 H         1 RES1    0.0000
     27 H9         1.0716   -1.9902    6.8099 H         1 RES1    0.0000
     28 H10        0.4604   -0.8412    5.9374 H         1 RES1    0.0000
     29 H11       -0.4619   -1.6753    6.8917 H         1 RES1    0.0000
@<TRIPOS>BOND
     1    1   13 1
     2    2   13 2
     3    3    6 1
     4    4    5 2
     5    5   16 1
     6    6   15 2
     7    7    4 1
     8    8    7 ar
     9    9    8 ar
    10   10    9 ar
    11   11   10 ar
    12   12    7 ar
    13   13   12 1
    14   14   15 1
    15   15   16 1
    16   16   17 2
    17   17    3 1
    18   18   17 1
    19   19    1 1
    20   20    8 1
    21   21    9 1
    22   22   10 1
    23   23   11 1
    24   24   14 1
    25   25   14 1
    26   26   14 1
    27   27   18 1
    28   28   18 1
    29   29   18 1
    30   11   12 ar
@<TRIPOS>SUBSTRUCTURE
     1 RES1 1

@<TRIPOS>CRYSIN
   7.3550   11.6182   13.6335  90.0000  90.0000  90.0000  19 1

