# MOL2 file generated by ConQuest
# Please check atom types

@<TRIPOS>MOLECULE
REBHOW
    30    32     1
SMALL
NO_CHARGES
****
Generated from CSD

@<TRIPOS>ATOM
      1 O1        -0.6705   16.0614    6.0546 O.2       1 RES1    0.0000
      2 O2         0.1123   16.0927    8.0674 O.2       1 RES1    0.0000
      3 N1        -0.1328   13.0892    7.1955 N.2       1 RES1    0.0000
      4 N2        -0.7238   12.3062    9.1847 N.pl3     1 RES1    0.0000
      5 H1        -1.1842   12.1981    9.9032 H         1 RES1    0.0000
      6 N3        -0.7687   15.8863    7.2593 N.pl3     1 RES1    0.0000
      7 C1         0.7810   12.1189    7.5946 C.ar      1 RES1    0.0000
      8 C2         1.8982   11.6182    6.9456 C.ar      1 RES1    0.0000
      9 H2         2.1421   11.9242    6.1026 H         1 RES1    0.0000
     10 C3         2.6337   10.6532    7.5918 C.ar      1 RES1    0.0000
     11 H3         3.3858   10.2995    7.1754 H         1 RES1    0.0000
     12 C4         2.2787   10.1959    8.8520 C.ar      1 RES1    0.0000
     13 H4         2.8057    9.5500    9.2646 H         1 RES1    0.0000
     14 C5         1.1752   10.6675    9.5019 C.ar      1 RES1    0.0000
     15 H5         0.9389   10.3564   10.3459 H         1 RES1    0.0000
     16 C6         0.4238   11.6311    8.8492 C.ar      1 RES1    0.0000
     17 C7        -0.9995   13.1712    8.1833 C.2       1 RES1    0.0000
     18 C8        -2.1382   14.0973    8.2426 C.ar      1 RES1    0.0000
     19 C9        -3.3619   13.7034    8.7701 C.ar      1 RES1    0.0000
     20 H6        -3.4720   12.8408    9.0979 H         1 RES1    0.0000
     21 C10       -4.4206   14.6050    8.8068 C.ar      1 RES1    0.0000
     22 H7        -5.2376   14.3328    9.1581 H         1 RES1    0.0000
     23 C11       -4.2839   15.8817    8.3368 C.ar      1 RES1    0.0000
     24 H8        -5.0095   16.4606    8.3745 H         1 RES1    0.0000
     25 C12       -3.0926   16.3245    7.8084 C.ar      1 RES1    0.0000
     26 C13       -2.0564   15.4020    7.7717 C.ar      1 RES1    0.0000
     27 C14       -2.9534   17.7412    7.3403 C.3       1 RES1    0.0000
     28 H9        -2.0659   17.8803    7.0031 H         1 RES1    0.0000
     29 H10       -3.1135   18.3385    8.0750 H         1 RES1    0.0000
     30 H11       -3.5920   17.9130    6.6442 H         1 RES1    0.0000
@<TRIPOS>BOND
     1    1    6 2
     2    2    6 2
     3    3    7 1
     4    4    5 1
     5    6   26 1
     6    7    8 ar
     7    8    9 1
     8   10    8 ar
     9   11   10 1
    10   12   10 ar
    11   13   12 1
    12   14   12 ar
    13   15   14 1
    14   16    4 1
    15   17    3 2
    16   18   17 1
    17   19   18 ar
    18   20   19 1
    19   21   19 ar
    20   22   21 1
    21   23   21 ar
    22   24   23 1
    23   25   23 ar
    24   26   18 ar
    25   27   25 1
    26   28   27 1
    27   29   27 1
    28   30   27 1
    29    4   17 1
    30    7   16 ar
    31   14   16 ar
    32   25   26 ar
@<TRIPOS>SUBSTRUCTURE
     1 RES1 1

@<TRIPOS>CRYSIN
   7.7550   17.2290    9.7792  90.0000 105.5980  90.0000  14 1

