# MOL2 file generated by ConQuest
# Please check atom types

@<TRIPOS>MOLECULE
REBHEN
    51    55     1
SMALL
NO_CHARGES
****
Generated from CSD

@<TRIPOS>ATOM
      1 O1        16.5568    0.7267   12.2947 O.2       1 RES1    0.0000
      2 N1        13.7825    2.0677    8.6062 N.pl3     1 RES1    0.0000
      3 O2        17.0977    2.8190   12.2617 O.2       1 RES1    0.0000
      4 N2        14.0879    0.7479    8.7717 N.2       1 RES1    0.0000
      5 O3        12.5812    6.2337   11.2382 O.2       1 RES1    0.0000
      6 C1        14.4786    0.6484   10.0358 C.2       1 RES1    0.0000
      7 H1        14.7417   -0.1634   10.4532 H         1 RES1    0.0000
      8 O4        14.2107    6.5962   12.6114 O.2       1 RES1    0.0000
      9 C2        14.4516    1.9009   10.6762 C.2       1 RES1    0.0000
     10 C3        14.7770    2.2694   12.0831 C.3       1 RES1    0.0000
     11 C4        13.9592    1.4959   13.1352 C.3       1 RES1    0.0000
     12 H2        13.1412    1.1079   12.7358 H         1 RES1    0.0000
     13 H3        14.4969    0.7709   13.5423 H         1 RES1    0.0000
     14 N3        13.6265    2.5212   14.1236 N.3       1 RES1    0.0000
     15 C5        13.2958    3.6759   13.3165 C.3       1 RES1    0.0000
     16 H4        13.1977    4.4902   13.8716 H         1 RES1    0.0000
     17 H5        12.4665    3.5304   12.7972 H         1 RES1    0.0000
     18 C6        14.5211    3.7601   12.4071 C.3       1 RES1    0.0000
     19 H6        15.2846    4.0699   12.9730 H         1 RES1    0.0000
     20 C7        14.4387    4.7089   11.2147 C.3       1 RES1    0.0000
     21 C8        15.7748    5.2552   10.7498 C.3       1 RES1    0.0000
     22 H7        16.1884    5.8363   11.4355 H         1 RES1    0.0000
     23 H8        16.4034    4.5276   10.5146 H         1 RES1    0.0000
     24 N4        15.3777    6.0116    9.5834 N.3       1 RES1    0.0000
     25 C9        14.5281    5.1097    8.8174 C.3       1 RES1    0.0000
     26 H9        15.0712    4.5344    8.2236 H         1 RES1    0.0000
     27 H10       13.8818    5.6185    8.2683 H         1 RES1    0.0000
     28 C10       13.7908    4.2562    9.8918 C.3       1 RES1    0.0000
     29 H11       12.8133    4.4698    9.8923 H         1 RES1    0.0000
     30 C11       13.9975    2.7910    9.7416 C.2       1 RES1    0.0000
     31 N5        16.2705    1.9137   12.2581 N.pl3     1 RES1    0.0000
     32 C12       12.5638    2.1170   15.0363 C.3       1 RES1    0.0000
     33 H12       12.4163    2.8233   15.6994 H         1 RES1    0.0000
     34 H13       12.8227    1.2891   15.4929 H         1 RES1    0.0000
     35 H14       11.7384    1.9673   14.5301 H         1 RES1    0.0000
     36 N6        13.6700    5.9572   11.7209 N.pl3     1 RES1    0.0000
     37 C13       16.4941    6.5460    8.8280 C.3       1 RES1    0.0000
     38 H15       17.0404    7.1144    9.4096 H         1 RES1    0.0000
     39 H16       16.1555    7.0761    8.0757 H         1 RES1    0.0000
     40 H17       17.0404    5.8074    8.4859 H         1 RES1    0.0000
     41 C14       13.3251    2.4957    7.3262 C.ar      1 RES1    0.0000
     42 C15       12.2041    3.2777    7.2070 C.ar      1 RES1    0.0000
     43 H18       11.7275    3.5576    7.9808 H         1 RES1    0.0000
     44 C16       11.7777    3.6521    5.9438 C.ar      1 RES1    0.0000
     45 H19       11.0151    4.2103    5.8517 H         1 RES1    0.0000
     46 C17       12.4461    3.2224    4.8273 C.ar      1 RES1    0.0000
     47 H20       12.1433    3.4802    3.9653 H         1 RES1    0.0000
     48 C18       13.5445    2.4276    4.9509 C.ar      1 RES1    0.0000
     49 H21       13.9948    2.1213    4.1746 H         1 RES1    0.0000
     50 C19       14.0066    2.0651    6.2019 C.ar      1 RES1    0.0000
     51 H22       14.7841    1.5248    6.2898 H         1 RES1    0.0000
@<TRIPOS>BOND
     1    1   31 2
     2    2    4 1
     3    3   31 2
     4    4    6 2
     5    5   36 2
     6    6    7 1
     7    8   36 2
     8    9    6 1
     9   10    9 1
    10   11   10 1
    11   12   11 1
    12   13   11 1
    13   14   11 1
    14   15   14 1
    15   16   15 1
    16   17   15 1
    17   18   10 1
    18   19   18 1
    19   20   18 1
    20   21   20 1
    21   22   21 1
    22   23   21 1
    23   24   21 1
    24   25   24 1
    25   26   25 1
    26   27   25 1
    27   28   20 1
    28   29   28 1
    29   30    2 1
    30   31   10 1
    31   32   14 1
    32   33   32 1
    33   34   32 1
    34   35   32 1
    35   36   20 1
    36   37   24 1
    37   38   37 1
    38   39   37 1
    39   40   37 1
    40   41    2 1
    41   42   41 ar
    42   43   42 1
    43   44   42 ar
    44   45   44 1
    45   46   44 ar
    46   47   46 1
    47   48   46 ar
    48   49   48 1
    49   50   41 ar
    50   51   50 1
    51    9   30 2
    52   15   18 1
    53   25   28 1
    54   28   30 1
    55   48   50 ar
@<TRIPOS>SUBSTRUCTURE
     1 RES1 1

@<TRIPOS>CRYSIN
  15.6910    8.5090   27.9050  90.0000  90.0000  90.0000  60 1

