# MOL2 file generated by ConQuest
# Please check atom types

@<TRIPOS>MOLECULE
REBNUK
    23    23     1
SMALL
NO_CHARGES
****
Generated from CSD

@<TRIPOS>ATOM
      1 C1         3.5466    2.9772    7.1248 C.2       1 RES1    0.0000
      2 C2         5.1469    2.2380    6.0264 C.2       1 RES1    0.0000
      3 C3         1.8341    3.6189    8.7239 C.3       1 RES1    0.0000
      4 H1         1.7805    4.5531    9.0465 H         1 RES1    0.0000
      5 H2         2.4537    3.1276    9.3205 H         1 RES1    0.0000
      6 C4         0.4481    2.9809    8.8095 C.3       1 RES1    0.0000
      7 N1         4.1547    2.2241    8.0186 N.2       1 RES1    0.0000
      8 N2         4.1149    3.0468    5.8853 N.2       1 RES1    0.0000
      9 N3         2.3657    3.6114    7.3884 N.3       1 RES1    0.0000
     10 H3         2.1943    4.3274    6.9028 H         1 RES1    0.0000
     11 N4        -0.6697    3.8845    8.2950 N.pl3     1 RES1    0.0000
     12 N5         0.3560    1.6957    8.0140 N.pl3     1 RES1    0.0000
     13 N6         0.0935    2.6327   10.2409 N.pl3     1 RES1    0.0000
     14 N7         6.0466    1.8990    5.1153 N.3       1 RES1    0.0000
     15 H4         6.6276    1.3372    5.3188 H         1 RES1    0.0000
     16 H5         5.9451    2.0987    4.3013 H         1 RES1    0.0000
     17 O1         5.2778    1.7133    7.2572 O.3       1 RES1    0.0000
     18 O2        -0.3779    4.6032    7.3688 O.2       1 RES1    0.0000
     19 O3        -1.7491    3.8037    8.8685 O.2       1 RES1    0.0000
     20 O4        -0.5595    1.5703    7.2132 O.2       1 RES1    0.0000
     21 O5         1.2268    0.8831    8.2529 O.2       1 RES1    0.0000
     22 O6        -0.4502    1.5740   10.4675 O.2       1 RES1    0.0000
     23 O7         0.4105    3.4944   11.0538 O.2       1 RES1    0.0000
@<TRIPOS>BOND
     1    1    7 2
     2    2    8 2
     3    3    4 1
     4    5    3 1
     5    6    3 1
     6    7   17 1
     7    8    1 1
     8    9    1 1
     9   10    9 1
    10   11    6 1
    11   12    6 1
    12   13    6 1
    13   14    2 1
    14   15   14 1
    15   16   14 1
    16   17    2 1
    17   18   11 2
    18   19   11 2
    19   20   12 2
    20   21   12 2
    21   22   13 2
    22   23   13 2
    23    3    9 1
@<TRIPOS>SUBSTRUCTURE
     1 RES1 1

@<TRIPOS>CRYSIN
   8.8179    9.2863   11.8020  90.0000 101.5620  90.0000  14 1

