# MOL2 file generated by ConQuest
# Please check atom types

@<TRIPOS>MOLECULE
REBTEY
    33    33     2
SMALL
NO_CHARGES
****
Generated from CSD

@<TRIPOS>ATOM
      1 C1         2.7657    9.5770    7.7577 C.ar      1 RES1    0.0000
      2 C2         2.3695   10.7741    7.1456 C.ar      1 RES1    0.0000
      3 C3         2.5606   11.9562    7.8286 C.ar      1 RES1    0.0000
      4 C4         3.1440   12.0042    9.1028 C.ar      1 RES1    0.0000
      5 C5         3.5342   10.8191    9.6812 C.ar      1 RES1    0.0000
      6 C6         3.3547    9.6130    9.0145 C.ar      1 RES1    0.0000
      7 C7         2.5438    8.2823    7.1038 C.2       1 RES1    0.0000
      8 N1         1.8879    8.1833    6.0120 N.2       1 RES1    0.0000
      9 I1         2.0455   13.7976    6.7996 Du        2 SUP2    0.0000
     10 N2         2.1348   13.2223    7.2455 N.pl3     1 RES1    0.0000
     11 O1         2.2898   14.2319    7.9192 O.2       1 RES1    0.0000
     12 O2         1.6874   13.1533    6.1130 O.2       1 RES1    0.0000
     13 H1         1.9781   10.7711    6.2803 H         1 RES1    0.0000
     14 H2         3.2663   12.8308    9.5534 H         1 RES1    0.0000
     15 H3         3.9302   10.8251   10.5442 H         1 RES1    0.0000
     16 H4         3.6383    8.8029    9.4234 H         1 RES1    0.0000
     17 H5         2.8984    7.4962    7.5022 H         1 RES1    0.0000
     18 C1B        0.9053    5.4245    3.8574 C.ar      1 RES1    0.0000
     19 C2B        1.3015    4.2274    4.4695 C.ar      1 RES1    0.0000
     20 C3B        1.1104    3.0453    3.7865 C.ar      1 RES1    0.0000
     21 C4B        0.5270    2.9973    2.5124 C.ar      1 RES1    0.0000
     22 C5B        0.1368    4.1824    1.9339 C.ar      1 RES1    0.0000
     23 C6B        0.3163    5.3885    2.6006 C.ar      1 RES1    0.0000
     24 C7B        1.1272    6.7192    4.5113 C.2       1 RES1    0.0000
     25 N1B        1.7831    6.8182    5.6031 N.2       1 RES1    0.0000
     26 N2B        1.5363    1.7792    4.3696 N.pl3     1 RES1    0.0000
     27 O1B        1.3812    0.7696    3.6959 O.2       1 RES1    0.0000
     28 O2B        1.9836    1.8482    5.5021 O.2       1 RES1    0.0000
     29 H1B        1.6929    4.2304    5.3348 H         1 RES1    0.0000
     30 H2B        0.4047    2.1707    2.0617 H         1 RES1    0.0000
     31 H3B       -0.2592    4.1764    1.0709 H         1 RES1    0.0000
     32 H4B        0.0327    6.1986    2.1918 H         1 RES1    0.0000
     33 H5B        0.7726    7.5053    4.1129 H         1 RES1    0.0000
@<TRIPOS>BOND
     1    1    2 ar
     2    2    3 ar
     3    3    4 ar
     4    4    5 ar
     5    5    6 ar
     6    6    1 ar
     7    7    1 1
     8    8    7 2
     9   10    3 1
    10   11   10 2
    11   12   10 2
    12   13    2 1
    13   14    4 1
    14   15    5 1
    15   16    6 1
    16   17    7 1
    17   18   19 ar
    18   19   20 ar
    19   20   21 ar
    20   21   22 ar
    21   22   23 ar
    22   23   18 ar
    23   24   18 1
    24   25    8 1
    25   26   20 1
    26   27   26 2
    27   28   26 2
    28   29   19 1
    29   30   21 1
    30   31   22 1
    31   32   23 1
    32   33   24 1
    33   24   25 2
@<TRIPOS>SUBSTRUCTURE
     1 RES1 1
     2 SUP2 9

@<TRIPOS>CRYSIN
   3.8044   15.0015   11.6159  90.0000  90.6580  90.0000  14 1

