# MOL2 file generated by ConQuest
# Please check atom types

@<TRIPOS>MOLECULE
RECTIE
    53    57     1
SMALL
NO_CHARGES
****
Generated from CSD

@<TRIPOS>ATOM
      1 C1        10.9881    0.6212   23.7396 C.ar      1 RES1    0.0000
      2 H1        11.1144    0.1905   24.5542 H         1 RES1    0.0000
      3 C2        10.9119   -0.1058   22.5855 C.ar      1 RES1    0.0000
      4 H2        10.9735   -1.0328   22.6195 H         1 RES1    0.0000
      5 C3        10.7449    0.5228   21.3696 C.ar      1 RES1    0.0000
      6 H3        10.7125    0.0275   20.5829 H         1 RES1    0.0000
      7 C4        10.6238    1.9005   21.3397 C.ar      1 RES1    0.0000
      8 C5        10.6927    2.6603   22.4857 C.ar      1 RES1    0.0000
      9 H4        10.6186    3.5862   22.4538 H         1 RES1    0.0000
     10 C6        10.8774    1.9936   23.6937 C.ar      1 RES1    0.0000
     11 H5        10.9265    2.4825   24.4843 H         1 RES1    0.0000
     12 C7         9.7137    2.7270   18.0093 C.2       1 RES1    0.0000
     13 C8        10.6885    3.6614   18.1631 C.2       1 RES1    0.0000
     14 C9        11.1999    3.5386   19.4848 C.2       1 RES1    0.0000
     15 C10        8.8840    2.3820   16.8234 C.3       1 RES1    0.0000
     16 H6         8.3496    1.6085   17.0230 H         1 RES1    0.0000
     17 H7         9.4549    2.1926   16.0766 H         1 RES1    0.0000
     18 H8         8.3089    3.1206   16.6097 H         1 RES1    0.0000
     19 C11       11.1436    4.6053   17.0570 C.3       1 RES1    0.0000
     20 H9        11.3273    4.0423   16.2763 H         1 RES1    0.0000
     21 C12       12.4743    5.2878   17.4183 C.3       1 RES1    0.0000
     22 H10       12.3303    5.9132   18.1471 H         1 RES1    0.0000
     23 H11       13.1099    4.6190   17.7178 H         1 RES1    0.0000
     24 C13       10.0675    5.6106   16.6177 C.ar      1 RES1    0.0000
     25 C14        9.5363    6.5598   17.5321 C.ar      1 RES1    0.0000
     26 C15        9.9120    6.6190   18.9078 C.ar      1 RES1    0.0000
     27 H12       10.5362    6.0159   19.2432 H         1 RES1    0.0000
     28 C16        9.3568    7.5619   19.7424 C.ar      1 RES1    0.0000
     29 H13        9.5853    7.5735   20.6448 H         1 RES1    0.0000
     30 C17        8.4373    8.5206   19.2352 C.ar      1 RES1    0.0000
     31 H14        8.1002    9.1767   19.8023 H         1 RES1    0.0000
     32 C18        8.0532    8.4910   17.9694 C.ar      1 RES1    0.0000
     33 H15        7.4384    9.1196   17.6659 H         1 RES1    0.0000
     34 C19        8.5615    7.5175   17.0629 C.ar      1 RES1    0.0000
     35 C20        8.1482    7.4836   15.7432 C.ar      1 RES1    0.0000
     36 H16        7.5261    8.1100   15.4537 H         1 RES1    0.0000
     37 C21        8.6241    6.5545   14.8427 C.ar      1 RES1    0.0000
     38 C22        8.1586    6.5175   13.4890 C.ar      1 RES1    0.0000
     39 H17        7.5366    7.1492   13.2095 H         1 RES1    0.0000
     40 C23        8.5959    5.5947   12.6065 C.ar      1 RES1    0.0000
     41 H18        8.2713    5.5862   11.7340 H         1 RES1    0.0000
     42 C24        9.5384    4.6550   13.0178 C.ar      1 RES1    0.0000
     43 H19        9.8348    4.0148   12.4129 H         1 RES1    0.0000
     44 C25       10.0331    4.6561   14.2817 C.ar      1 RES1    0.0000
     45 H20       10.6771    4.0243   14.5093 H         1 RES1    0.0000
     46 C26        9.6041    5.5905   15.2780 C.ar      1 RES1    0.0000
     47 N1        10.4182    2.5683   20.0898 N.pl3     1 RES1    0.0000
     48 N2         9.5624    1.9894   19.1554 N.2       1 RES1    0.0000
     49 N3        13.0316    6.0148   16.2383 N.pl3     1 RES1    0.0000
     50 O1        13.3729    7.1640   16.4160 O.2       1 RES1    0.0000
     51 O2        13.1569    5.4201   15.1861 O.2       1 RES1    0.0000
     52 O3        12.1476    4.1196   20.0704 O.3       1 RES1    0.0000
     53 H21       12.5442    3.6720   20.8345 H         1 RES1    0.0000
@<TRIPOS>BOND
     1    1    2 1
     2    3    1 ar
     3    4    3 1
     4    5    3 ar
     5    6    5 1
     6    7    5 ar
     7    8    7 ar
     8    9    8 1
     9   10    1 ar
    10   11   10 1
    11   12   13 1
    12   13   14 2
    13   14   47 1
    14   15   12 1
    15   16   15 1
    16   17   15 1
    17   18   15 1
    18   19   13 1
    19   20   19 1
    20   21   19 1
    21   22   21 1
    22   23   21 1
    23   24   19 1
    24   25   24 ar
    25   26   25 ar
    26   27   26 1
    27   28   26 ar
    28   29   28 1
    29   30   28 ar
    30   31   30 1
    31   32   30 ar
    32   33   32 1
    33   34   25 ar
    34   35   34 ar
    35   36   35 1
    36   37   35 ar
    37   38   37 ar
    38   39   38 1
    39   40   38 ar
    40   41   40 1
    41   42   40 ar
    42   43   42 1
    43   44   42 ar
    44   45   44 1
    45   46   24 ar
    46   47    7 1
    47   48   12 2
    48   49   21 1
    49   50   49 2
    50   51   49 2
    51   52   14 1
    52   53   52 1
    53    8   10 ar
    54   32   34 ar
    55   37   46 ar
    56   44   46 ar
    57   47   48 1
@<TRIPOS>SUBSTRUCTURE
     1 RES1 1

@<TRIPOS>CRYSIN
  10.4370   10.5820   19.9660  90.0000  90.0000  90.0000  19 1

