# MOL2 file generated by ConQuest
# Please check atom types

@<TRIPOS>MOLECULE
RECWIF
    52    54     1
SMALL
NO_CHARGES
****
Generated from CSD

@<TRIPOS>ATOM
      1 O1         1.0786    2.5093    8.5313 O.3       1 RES1    0.0000
      2 O2        -0.6741    1.5200    9.7386 O.3       1 RES1    0.0000
      3 O3        -1.4971    4.0668   10.4498 O.3       1 RES1    0.0000
      4 O4         1.9719   -0.1183    8.0010 O.3       1 RES1    0.0000
      5 O5         2.4127   -2.2911    7.6031 O.2       1 RES1    0.0000
      6 O6         3.6683    1.7729    1.7395 O.2       1 RES1    0.0000
      7 O7         4.5624   -0.1509    1.3342 O.2       1 RES1    0.0000
      8 N1         3.9809    0.6393    2.0622 N.pl3     1 RES1    0.0000
      9 C1         0.2837    3.6332    8.0676 C.3       1 RES1    0.0000
     10 C2         0.3656    4.7706    9.0606 C.3       1 RES1    0.0000
     11 C3        -0.0852    4.3370   10.4655 C.3       1 RES1    0.0000
     12 C4         0.6890    3.0833   10.8680 C.3       1 RES1    0.0000
     13 C5         0.6766    1.9978    9.8036 C.3       1 RES1    0.0000
     14 C6         1.6286    0.8585   10.1465 C.3       1 RES1    0.0000
     15 C7         1.4326   -0.4009    9.3345 C.3       1 RES1    0.0000
     16 C8        -0.0364   -0.7480    9.2154 C.3       1 RES1    0.0000
     17 C9        -0.8718    0.4365    8.7915 C.3       1 RES1    0.0000
     18 C10        0.8164    4.0005    6.7056 C.3       1 RES1    0.0000
     19 C11        0.1183    5.4762   11.4609 C.3       1 RES1    0.0000
     20 C12       -2.3631    0.1558    8.7677 C.3       1 RES1    0.0000
     21 C13        2.4061   -1.1345    7.2628 C.2       1 RES1    0.0000
     22 C14        2.8552   -0.6509    5.9221 C.ar      1 RES1    0.0000
     23 C15        3.5128   -1.5133    5.0720 C.ar      1 RES1    0.0000
     24 C16        3.9164   -1.0999    3.8100 C.ar      1 RES1    0.0000
     25 C17        3.6062    0.1971    3.4290 C.ar      1 RES1    0.0000
     26 C18        2.9644    1.0710    4.2529 C.ar      1 RES1    0.0000
     27 C19        2.5955    0.6547    5.5150 C.ar      1 RES1    0.0000
     28 H1        -0.6220    3.3592    7.9843 H         1 RES1    0.0000
     29 H2         1.2647    5.0753    9.1059 H         1 RES1    0.0000
     30 H3        -0.1935    5.4791    8.7630 H         1 RES1    0.0000
     31 H4         0.3019    2.7324   11.6609 H         1 RES1    0.0000
     32 H5         1.5914    3.3284   11.0394 H         1 RES1    0.0000
     33 H6         1.5087    0.6393   11.0632 H         1 RES1    0.0000
     34 H7         2.5169    1.1643   10.0060 H         1 RES1    0.0000
     35 H8         1.9065   -1.1220    9.7297 H         1 RES1    0.0000
     36 H9        -0.1365   -1.4392    8.5725 H         1 RES1    0.0000
     37 H10       -0.3466   -1.0537   10.0607 H         1 RES1    0.0000
     38 H11       -0.5947    0.7211    7.9271 H         1 RES1    0.0000
     39 H12       -1.7733    3.1746   10.2560 H         1 RES1    0.0000
     40 H13        0.6187    3.3034    6.0888 H         1 RES1    0.0000
     41 H14        1.7576    4.1206    6.7556 H         1 RES1    0.0000
     42 H15        0.4086    4.8061    6.4127 H         1 RES1    0.0000
     43 H16        1.0356    5.7204   11.4800 H         1 RES1    0.0000
     44 H17       -0.4036    6.2252   11.1942 H         1 RES1    0.0000
     45 H18       -0.1522    5.1936   12.3253 H         1 RES1    0.0000
     46 H19       -2.5442   -0.5451    8.1534 H         1 RES1    0.0000
     47 H20       -2.6501   -0.1038    9.6369 H         1 RES1    0.0000
     48 H21       -2.8288    0.9393    8.5010 H         1 RES1    0.0000
     49 H22        3.6931   -2.4026    5.3530 H         1 RES1    0.0000
     50 H23        4.3879   -1.6844    3.2266 H         1 RES1    0.0000
     51 H24        2.7733    1.9555    3.9624 H         1 RES1    0.0000
     52 H25        2.1637    1.2595    6.1079 H         1 RES1    0.0000
@<TRIPOS>BOND
     1    1    9 1
     2    2   13 1
     3    3   11 1
     4    4   15 1
     5    5   21 2
     6    6    8 2
     7    7    8 2
     8    8   25 1
     9    9   10 1
    10   10   11 1
    11   11   12 1
    12   12   13 1
    13   13    1 1
    14   14   13 1
    15   15   14 1
    16   16   15 1
    17   17    2 1
    18   18    9 1
    19   19   11 1
    20   20   17 1
    21   21    4 1
    22   22   21 1
    23   23   22 ar
    24   24   23 ar
    25   25   24 ar
    26   26   25 ar
    27   27   22 ar
    28   28    9 1
    29   29   10 1
    30   30   10 1
    31   31   12 1
    32   32   12 1
    33   33   14 1
    34   34   14 1
    35   35   15 1
    36   36   16 1
    37   37   16 1
    38   38   17 1
    39   39    3 1
    40   40   18 1
    41   41   18 1
    42   42   18 1
    43   43   19 1
    44   44   19 1
    45   45   19 1
    46   46   20 1
    47   47   20 1
    48   48   20 1
    49   49   23 1
    50   50   24 1
    51   51   26 1
    52   52   27 1
    53   16   17 1
    54   26   27 ar
@<TRIPOS>SUBSTRUCTURE
     1 RES1 1

@<TRIPOS>CRYSIN
   8.2712    9.6142   23.8124  90.0000  90.0000  90.0000  19 1

