# MOL2 file generated by ConQuest
# Please check atom types

@<TRIPOS>MOLECULE
REFMIZ
    76    62     2
SMALL
NO_CHARGES
****
Generated from CSD

@<TRIPOS>ATOM
      1 O1         4.9405    3.7519    7.4267 O.2       1 RES1    0.0000
      2 O2         2.6474    2.6006   10.7598 O.2       1 RES1    0.0000
      3 O3         1.3941    1.4782    9.3065 O.3       1 RES1    0.0000
      4 O4         1.6557    3.0030    5.4070 O.2       1 RES1    0.0000
      5 O5         1.6907    3.9766    7.4114 O.3       1 RES1    0.0000
      6 O6         7.3787   -2.0376   10.5050 O.2       1 RES1    0.0000
      7 O7         6.7817   -0.3678   11.6811 O.2       1 RES1    0.0000
      8 N1         4.5257    4.2001    9.5782 N.am      1 RES1    0.0000
      9 H1         4.0438    4.0026   10.3557 H         1 RES1    0.0000
     10 N2         6.7441   -1.0153   10.6713 N.pl3     1 RES1    0.0000
     11 C1         4.2228    0.1909    7.5305 C.ar      1 RES1    0.0000
     12 C2         4.9539   -0.9839    7.4023 C.ar      1 RES1    0.0000
     13 H2         4.8810   -1.5072    6.6368 H         1 RES1    0.0000
     14 C3         5.7858   -1.3563    8.4307 C.ar      1 RES1    0.0000
     15 H3         6.2895   -2.1346    8.3591 H         1 RES1    0.0000
     16 C4         5.8756   -0.5826    9.5636 C.ar      1 RES1    0.0000
     17 C5         5.1750    0.6050    9.7160 C.ar      1 RES1    0.0000
     18 H4         5.2502    1.1219   10.4856 H         1 RES1    0.0000
     19 C6         4.3666    0.9772    8.6728 C.ar      1 RES1    0.0000
     20 C7         3.4933    2.2198    8.5317 C.3       1 RES1    0.0000
     21 C8         2.8743    2.0027    7.1677 C.2       1 RES1    0.0000
     22 C9         3.2795    0.8318    6.6195 C.2       1 RES1    0.0000
     23 C10        4.3903    3.4877    8.4778 C.2       1 RES1    0.0000
     24 C11        5.2251    5.4865    9.6078 C.3       1 RES1    0.0000
     25 H5         5.3001    5.7862    8.6989 H         1 RES1    0.0000
     26 C12        6.0533    5.6861   10.9189 C.3       1 RES1    0.0000
     27 H6         5.4611    5.6190   11.6835 H         1 RES1    0.0000
     28 H7         6.7136    4.9800   10.9893 H         1 RES1    0.0000
     29 C13        6.7579    7.0328   10.9504 C.3       1 RES1    0.0000
     30 H8         7.1631    7.1628   11.8219 H         1 RES1    0.0000
     31 H9         7.4647    7.0412   10.2865 H         1 RES1    0.0000
     32 C14        5.7953    8.1668   10.6713 C.3       1 RES1    0.0000
     33 H10        5.1400    8.2206   11.3850 H         1 RES1    0.0000
     34 H11        6.2810    9.0057   10.6446 H         1 RES1    0.0000
     35 C15        5.0980    7.9498    9.3653 C.3       1 RES1    0.0000
     36 H12        5.7461    7.9715    8.6443 H         1 RES1    0.0000
     37 H13        4.4576    8.6632    9.2172 H         1 RES1    0.0000
     38 C16        4.3729    6.6092    9.3556 C.3       1 RES1    0.0000
     39 H14        3.6739    6.6273   10.0280 H         1 RES1    0.0000
     40 H15        3.9482    6.4901    8.4914 H         1 RES1    0.0000
     41 C17        2.4684    2.1654    9.6698 C.2       1 RES1    0.0000
     42 C18        0.3675    1.2695   10.3200 C.3       1 RES1    0.0000
     43 H16        0.7862    1.1686   11.1883 H         1 RES1    0.0000
     44 H17       -0.1181    0.4525   10.1239 H         1 RES1    0.0000
     45 C19       -0.5714    2.3985   10.3581 C.3       1 RES1    0.0000
     46 H18       -1.2503    2.2288   11.0148 H         1 RES1    0.0000
     47 H19       -0.9796    2.5041    9.4964 H         1 RES1    0.0000
     48 H20       -0.0971    3.2010   10.5875 H         1 RES1    0.0000
     49 C20        2.0050    3.0224    6.5557 C.2       1 RES1    0.0000
     50 C21        0.9304    5.1393    6.9475 C.3       1 RES1    0.0000
     51 H21        1.2929    5.9354    7.3662 H         1 RES1    0.0000
     52 H22        1.0530    5.2289    5.9886 H         1 RES1    0.0000
     53 C22       -0.4104    5.0750    7.2133 C.3       1 RES1    0.0000
     54 H23       -0.8388    5.8714    6.8904 H         1 RES1    0.0000
     55 H24       -0.5451    4.9998    8.1612 H         1 RES1    0.0000
     56 H25       -0.7872    4.3090    6.7751 H         1 RES1    0.0000
     57 C23        2.8688    0.2111    5.3245 C.3       1 RES1    0.0000
     58 H26        2.2696    0.8022    4.8623 H         1 RES1    0.0000
     59 H27        2.4259   -0.6228    5.4958 H         1 RES1    0.0000
     60 H28        3.6459    0.0556    4.7834 H         1 RES1    0.0000
     61 H29        5.8377    5.4650    8.8689 Du        2 SUP2    0.0000
     62 C24        6.4322    5.3588   10.1081 Du        2 SUP2    0.0000
     63 H30        6.9562    4.7584    9.5546 Du        2 SUP2    0.0000
     64 H31        6.3812    4.9841   11.0002 Du        2 SUP2    0.0000
     65 C25        7.1014    6.7340   10.1591 Du        2 SUP2    0.0000
     66 H32        7.9845    6.6441   10.5499 Du        2 SUP2    0.0000
     67 H33        7.2079    7.0717    9.2560 Du        2 SUP2    0.0000
     68 C26        6.3283    7.6910   10.9407 Du        2 SUP2    0.0000
     69 H34        6.7690    8.5546   10.9152 Du        2 SUP2    0.0000
     70 H35        6.2968    7.3984   11.8644 Du        2 SUP2    0.0000
     71 C27        4.9006    7.8372   10.4103 Du        2 SUP2    0.0000
     72 H36        4.9175    8.2127    9.5158 Du        2 SUP2    0.0000
     73 H37        4.3955    8.4361   10.9820 Du        2 SUP2    0.0000
     74 C28        4.2337    6.4528   10.3836 Du        2 SUP2    0.0000
     75 H38        3.3782    6.4967    9.9285 Du        2 SUP2    0.0000
     76 H39        4.0863    6.1306   11.2866 Du        2 SUP2    0.0000
@<TRIPOS>BOND
     1    1   23 2
     2    2   41 2
     3    3   41 1
     4    4   49 2
     5    5   49 1
     6    6   10 2
     7    7   10 2
     8    8    9 1
     9   10   16 1
    10   11   12 ar
    11   12   13 1
    12   14   12 ar
    13   15   14 1
    14   16   14 ar
    15   17   16 ar
    16   18   17 1
    17   19   11 ar
    18   20   19 1
    19   21   20 1
    20   22   11 1
    21   23    8 1
    22   24    8 1
    23   25   24 1
    24   26   24 1
    25   27   26 1
    26   28   26 1
    27   29   26 1
    28   30   29 1
    29   31   29 1
    30   32   29 1
    31   33   32 1
    32   34   32 1
    33   35   32 1
    34   36   35 1
    35   37   35 1
    36   38   24 1
    37   39   38 1
    38   40   38 1
    39   41   20 1
    40   42    3 1
    41   43   42 1
    42   44   42 1
    43   45   42 1
    44   46   45 1
    45   47   45 1
    46   48   45 1
    47   49   21 1
    48   50    5 1
    49   51   50 1
    50   52   50 1
    51   53   50 1
    52   54   53 1
    53   55   53 1
    54   56   53 1
    55   57   22 1
    56   58   57 1
    57   59   57 1
    58   60   57 1
    59   17   19 ar
    60   20   23 1
    61   21   22 2
    62   35   38 1
@<TRIPOS>SUBSTRUCTURE
     1 RES1 1
     2 SUP2 61

@<TRIPOS>CRYSIN
   9.2002   10.8440   12.3000  82.6600  82.2600  71.7300   2 1

