# MOL2 file generated by ConQuest
# Please check atom types

@<TRIPOS>MOLECULE
REFROJ
    32    32     1
SMALL
NO_CHARGES
****
Generated from CSD

@<TRIPOS>ATOM
      1 O1         2.9539    7.1742    7.3258 O.2       1 RES1    0.0000
      2 O2         0.1204    5.2274    7.7461 O.3       1 RES1    0.0000
      3 O3         0.0914    3.1152    7.2615 O.2       1 RES1    0.0000
      4 N1         1.9564    7.3362    8.0782 N.3       1 RES1    0.0000
      5 N2         0.4383    7.0324    9.7615 N.2       1 RES1    0.0000
      6 C1         1.6026    6.4152    9.1670 C.3       1 RES1    0.0000
      7 C2         1.0108    8.4528    7.9660 C.3       1 RES1    0.0000
      8 C3         0.1233    8.0832    9.1148 C.2       1 RES1    0.0000
      9 C4         2.7442    6.2889   10.1470 C.3       1 RES1    0.0000
     10 C5         0.3004    8.4301    6.6300 C.3       1 RES1    0.0000
     11 C6         1.7448    9.7676    8.1827 C.3       1 RES1    0.0000
     12 C7        -1.0759    8.9010    9.4567 C.3       1 RES1    0.0000
     13 C8         1.2572    5.0583    8.6052 C.3       1 RES1    0.0000
     14 C9        -0.4011    4.1855    7.1559 C.2       1 RES1    0.0000
     15 C10       -1.5531    4.5222    6.3186 C.3       1 RES1    0.0000
     16 H1         2.5005    5.6880   10.8417 H         1 RES1    0.0000
     17 H2         3.5184    5.9628    9.7038 H         1 RES1    0.0000
     18 H3         2.9281    7.1435   10.5183 H         1 RES1    0.0000
     19 H4         0.9220    8.6727    5.9538 H         1 RES1    0.0000
     20 H5        -0.0310    7.5563    6.4569 H         1 RES1    0.0000
     21 H6        -0.4216    9.0479    6.6322 H         1 RES1    0.0000
     22 H7         2.2917    9.9542    7.4281 H         1 RES1    0.0000
     23 H8         1.1133   10.4678    8.2970 H         1 RES1    0.0000
     24 H9         2.2877    9.7008    8.9591 H         1 RES1    0.0000
     25 H10       -1.5106    8.5158   10.2069 H         1 RES1    0.0000
     26 H11       -0.8098    9.7887    9.6657 H         1 RES1    0.0000
     27 H12       -1.6728    8.9159    8.7173 H         1 RES1    0.0000
     28 H13        1.9851    4.7190    8.0978 H         1 RES1    0.0000
     29 H14        1.0521    4.4534    9.3075 H         1 RES1    0.0000
     30 H15       -1.8983    3.7333    5.9179 H         1 RES1    0.0000
     31 H16       -2.2257    4.9266    6.8532 H         1 RES1    0.0000
     32 H17       -1.2811    5.1285    5.6402 H         1 RES1    0.0000
@<TRIPOS>BOND
     1    1    4 1
     2    2   13 1
     3    3   14 2
     4    4    6 1
     5    5    6 1
     6    6    9 1
     7    7    4 1
     8    8    5 2
     9    9   16 1
    10   10    7 1
    11   11    7 1
    12   12    8 1
    13   13    6 1
    14   14    2 1
    15   15   14 1
    16   17    9 1
    17   18    9 1
    18   19   10 1
    19   20   10 1
    20   21   10 1
    21   22   11 1
    22   23   11 1
    23   24   11 1
    24   25   12 1
    25   26   12 1
    26   27   12 1
    27   28   13 1
    28   29   13 1
    29   30   15 1
    30   31   15 1
    31   32   15 1
    32    7    8 1
@<TRIPOS>SUBSTRUCTURE
     1 RES1 1

@<TRIPOS>CRYSIN
   6.6080    8.5470   11.3860 104.9700  95.0100 100.5500   2 1

