# MOL2 file generated by ConQuest
# Please check atom types

@<TRIPOS>MOLECULE
REFXOP
    31    32     1
SMALL
NO_CHARGES
****
Generated from CSD

@<TRIPOS>ATOM
      1 O1         3.3798    0.2423    0.6152 O.2       1 RES1    0.0000
      2 O2         6.1285    1.4883    4.1082 O.2       1 RES1    0.0000
      3 N1         4.1072    0.1871    1.6717 N.3       1 RES1    0.0000
      4 N2         5.4339    0.7580    3.3105 N.pl3     1 RES1    0.0000
      5 N3         5.7553    3.3916    1.6427 N.3       1 RES1    0.0000
      6 N4         3.5641    3.2357    1.5200 N.2       1 RES1    0.0000
      7 C1         4.7575    1.2101    2.2463 C.2       1 RES1    0.0000
      8 C2         4.1763   -1.0650    2.4935 C.3       1 RES1    0.0000
      9 C3         5.4442   -0.7472    3.3800 C.3       1 RES1    0.0000
     10 C4         4.3331   -2.2847    1.6147 C.3       1 RES1    0.0000
     11 C5         2.8992   -1.1165    3.2815 C.3       1 RES1    0.0000
     12 C6         6.7318   -1.1861    2.7465 C.3       1 RES1    0.0000
     13 C7         5.3787   -1.1801    4.8296 C.3       1 RES1    0.0000
     14 C8         4.6817    2.6001    1.8165 C.2       1 RES1    0.0000
     15 C9         5.3124    4.5861    1.1811 C.2       1 RES1    0.0000
     16 C10        3.9546    4.4698    1.1212 C.2       1 RES1    0.0000
     17 H1         6.7369    3.2728    1.7921 H         1 RES1    0.0000
     18 H2         4.3862   -3.1029    2.1513 H         1 RES1    0.0000
     19 H3         5.1492   -2.2011    1.0775 H         1 RES1    0.0000
     20 H4         3.5617   -2.3426    1.0137 H         1 RES1    0.0000
     21 H5         2.9532   -1.9332    3.8205 H         1 RES1    0.0000
     22 H6         2.1333   -1.1524    2.6723 H         1 RES1    0.0000
     23 H7         2.8146   -0.3260    3.8553 H         1 RES1    0.0000
     24 H8         6.7271   -2.1644    2.7857 H         1 RES1    0.0000
     25 H9         7.4879   -0.8260    3.2560 H         1 RES1    0.0000
     26 H10        6.7992   -0.8799    1.8171 H         1 RES1    0.0000
     27 H11        5.3759   -2.1591    4.8705 H         1 RES1    0.0000
     28 H12        4.5630   -0.8303    5.2443 H         1 RES1    0.0000
     29 H13        6.1566   -0.8327    5.3138 H         1 RES1    0.0000
     30 H14        5.9591    5.3080    1.0409 H         1 RES1    0.0000
     31 H15        3.3431    5.1866    0.8509 H         1 RES1    0.0000
@<TRIPOS>BOND
     1    1    3 1
     2    2    4 1
     3    3    7 1
     4    4    7 2
     5    5   14 1
     6    6   14 2
     7    7   14 1
     8    8    3 1
     9    9    4 1
    10   10    8 1
    11   11    8 1
    12   12    9 1
    13   13    9 1
    14   15    5 1
    15   16    6 1
    16   17    5 1
    17   18   10 1
    18   19   10 1
    19   20   10 1
    20   21   11 1
    21   22   11 1
    22   23   11 1
    23   24   12 1
    24   25   12 1
    25   26   12 1
    26   27   13 1
    27   28   13 1
    28   29   13 1
    29   30   15 1
    30   31   16 1
    31    8    9 1
    32   15   16 2
@<TRIPOS>SUBSTRUCTURE
     1 RES1 1

@<TRIPOS>CRYSIN
   9.9830   11.9930   10.8560  90.0000 117.1800  90.0000  14 2

