# MOL2 file generated by ConQuest
# Please check atom types

@<TRIPOS>MOLECULE
REFXUV02
    37    39     1
SMALL
NO_CHARGES
****
Generated from CSD

@<TRIPOS>ATOM
      1 O1         1.8216    1.9344    2.6262 O.2       1 RES1    0.0000
      2 O2         4.6282    4.1052    5.5933 O.2       1 RES1    0.0000
      3 N1         2.6431    2.7838    3.1258 N.3       1 RES1    0.0000
      4 N2         3.9750    3.8243    4.5347 N.pl3     1 RES1    0.0000
      5 N3         1.5416    1.3043    5.5256 N.2       1 RES1    0.0000
      6 N4         3.4699    1.7907    6.5901 N.pl3     1 RES1    0.0000
      7 H1         4.3204    2.0229    6.6847 H         1 RES1    0.0000
      8 C1         0.5552   -0.0395    7.4192 C.ar      1 RES1    0.0000
      9 H2        -0.2604   -0.2525    6.9798 H         1 RES1    0.0000
     10 C2         0.8103   -0.4724    8.7056 C.ar      1 RES1    0.0000
     11 H3         0.1569   -0.9978    9.1528 H         1 RES1    0.0000
     12 C3         2.0098   -0.1580    9.3741 C.ar      1 RES1    0.0000
     13 H4         2.1421   -0.4685   10.2625 H         1 RES1    0.0000
     14 C4         2.9996    0.5935    8.7651 C.ar      1 RES1    0.0000
     15 H5         3.8116    0.8061    9.2094 H         1 RES1    0.0000
     16 C5         2.7412    1.0230    7.4591 C.ar      1 RES1    0.0000
     17 C6         1.5425    0.7257    6.7835 C.ar      1 RES1    0.0000
     18 C7         2.7116    1.9227    5.4654 C.2       1 RES1    0.0000
     19 C8         3.1177    2.7980    4.3811 C.2       1 RES1    0.0000
     20 C9         3.1624    3.9260    2.2961 C.3       1 RES1    0.0000
     21 C10        1.9511    4.7203    1.8219 C.3       1 RES1    0.0000
     22 H6         1.3746    4.1432    1.2775 H         1 RES1    0.0000
     23 H7         2.2508    5.4832    1.2836 H         1 RES1    0.0000
     24 H8         1.4488    5.0452    2.5975 H         1 RES1    0.0000
     25 C11        3.8780    3.3298    1.0879 C.3       1 RES1    0.0000
     26 H9         4.5998    2.7409    1.3927 H         1 RES1    0.0000
     27 H10        4.2540    4.0520    0.5417 H         1 RES1    0.0000
     28 H11        3.2399    2.8139    0.5518 H         1 RES1    0.0000
     29 C12        4.0875    4.6821    3.3086 C.3       1 RES1    0.0000
     30 C13        3.5954    6.0732    3.7088 C.3       1 RES1    0.0000
     31 H12        2.6897    6.0065    4.0771 H         1 RES1    0.0000
     32 H13        3.5857    6.6559    2.9209 H         1 RES1    0.0000
     33 H14        4.1962    6.4506    4.3864 H         1 RES1    0.0000
     34 C14        5.5640    4.7314    2.9247 C.3       1 RES1    0.0000
     35 H15        6.0796    5.1258    3.6587 H         1 RES1    0.0000
     36 H16        5.6735    5.2779    2.1184 H         1 RES1    0.0000
     37 H17        5.8865    3.8223    2.7491 H         1 RES1    0.0000
@<TRIPOS>BOND
     1    1    3 1
     2    2    4 1
     3    3   19 1
     4    4   19 2
     5    5   17 1
     6    6    7 1
     7    8    9 1
     8   10    8 ar
     9   11   10 1
    10   12   10 ar
    11   13   12 1
    12   14   12 ar
    13   15   14 1
    14   16    6 1
    15   17    8 ar
    16   18    5 2
    17   19   18 1
    18   20    3 1
    19   21   20 1
    20   22   21 1
    21   23   21 1
    22   24   21 1
    23   25   20 1
    24   26   25 1
    25   27   25 1
    26   28   25 1
    27   29    4 1
    28   30   29 1
    29   31   30 1
    30   32   30 1
    31   33   30 1
    32   34   29 1
    33   35   34 1
    34   36   34 1
    35   37   34 1
    36    6   18 1
    37   14   16 ar
    38   16   17 ar
    39   20   29 1
@<TRIPOS>SUBSTRUCTURE
     1 RES1 1

@<TRIPOS>CRYSIN
   8.6236   15.2101   20.2137  90.0000  90.0000  90.0000  61 1

