# MOL2 file generated by ConQuest
# Please check atom types

@<TRIPOS>MOLECULE
REGMAS
    77    82     1
SMALL
NO_CHARGES
****
Generated from CSD

@<TRIPOS>ATOM
      1 C1        11.8678    6.8444   10.9885 C.3       1 RES1    0.0000
      2 H1        12.3670    7.1685   10.2231 H         1 RES1    0.0000
      3 H2        11.5560    7.6070   11.4983 H         1 RES1    0.0000
      4 C2        12.7428    5.9512   11.8505 C.3       1 RES1    0.0000
      5 H3        13.6713    6.2216   11.7946 H         1 RES1    0.0000
      6 H4        12.4614    5.9881   12.7785 H         1 RES1    0.0000
      7 C3        12.5559    4.5842   11.2984 C.3       1 RES1    0.0000
      8 H5        12.7552    3.8054   11.8573 H         1 RES1    0.0000
      9 C4        12.6808    4.4782    9.8235 C.3       1 RES1    0.0000
     10 H6        12.9360    3.6188    9.4526 H         1 RES1    0.0000
     11 H7        13.0226    5.2477    9.3409 H         1 RES1    0.0000
     12 C5        11.3111    4.5942   10.4585 C.3       1 RES1    0.0000
     13 C6        10.4115    3.3915   10.4467 C.3       1 RES1    0.0000
     14 H8        10.9546    2.5828   10.5533 H         1 RES1    0.0000
     15 O1         9.6124    3.2678    9.2765 O.3       1 RES1    0.0000
     16 C7         9.3987    3.4706   11.5880 C.3       1 RES1    0.0000
     17 H9         8.7747    2.7318   11.5135 H         1 RES1    0.0000
     18 H10        9.8621    3.3861   12.4347 H         1 RES1    0.0000
     19 C8         8.6334    4.7793   11.5626 C.3       1 RES1    0.0000
     20 H11        8.1228    4.8376   10.7261 H         1 RES1    0.0000
     21 C9         9.5961    5.9812   11.6541 C.3       1 RES1    0.0000
     22 H12       10.0768    5.8836   12.5025 H         1 RES1    0.0000
     23 C10       10.6841    5.9858   10.5296 C.3       1 RES1    0.0000
     24 C11        8.8223    7.2868   11.7523 C.3       1 RES1    0.0000
     25 H13        8.3311    7.4273   10.9276 H         1 RES1    0.0000
     26 H14        9.4490    8.0202   11.8539 H         1 RES1    0.0000
     27 C12        7.8281    7.3044   12.9394 C.3       1 RES1    0.0000
     28 H15        8.3198    7.2438   13.7725 H         1 RES1    0.0000
     29 H16        7.3409    8.1431   12.9394 H         1 RES1    0.0000
     30 C13        6.8364    6.1379   12.8462 C.3       1 RES1    0.0000
     31 C14        7.6651    4.8584   12.7480 C.3       1 RES1    0.0000
     32 H17        8.2275    4.8430   13.5507 H         1 RES1    0.0000
     33 C15        6.6525    3.7440   12.9326 C.3       1 RES1    0.0000
     34 H18        7.0769    2.9376   13.2645 H         1 RES1    0.0000
     35 H19        6.1979    3.5436   12.1011 H         1 RES1    0.0000
     36 C16        5.6792    4.3261   13.9723 C.3       1 RES1    0.0000
     37 H20        5.7768    3.8661   14.8207 H         1 RES1    0.0000
     38 H21        4.7638    4.2225   13.6692 H         1 RES1    0.0000
     39 C17        6.0254    5.8222   14.1315 C.3       1 RES1    0.0000
     40 H22        6.6557    5.8813   14.8783 H         1 RES1    0.0000
     41 C18        5.8945    6.3176   11.6625 C.3       1 RES1    0.0000
     42 H23        5.3114    5.5580   11.5999 H         1 RES1    0.0000
     43 H24        6.4059    6.3951   10.8548 H         1 RES1    0.0000
     44 H25        5.3709    7.1132   11.7878 H         1 RES1    0.0000
     45 C19       10.1398    6.4581    9.1918 C.3       1 RES1    0.0000
     46 H26       10.8104    6.3452    8.5145 H         1 RES1    0.0000
     47 H27        9.8996    7.3859    9.2545 H         1 RES1    0.0000
     48 H28        9.3631    5.9420    8.9632 H         1 RES1    0.0000
     49 C20        4.8113    6.6716   14.5227 C.3       1 RES1    0.0000
     50 H29        4.1548    6.5887   13.7996 H         1 RES1    0.0000
     51 C21        5.1362    8.1677   14.6700 C.3       1 RES1    0.0000
     52 H30        5.8545    8.2783   15.2983 H         1 RES1    0.0000
     53 H31        4.3598    8.6346   14.9833 H         1 RES1    0.0000
     54 H32        5.4008    8.5225   13.8182 H         1 RES1    0.0000
     55 C22        4.1611    6.1041   15.7894 C.3       1 RES1    0.0000
     56 H33        4.0150    5.1433   15.6624 H         1 RES1    0.0000
     57 O2         5.0470    6.2892   16.9080 O.3       1 RES1    0.0000
     58 H34        4.5864    6.5249   17.6064 H         1 RES1    0.0000
     59 C23       10.2577    2.8424    8.1453 C.3       1 RES1    0.0000
     60 H35       10.6427    3.5965    7.6932 H         1 RES1    0.0000
     61 H36        9.6307    2.4077    7.5628 H         1 RES1    0.0000
     62 H37       10.9515    2.2241    8.3858 H         1 RES1    0.0000
     63 O3         2.4050    6.1624   17.4249 O.3       1 RES1    0.0000
     64 N1         0.9876    6.2623   17.4709 N.2       1 RES1    0.0000
     65 C24        0.5752    6.5364   16.3126 C.2       1 RES1    0.0000
     66 C25        1.6363    6.5910   15.2559 C.3       1 RES1    0.0000
     67 H38        1.5207    7.3905   14.7005 H         1 RES1    0.0000
     68 C26        2.8433    6.7484   16.1585 C.3       1 RES1    0.0000
     69 H39        2.9983    7.7061   16.3008 H         1 RES1    0.0000
     70 C27       -0.8983    6.6409   16.0298 C.3       1 RES1    0.0000
     71 H40       -1.3907    6.4973   16.8410 H         1 RES1    0.0000
     72 H41       -1.1472    5.9773   15.3830 H         1 RES1    0.0000
     73 H42       -1.0964    7.5149   15.6861 H         1 RES1    0.0000
     74 C28        1.5747    5.3276   14.3838 C.3       1 RES1    0.0000
     75 H43        1.7928    4.5604   14.9173 H         1 RES1    0.0000
     76 H44        2.2029    5.4060   13.6624 H         1 RES1    0.0000
     77 H45        0.6896    5.2285   14.0265 H         1 RES1    0.0000
@<TRIPOS>BOND
     1    1    2 1
     2    3    1 1
     3    4    1 1
     4    5    4 1
     5    6    4 1
     6    7    4 1
     7    8    7 1
     8    9    7 1
     9   10    9 1
    10   11    9 1
    11   12    7 1
    12   13   12 1
    13   14   13 1
    14   15   13 1
    15   16   13 1
    16   17   16 1
    17   18   16 1
    18   19   16 1
    19   20   19 1
    20   21   19 1
    21   22   21 1
    22   23    1 1
    23   24   21 1
    24   25   24 1
    25   26   24 1
    26   27   24 1
    27   28   27 1
    28   29   27 1
    29   30   27 1
    30   31   19 1
    31   32   31 1
    32   33   31 1
    33   34   33 1
    34   35   33 1
    35   36   33 1
    36   37   36 1
    37   38   36 1
    38   39   30 1
    39   40   39 1
    40   41   30 1
    41   42   41 1
    42   43   41 1
    43   44   41 1
    44   45   23 1
    45   46   45 1
    46   47   45 1
    47   48   45 1
    48   49   39 1
    49   50   49 1
    50   51   49 1
    51   52   51 1
    52   53   51 1
    53   54   51 1
    54   55   49 1
    55   56   55 1
    56   57   55 1
    57   58   57 1
    58   59   15 1
    59   60   59 1
    60   61   59 1
    61   62   59 1
    62   63   64 1
    63   64   65 2
    64   65   66 1
    65   66   67 1
    66   68   55 1
    67   69   68 1
    68   70   65 1
    69   71   70 1
    70   72   70 1
    71   73   70 1
    72   74   66 1
    73   75   74 1
    74   76   74 1
    75   77   74 1
    76    9   12 1
    77   12   23 1
    78   21   23 1
    79   30   31 1
    80   36   39 1
    81   63   68 1
    82   66   68 1
@<TRIPOS>SUBSTRUCTURE
     1 RES1 1

@<TRIPOS>CRYSIN
  19.6490    7.6800   17.2540  90.0000 101.0500  90.0000   5 1

