# MOL2 file generated by ConQuest
# Please check atom types

@<TRIPOS>MOLECULE
REHLUL
    70    73     1
SMALL
NO_CHARGES
****
Generated from CSD

@<TRIPOS>ATOM
      1 C1         2.7729   14.6067    7.1817 C.3       1 RES1    0.0000
      2 H1         1.8477   15.0009    7.5739 H         1 RES1    0.0000
      3 H2         2.5694   14.0332    6.2884 H         1 RES1    0.0000
      4 H3         3.4401   15.4208    6.9424 H         1 RES1    0.0000
      5 C2         3.4029   13.7268    8.2141 C.3       1 RES1    0.0000
      6 H4         3.5606   14.2256    9.0311 H         1 RES1    0.0000
      7 H5         2.8241   12.9758    8.4171 H         1 RES1    0.0000
      8 C3         5.3869   12.3981    8.3996 C.ar      1 RES1    0.0000
      9 C4         5.0426   11.9259    9.6475 C.ar      1 RES1    0.0000
     10 H6         4.2559   12.2120   10.0522 H         1 RES1    0.0000
     11 C5         5.8633   11.0283   10.2965 C.ar      1 RES1    0.0000
     12 H7         5.6254   10.7159   11.1397 H         1 RES1    0.0000
     13 C6         7.0313   10.5870    9.7101 C.ar      1 RES1    0.0000
     14 C7         7.3781   11.0766    8.4510 C.ar      1 RES1    0.0000
     15 H8         8.1657   10.7936    8.0450 H         1 RES1    0.0000
     16 C8         6.5610   11.9743    7.8057 C.ar      1 RES1    0.0000
     17 H9         6.7995   12.2988    6.9675 H         1 RES1    0.0000
     18 C9         7.9216    9.6142   10.3541 C.2       1 RES1    0.0000
     19 C10        8.3756    8.4295   12.3150 C.ar      1 RES1    0.0000
     20 C11        8.3194    7.0442   12.2072 C.ar      1 RES1    0.0000
     21 C12        9.2444    6.2987   12.9377 C.ar      1 RES1    0.0000
     22 H10        9.2342    5.3705   12.8900 H         1 RES1    0.0000
     23 C13       10.1695    6.9315   13.7283 C.ar      1 RES1    0.0000
     24 C14       10.1731    8.2982   13.8836 C.ar      1 RES1    0.0000
     25 H11       10.7720    8.7087   14.4650 H         1 RES1    0.0000
     26 C15        9.2701    9.0457   13.1594 C.ar      1 RES1    0.0000
     27 H12        9.2663    9.9719   13.2409 H         1 RES1    0.0000
     28 C16       12.3049    5.9838   13.8385 C.2       1 RES1    0.0000
     29 C17       13.2271    5.1891   14.6629 C.ar      1 RES1    0.0000
     30 C18       12.9929    4.9178   15.9985 C.ar      1 RES1    0.0000
     31 H13       12.2248    5.2472   16.4070 H         1 RES1    0.0000
     32 C19       13.8788    4.1661   16.7277 C.ar      1 RES1    0.0000
     33 H14       13.7212    4.0108   17.6311 H         1 RES1    0.0000
     34 C20       15.0003    3.6430   16.1263 C.ar      1 RES1    0.0000
     35 C21       15.2608    3.9093   14.7970 C.ar      1 RES1    0.0000
     36 H15       16.0244    3.5706   14.3885 H         1 RES1    0.0000
     37 C22       14.3693    4.6857   14.0828 C.ar      1 RES1    0.0000
     38 H16       14.5450    4.8722   13.1895 H         1 RES1    0.0000
     39 C23       16.8791    2.1688   16.3606 C.3       1 RES1    0.0000
     40 H17       17.5452    2.7925   16.0336 H         1 RES1    0.0000
     41 H18       16.5782    1.6198   15.6202 H         1 RES1    0.0000
     42 C24       17.4552    1.3071   17.4494 C.3       1 RES1    0.0000
     43 H19       18.2556    0.7264   17.0147 H         1 RES1    0.0000
     44 H20       16.7023    0.6428   17.8466 H         1 RES1    0.0000
     45 H21       17.8492    1.9220   18.2463 H         1 RES1    0.0000
     46 C25        7.3397    6.2754   11.3928 C.2       1 RES1    0.0000
     47 C26        5.4891    6.3095    9.9256 C.3       1 RES1    0.0000
     48 H22        4.9334    5.7752   10.5133 H         1 RES1    0.0000
     49 H23        5.9115    5.7218    9.2791 H         1 RES1    0.0000
     50 C27        4.6607    7.3514    9.2240 C.ar      1 RES1    0.0000
     51 C28        3.3797    7.6167    9.6475 C.ar      1 RES1    0.0000
     52 H24        3.0344    7.1663   10.3842 H         1 RES1    0.0000
     53 C29        2.6051    8.5466    8.9897 C.ar      1 RES1    0.0000
     54 H25        1.7362    8.7233    9.2716 H         1 RES1    0.0000
     55 C30        3.1360    9.2053    7.9122 C.ar      1 RES1    0.0000
     56 C31        4.4050    8.9670    7.4674 C.ar      1 RES1    0.0000
     57 H26        4.7443    9.4221    6.7307 H         1 RES1    0.0000
     58 C32        5.1704    8.0416    8.1352 C.ar      1 RES1    0.0000
     59 H27        6.0399    7.8750    7.8521 H         1 RES1    0.0000
     60 N1         2.2978   10.1755    7.2018 N.pl3     1 RES1    0.0000
     61 O1         4.6440   13.2657    7.6637 O.3       1 RES1    0.0000
     62 O2         8.9175    9.1522    9.8753 O.2       1 RES1    0.0000
     63 O3         7.5107    9.2775   11.6123 O.3       1 RES1    0.0000
     64 O4        11.1016    6.1646   14.4504 O.3       1 RES1    0.0000
     65 O5        12.5280    6.4191   12.7485 O.2       1 RES1    0.0000
     66 O6        15.7859    2.8674   16.9340 O.3       1 RES1    0.0000
     67 O7         7.2935    5.0802   11.3865 O.2       1 RES1    0.0000
     68 O8         6.4998    7.0236   10.6971 O.3       1 RES1    0.0000
     69 O9         2.6940   10.6397    6.1694 O.2       1 RES1    0.0000
     70 O10        1.2517   10.4911    7.6766 O.2       1 RES1    0.0000
@<TRIPOS>BOND
     1    1    2 1
     2    3    1 1
     3    4    1 1
     4    5    1 1
     5    6    5 1
     6    7    5 1
     7    8    9 ar
     8    9   10 1
     9   11    9 ar
    10   12   11 1
    11   13   11 ar
    12   14   13 ar
    13   15   14 1
    14   16    8 ar
    15   17   16 1
    16   18   13 1
    17   19   20 ar
    18   20   21 ar
    19   21   22 1
    20   23   21 ar
    21   24   23 ar
    22   25   24 1
    23   26   19 ar
    24   27   26 1
    25   28   29 1
    26   29   30 ar
    27   30   31 1
    28   32   30 ar
    29   33   32 1
    30   34   32 ar
    31   35   34 ar
    32   36   35 1
    33   37   29 ar
    34   38   37 1
    35   39   40 1
    36   41   39 1
    37   42   39 1
    38   43   42 1
    39   44   42 1
    40   45   42 1
    41   46   20 1
    42   47   48 1
    43   49   47 1
    44   50   47 1
    45   51   50 ar
    46   52   51 1
    47   53   51 ar
    48   54   53 1
    49   55   53 ar
    50   56   55 ar
    51   57   56 1
    52   58   50 ar
    53   59   58 1
    54   60   55 1
    55   61    5 1
    56   62   18 2
    57   63   18 1
    58   64   23 1
    59   65   28 2
    60   66   34 1
    61   67   46 2
    62   68   46 1
    63   69   60 2
    64   70   60 2
    65    8   61 1
    66   14   16 ar
    67   19   63 1
    68   24   26 ar
    69   28   64 1
    70   35   37 ar
    71   39   66 1
    72   47   68 1
    73   56   58 ar
@<TRIPOS>SUBSTRUCTURE
     1 RES1 1

@<TRIPOS>CRYSIN
   9.6430   12.4520   13.6600  68.3400  74.4000  69.6500   2 1

