# MOL2 file generated by ConQuest
# Please check atom types

@<TRIPOS>MOLECULE
REHLAR
    66    67     1
SMALL
NO_CHARGES
****
Generated from CSD

@<TRIPOS>ATOM
      1 C1        -0.9215   -5.5210   11.5384 C.ar      1 RES1    0.0000
      2 C2        -1.8704   -4.6101   11.1523 C.ar      1 RES1    0.0000
      3 H1        -2.6455   -4.8754   10.4487 H         1 RES1    0.0000
      4 C3        -1.8013   -3.3460   11.6920 C.ar      1 RES1    0.0000
      5 H2        -2.5249   -2.6011   11.3954 H         1 RES1    0.0000
      6 C4        -0.8332   -3.0184   12.5966 C.ar      1 RES1    0.0000
      7 C5         0.0918   -3.9696   13.0013 C.ar      1 RES1    0.0000
      8 H3         0.8379   -3.7231   13.7421 H         1 RES1    0.0000
      9 C6         0.0511   -5.2246   12.4549 C.ar      1 RES1    0.0000
     10 H4         0.7770   -5.9706   12.7424 H         1 RES1    0.0000
     11 C7        -0.0699   -0.0446   14.3784 C.ar      1 RES1    0.0000
     12 C8        -1.0417    0.8759   13.9564 C.ar      1 RES1    0.0000
     13 H5        -1.7891    0.5828   13.2340 H         1 RES1    0.0000
     14 C9        -1.0381    2.1365   14.4623 C.ar      1 RES1    0.0000
     15 H6        -1.7830    2.8463   14.1340 H         1 RES1    0.0000
     16 C10       -0.0860    2.5213   15.3960 C.ar      1 RES1    0.0000
     17 C11        0.8674    1.6208   15.8364 C.ar      1 RES1    0.0000
     18 H7         1.6027    1.9099   16.5727 H         1 RES1    0.0000
     19 C12        0.8565    0.3393   15.3080 C.ar      1 RES1    0.0000
     20 H8         1.5972   -0.3732   15.6399 H         1 RES1    0.0000
     21 C13        0.7722    4.3275   16.7481 C.3       1 RES1    0.0000
     22 H9         0.7290    3.7816   17.6789 H         1 RES1    0.0000
     23 H10        1.7667    4.2542   16.3334 H         1 RES1    0.0000
     24 C14        0.4126    5.7669   16.9757 C.3       1 RES1    0.0000
     25 H11        0.4971    6.2907   16.0351 H         1 RES1    0.0000
     26 H12       -0.6096    5.8103   17.3215 H         1 RES1    0.0000
     27 C15        1.2925    6.4723   17.9953 C.3       1 RES1    0.0000
     28 H13        2.3260    6.3749   17.6969 H         1 RES1    0.0000
     29 H14        1.1516    6.0106   18.9613 H         1 RES1    0.0000
     30 C16        0.9430    7.9394   18.0951 C.3       1 RES1    0.0000
     31 H15        1.1324    8.3952   17.1345 H         1 RES1    0.0000
     32 H16       -0.1078    8.0199   18.3308 H         1 RES1    0.0000
     33 C17        1.7263    8.7132   19.1496 C.3       1 RES1    0.0000
     34 H17        2.7749    8.7004   18.8914 H         1 RES1    0.0000
     35 H18        1.5864    8.2410   20.1108 H         1 RES1    0.0000
     36 C18        1.2536   10.1508   19.2291 C.3       1 RES1    0.0000
     37 H19        1.3922   10.6068   18.2599 H         1 RES1    0.0000
     38 H20        0.2027   10.1472   19.4783 H         1 RES1    0.0000
     39 C19        1.9873   10.9989   20.2667 C.3       1 RES1    0.0000
     40 H21        3.0444   10.9382   20.0536 H         1 RES1    0.0000
     41 C20        1.5442   12.4429   20.1974 C.2       1 RES1    0.0000
     42 C21        1.7409   14.5892   21.1954 C.3       1 RES1    0.0000
     43 H22        0.7044   14.6515   21.4924 H         1 RES1    0.0000
     44 H23        1.8707   15.0720   20.2381 H         1 RES1    0.0000
     45 C22        2.5640   15.2262   22.1714 C.3       1 RES1    0.0000
     46 H24        2.2817   16.2651   22.2574 H         1 RES1    0.0000
     47 H25        3.5991   15.1579   21.8713 H         1 RES1    0.0000
     48 H26        2.4328   14.7374   23.1256 H         1 RES1    0.0000
     49 C23        1.6960   10.4725   21.6687 C.2       1 RES1    0.0000
     50 C24        2.5284    9.4969   23.5921 C.3       1 RES1    0.0000
     51 H27        2.6063    8.4349   23.7722 H         1 RES1    0.0000
     52 H28        2.8561   10.0358   24.4689 H         1 RES1    0.0000
     53 C25        3.8861    9.0845   24.1471 C.3       1 RES1    0.0000
     54 H29        3.9101    8.7245   25.1651 H         1 RES1    0.0000
     55 H30        4.6049    9.8821   24.0302 H         1 RES1    0.0000
     56 H31        4.1322    8.2767   23.4737 H         1 RES1    0.0000
     57 N1        -0.9720   -6.8859   10.9641 N.pl3     1 RES1    0.0000
     58 N2        -0.8850   -1.6826   13.0776 N.2       1 RES1    0.0000
     59 N3         0.0026   -1.3828   13.9149 N.2       1 RES1    0.0000
     60 O1        -0.1090   -7.6715   11.2967 O.2       1 RES1    0.0000
     61 O2        -1.8764   -7.1382   10.2012 O.2       1 RES1    0.0000
     62 O3        -0.1893    3.8021   15.8218 O.3       1 RES1    0.0000
     63 O4         0.7615   12.8725   19.4162 O.2       1 RES1    0.0000
     64 O5         2.1477   13.1817   21.1005 O.3       1 RES1    0.0000
     65 O6         0.6064   10.4286   22.1404 O.2       1 RES1    0.0000
     66 O7         2.7886   10.0325   22.2681 O.3       1 RES1    0.0000
@<TRIPOS>BOND
     1    1    2 ar
     2    2    3 1
     3    4    2 ar
     4    5    4 1
     5    6    4 ar
     6    7    6 ar
     7    8    7 1
     8    9    1 ar
     9   10    9 1
    10   11   12 ar
    11   12   13 1
    12   14   12 ar
    13   15   14 1
    14   16   14 ar
    15   17   16 ar
    16   18   17 1
    17   19   11 ar
    18   20   19 1
    19   21   22 1
    20   23   21 1
    21   24   21 1
    22   25   24 1
    23   26   24 1
    24   27   24 1
    25   28   27 1
    26   29   27 1
    27   30   27 1
    28   31   30 1
    29   32   30 1
    30   33   30 1
    31   34   33 1
    32   35   33 1
    33   36   33 1
    34   37   36 1
    35   38   36 1
    36   39   36 1
    37   40   39 1
    38   41   39 1
    39   42   43 1
    40   44   42 1
    41   45   42 1
    42   46   45 1
    43   47   45 1
    44   48   45 1
    45   49   39 1
    46   50   51 1
    47   52   50 1
    48   53   50 1
    49   54   53 1
    50   55   53 1
    51   56   53 1
    52   57    1 1
    53   58    6 1
    54   59   11 1
    55   60   57 2
    56   61   57 2
    57   62   16 1
    58   63   41 2
    59   64   41 1
    60   65   49 2
    61   66   49 1
    62    7    9 ar
    63   17   19 ar
    64   21   62 1
    65   42   64 1
    66   50   66 1
    67   58   59 2
@<TRIPOS>SUBSTRUCTURE
     1 RES1 1

@<TRIPOS>CRYSIN
   7.9950   10.6990   15.0210  95.0400  96.5400  94.7200   2 1

