# MOL2 file generated by ConQuest
# Please check atom types

@<TRIPOS>MOLECULE
REHLUL01
    70    73     1
SMALL
NO_CHARGES
****
Generated from CSD

@<TRIPOS>ATOM
      1 C1         2.3570   14.5502    7.1135 C.3       1 RES1    0.0000
      2 H1         1.4929   14.8892    7.4585 H         1 RES1    0.0000
      3 H2         2.2029   14.0401    6.2803 H         1 RES1    0.0000
      4 H3         2.9601   15.3137    6.9254 H         1 RES1    0.0000
      5 C2         2.9887   13.6546    8.1397 C.3       1 RES1    0.0000
      6 H4         3.1457   14.1525    8.9815 H         1 RES1    0.0000
      7 H5         2.3983   12.8854    8.3352 H         1 RES1    0.0000
      8 O1         4.2367   13.1998    7.5882 O.3       1 RES1    0.0000
      9 C3         4.9945   12.3343    8.3202 C.ar      1 RES1    0.0000
     10 C4         4.6399   11.8675    9.5806 C.ar      1 RES1    0.0000
     11 H6         3.8416   12.1555    9.9840 H         1 RES1    0.0000
     12 C5         5.4701   10.9720   10.2356 C.ar      1 RES1    0.0000
     13 H7         5.2346   10.6595   11.0912 H         1 RES1    0.0000
     14 C6         6.6444   10.5314    9.6437 C.ar      1 RES1    0.0000
     15 C7         6.9936   11.0232    8.3850 C.ar      1 RES1    0.0000
     16 H8         7.7953   10.7421    7.9815 H         1 RES1    0.0000
     17 C8         6.1768   11.9152    7.7262 C.ar      1 RES1    0.0000
     18 H9         6.4178   12.2378    6.8769 H         1 RES1    0.0000
     19 C9         7.5389    9.5613   10.2943 C.2       1 RES1    0.0000
     20 O2         8.5288    9.0794    9.8009 O.2       1 RES1    0.0000
     21 O3         7.1470    9.2541   11.5664 O.3       1 RES1    0.0000
     22 C10        8.0207    8.4112   12.2659 C.ar      1 RES1    0.0000
     23 C11        7.9835    7.0203   12.1477 C.ar      1 RES1    0.0000
     24 C12        8.9151    6.2699   12.8815 C.ar      1 RES1    0.0000
     25 H10        8.9176    5.3324   12.8252 H         1 RES1    0.0000
     26 C13        9.8272    6.9192   13.6849 C.ar      1 RES1    0.0000
     27 C14        9.8133    8.2826   13.8509 C.ar      1 RES1    0.0000
     28 H11       10.4093    8.6975   14.4462 H         1 RES1    0.0000
     29 C15        8.9059    9.0331   13.1248 C.ar      1 RES1    0.0000
     30 H12        8.8920    9.9678   13.2158 H         1 RES1    0.0000
     31 O4        10.7688    6.1579   14.4035 O.3       1 RES1    0.0000
     32 C16       11.9652    5.9582   13.7612 C.2       1 RES1    0.0000
     33 O5        12.1678    6.3747   12.6550 O.2       1 RES1    0.0000
     34 C17       12.9075    5.1743   14.5823 C.ar      1 RES1    0.0000
     35 C18       12.6923    4.9207   15.9344 C.ar      1 RES1    0.0000
     36 H13       11.9238    5.2613   16.3566 H         1 RES1    0.0000
     37 C19       13.5989    4.1767   16.6592 C.ar      1 RES1    0.0000
     38 H14       13.4570    4.0234   17.5758 H         1 RES1    0.0000
     39 C20       14.7237    3.6514   16.0315 C.ar      1 RES1    0.0000
     40 C21       14.9649    3.9105   14.6928 C.ar      1 RES1    0.0000
     41 H15       15.7337    3.5696   14.2731 H         1 RES1    0.0000
     42 C22       14.0578    4.6778   13.9792 C.ar      1 RES1    0.0000
     43 H16       14.2227    4.8650   13.0738 H         1 RES1    0.0000
     44 O6        15.5253    2.8874   16.8323 O.3       1 RES1    0.0000
     45 C23       16.6338    2.1981   16.2395 C.3       1 RES1    0.0000
     46 H17       17.3005    2.8456   15.9008 H         1 RES1    0.0000
     47 H18       16.3266    1.6377   15.4848 H         1 RES1    0.0000
     48 C24       17.2367    1.3403   17.3180 C.3       1 RES1    0.0000
     49 H19       17.9656    0.7913   16.9344 H         1 RES1    0.0000
     50 H20       16.5403    0.7459   17.6953 H         1 RES1    0.0000
     51 H21       17.6008    1.9185   18.0341 H         1 RES1    0.0000
     52 C25        7.0098    6.2361   11.3228 C.2       1 RES1    0.0000
     53 O7         6.9721    5.0343   11.3084 O.2       1 RES1    0.0000
     54 O8         6.1694    7.0003   10.6206 O.3       1 RES1    0.0000
     55 C26        5.1718    6.2817    9.8371 C.3       1 RES1    0.0000
     56 H22        4.6035    5.7257   10.4274 H         1 RES1    0.0000
     57 H23        5.6125    5.6909    9.1758 H         1 RES1    0.0000
     58 C27        4.3374    7.3204    9.1360 C.ar      1 RES1    0.0000
     59 C28        3.0495    7.5840    9.5681 C.ar      1 RES1    0.0000
     60 H24        2.7044    7.1222   10.3103 H         1 RES1    0.0000
     61 C29        2.2602    8.5221    8.9155 C.ar      1 RES1    0.0000
     62 H25        1.3820    8.6984    9.2032 H         1 RES1    0.0000
     63 C30        2.8002    9.1888    7.8321 C.ar      1 RES1    0.0000
     64 C31        4.0789    8.9572    7.3763 C.ar      1 RES1    0.0000
     65 H26        4.4200    9.4212    6.6340 H         1 RES1    0.0000
     66 C32        4.8464    8.0204    8.0438 C.ar      1 RES1    0.0000
     67 H27        5.7258    7.8533    7.7561 H         1 RES1    0.0000
     68 N1         1.9626   10.1679    7.1262 N.pl3     1 RES1    0.0000
     69 O9         2.3381   10.5955    6.0544 O.2       1 RES1    0.0000
     70 O10        0.9166   10.5176    7.6454 O.2       1 RES1    0.0000
@<TRIPOS>BOND
     1    1    2 1
     2    3    1 1
     3    4    1 1
     4    5    1 1
     5    6    5 1
     6    7    5 1
     7    8    5 1
     8    9    8 1
     9   10    9 ar
    10   11   10 1
    11   12   10 ar
    12   13   12 1
    13   14   12 ar
    14   15   14 ar
    15   16   15 1
    16   17    9 ar
    17   18   17 1
    18   19   14 1
    19   20   19 2
    20   21   19 1
    21   22   21 1
    22   23   22 ar
    23   24   23 ar
    24   25   24 1
    25   26   24 ar
    26   27   26 ar
    27   28   27 1
    28   29   22 ar
    29   30   29 1
    30   31   26 1
    31   32   31 1
    32   33   32 2
    33   34   32 1
    34   35   34 ar
    35   36   35 1
    36   37   35 ar
    37   38   37 1
    38   39   37 ar
    39   40   39 ar
    40   41   40 1
    41   42   34 ar
    42   43   42 1
    43   44   39 1
    44   45   44 1
    45   46   45 1
    46   47   45 1
    47   48   45 1
    48   49   48 1
    49   50   48 1
    50   51   48 1
    51   52   23 1
    52   53   52 2
    53   54   52 1
    54   55   54 1
    55   56   55 1
    56   57   55 1
    57   58   55 1
    58   59   58 ar
    59   60   59 1
    60   61   59 ar
    61   62   61 1
    62   63   61 ar
    63   64   63 ar
    64   65   64 1
    65   66   58 ar
    66   67   66 1
    67   68   63 1
    68   69   68 2
    69   70   68 2
    70   15   17 ar
    71   27   29 ar
    72   40   42 ar
    73   64   66 ar
@<TRIPOS>SUBSTRUCTURE
     1 RES1 1

@<TRIPOS>CRYSIN
   9.5470   12.2940   13.5360  68.6700  75.1500  70.9800   2 1

