# MOL2 file generated by ConQuest
# Please check atom types

@<TRIPOS>MOLECULE
REHXOS
    54    58     1
SMALL
NO_CHARGES
****
Generated from CSD

@<TRIPOS>ATOM
      1 C1        -1.9782    0.2916    9.2741 C.3       1 RES1    0.0000
      2 H1        -2.3700   -0.4756    8.8087 H         1 RES1    0.0000
      3 H2        -2.6737    0.9620    9.4444 H         1 RES1    0.0000
      4 H3        -1.5943   -0.0027   10.1269 H         1 RES1    0.0000
      5 C2         0.1255    0.0759    8.1682 C.ar      1 RES1    0.0000
      6 C3         0.2511   -1.2665    8.5092 C.ar      1 RES1    0.0000
      7 H4        -0.4426   -1.7051    8.9881 H         1 RES1    0.0000
      8 C4         1.4019   -1.9650    8.1445 C.ar      1 RES1    0.0000
      9 H5         1.4776   -2.8832    8.3736 H         1 RES1    0.0000
     10 C5         2.4351   -1.3530    7.4590 C.ar      1 RES1    0.0000
     11 H6         3.2147   -1.8402    7.2177 H         1 RES1    0.0000
     12 C6         2.3022   -0.0041    7.1311 C.ar      1 RES1    0.0000
     13 C7         1.1538    0.6985    7.4673 C.ar      1 RES1    0.0000
     14 C8         1.2296    2.1555    7.0702 C.3       1 RES1    0.0000
     15 C9         2.7328    2.3088    6.6541 C.3       1 RES1    0.0000
     16 H7         2.8391    2.8887    5.8467 H         1 RES1    0.0000
     17 C10        3.2792    0.8974    6.4168 C.3       1 RES1    0.0000
     18 H8         3.3102    0.6891    5.4493 H         1 RES1    0.0000
     19 H9         4.1891    0.8026    6.7948 H         1 RES1    0.0000
     20 C11        1.1471    3.1073    8.2922 C.3       1 RES1    0.0000
     21 H10        0.3264    3.6588    8.2520 H         1 RES1    0.0000
     22 H11        1.1442    2.5914    9.1382 H         1 RES1    0.0000
     23 C12        4.5291    3.6974    7.5624 C.3       1 RES1    0.0000
     24 H12        4.3286    4.3478    6.8445 H         1 RES1    0.0000
     25 H13        5.2351    3.0886    7.2309 H         1 RES1    0.0000
     26 C13        5.0412    4.4365    8.7742 C.ar      1 RES1    0.0000
     27 C14        4.6702    4.0892   10.0691 C.ar      1 RES1    0.0000
     28 H14        4.0847    3.3534   10.2110 H         1 RES1    0.0000
     29 C15        5.1465    4.8042   11.1540 C.ar      1 RES1    0.0000
     30 H15        4.8849    4.5586   12.0332 H         1 RES1    0.0000
     31 C16        5.9994    5.8749   10.9665 C.ar      1 RES1    0.0000
     32 H16        6.3166    6.3691   11.7128 H         1 RES1    0.0000
     33 C17        6.3872    6.2221    9.6949 C.ar      1 RES1    0.0000
     34 H17        6.9855    6.9501    9.5651 H         1 RES1    0.0000
     35 C18        5.9087    5.5141    8.5957 C.ar      1 RES1    0.0000
     36 H18        6.1746    5.7665    7.7196 H         1 RES1    0.0000
     37 C19        0.2719    2.5852    5.9665 C.ar      1 RES1    0.0000
     38 C20       -0.6610    1.7289    5.4012 C.ar      1 RES1    0.0000
     39 H19       -0.7124    0.8269    5.6906 H         1 RES1    0.0000
     40 C21       -1.5212    2.1901    4.4106 C.ar      1 RES1    0.0000
     41 H20       -2.1564    1.5970    4.0276 H         1 RES1    0.0000
     42 C22       -1.4655    3.4975    3.9769 C.ar      1 RES1    0.0000
     43 H21       -2.0547    3.8047    3.2975 H         1 RES1    0.0000
     44 C23       -0.5353    4.3632    4.5458 C.ar      1 RES1    0.0000
     45 C24        0.3273    3.9149    5.5291 C.ar      1 RES1    0.0000
     46 H22        0.9610    4.5127    5.9096 H         1 RES1    0.0000
     47 C25        0.3635    6.5812    4.6441 C.3       1 RES1    0.0000
     48 H23        0.2058    6.6339    5.6095 H         1 RES1    0.0000
     49 H24        0.2259    7.4635    4.2416 H         1 RES1    0.0000
     50 H25        1.2835    6.2880    4.4799 H         1 RES1    0.0000
     51 N1         3.3278    2.9243    7.8572 N.3       1 RES1    0.0000
     52 O1        -0.9530    0.8655    8.4647 O.3       1 RES1    0.0000
     53 O2        -0.5473    5.6444    4.0623 O.3       1 RES1    0.0000
     54 O3         2.3072    3.9236    8.2040 O.3       1 RES1    0.0000
@<TRIPOS>BOND
     1    1    2 1
     2    3    1 1
     3    4    1 1
     4    5    6 ar
     5    6    7 1
     6    8    6 ar
     7    9    8 1
     8   10    8 ar
     9   11   10 1
    10   12   10 ar
    11   13    5 ar
    12   14   13 1
    13   15   14 1
    14   16   15 1
    15   17   12 1
    16   18   17 1
    17   19   17 1
    18   20   14 1
    19   21   20 1
    20   22   20 1
    21   23   24 1
    22   25   23 1
    23   26   23 1
    24   27   26 ar
    25   28   27 1
    26   29   27 ar
    27   30   29 1
    28   31   29 ar
    29   32   31 1
    30   33   31 ar
    31   34   33 1
    32   35   26 ar
    33   36   35 1
    34   37   14 1
    35   38   37 ar
    36   39   38 1
    37   40   38 ar
    38   41   40 1
    39   42   40 ar
    40   43   42 1
    41   44   42 ar
    42   45   37 ar
    43   46   45 1
    44   47   48 1
    45   49   47 1
    46   50   47 1
    47   51   15 1
    48   52    1 1
    49   53   44 1
    50   54   20 1
    51    5   52 1
    52   12   13 ar
    53   15   17 1
    54   23   51 1
    55   33   35 ar
    56   44   45 ar
    57   47   53 1
    58   51   54 1
@<TRIPOS>SUBSTRUCTURE
     1 RES1 1

@<TRIPOS>CRYSIN
   7.6288   27.0220   10.6632  90.0000 108.0220  90.0000 231 1

