# MOL2 file generated by ConQuest
# Please check atom types

@<TRIPOS>MOLECULE
REJPUS
    40    41     1
SMALL
NO_CHARGES
****
Generated from CSD

@<TRIPOS>ATOM
      1 N1         0.7795    6.4320    6.2329 N.pl3     1 RES1    0.0000
      2 O1        -0.0085    5.8334    7.0542 O.2       1 RES1    0.0000
      3 N2         1.7133    7.9979    5.0345 N.pl3     1 RES1    0.0000
      4 N3        -1.6989    9.6369    7.7241 N.pl3     1 RES1    0.0000
      5 C1         1.7055    5.6707    5.3324 C.3       1 RES1    0.0000
      6 C2        -0.1272    8.7122    6.5456 C.2       1 RES1    0.0000
      7 C3         0.7625    7.7479    5.9609 C.2       1 RES1    0.0000
      8 N4        -1.1254   10.6668    7.0653 N.2       1 RES1    0.0000
      9 C4        -2.8471    9.8894    8.6408 C.3       1 RES1    0.0000
     10 H1        -3.1212    8.9375    8.9768 H         1 RES1    0.0000
     11 C5        -0.1736   10.0949    6.3580 C.2       1 RES1    0.0000
     12 H2         0.3761   10.5344    5.7552 H         1 RES1    0.0000
     13 C6         2.5820    6.8207    4.7713 C.3       1 RES1    0.0000
     14 O2         1.9664    9.1702    4.5554 O.2       1 RES1    0.0000
     15 C7        -1.1408    8.4584    7.4399 C.2       1 RES1    0.0000
     16 H3        -1.4027    7.6377    7.8498 H         1 RES1    0.0000
     17 C8        -3.9100   10.6829    7.9270 C.3       1 RES1    0.0000
     18 H4        -4.2409   10.2496    7.1538 H         1 RES1    0.0000
     19 H5        -3.5174   11.5989    7.6843 H         1 RES1    0.0000
     20 H6        -4.7094   10.7819    8.5363 H         1 RES1    0.0000
     21 C9         0.8387    4.9874    4.3035 C.3       1 RES1    0.0000
     22 H7         0.1751    4.3450    4.7263 H         1 RES1    0.0000
     23 H8         1.3686    4.3945    3.6958 H         1 RES1    0.0000
     24 H9         0.3049    5.6447    3.7457 H         1 RES1    0.0000
     25 C10        2.8950    6.7242    3.2811 C.3       1 RES1    0.0000
     26 H10        3.3646    7.5511    3.0705 H         1 RES1    0.0000
     27 H11        2.1580    6.7217    2.7168 H         1 RES1    0.0000
     28 H12        3.4214    5.8552    3.1509 H         1 RES1    0.0000
     29 C11       -2.3344   10.5678    9.8915 C.3       1 RES1    0.0000
     30 H13       -1.6540    9.9526   10.2885 H         1 RES1    0.0000
     31 H14       -3.0214   10.5839   10.5779 H         1 RES1    0.0000
     32 H15       -2.0690   11.4999    9.5651 H         1 RES1    0.0000
     33 C12        2.4597    4.6433    6.1474 C.3       1 RES1    0.0000
     34 H16        1.7743    3.9488    6.5268 H         1 RES1    0.0000
     35 H17        2.9326    5.0382    6.8981 H         1 RES1    0.0000
     36 H18        3.0539    4.1345    5.5783 H         1 RES1    0.0000
     37 C13        3.8709    7.0720    5.5413 C.3       1 RES1    0.0000
     38 H19        4.1979    7.9348    5.2246 H         1 RES1    0.0000
     39 H20        4.4638    6.2265    5.4015 H         1 RES1    0.0000
     40 H21        3.7838    7.0435    6.5268 H         1 RES1    0.0000
@<TRIPOS>BOND
     1    1    2 1
     2    3    7 1
     3    4    8 1
     4    5    1 1
     5    6    7 1
     6    7    1 2
     7    8   11 2
     8    9    4 1
     9   10    9 1
    10   11    6 1
    11   12   11 1
    12   13    3 1
    13   14    3 2
    14   15    4 1
    15   16   15 1
    16   17    9 1
    17   18   17 1
    18   19   17 1
    19   20   17 1
    20   21    5 1
    21   22   21 1
    22   23   21 1
    23   24   21 1
    24   25   13 1
    25   26   25 1
    26   27   25 1
    27   28   25 1
    28   29    9 1
    29   30   29 1
    30   31   29 1
    31   32   29 1
    32   33    5 1
    33   34   33 1
    34   35   33 1
    35   36   33 1
    36   37   13 1
    37   38   37 1
    38   39   37 1
    39   40   37 1
    40    5   13 1
    41    6   15 2
@<TRIPOS>SUBSTRUCTURE
     1 RES1 1

@<TRIPOS>CRYSIN
   7.4150   12.3788   16.4450  90.0000 102.1630  90.0000  14 1

