# MOL2 file generated by ConQuest
# Please check atom types

@<TRIPOS>MOLECULE
REJQED
    34    35     1
SMALL
NO_CHARGES
****
Generated from CSD

@<TRIPOS>ATOM
      1 O1        -0.5541    0.7272    0.4471 O.2       1 RES1    0.0000
      2 N1        -0.0338    1.1850    1.5318 N.pl3     1 RES1    0.0000
      3 C1        -0.5260    2.4775    2.1019 C.3       1 RES1    0.0000
      4 C2        -1.9217    2.2137    2.5985 C.3       1 RES1    0.0000
      5 H1        -2.5075    2.0790    1.8501 H         1 RES1    0.0000
      6 H2        -2.2262    2.9654    3.1102 H         1 RES1    0.0000
      7 H3        -1.9217    1.4281    3.1503 H         1 RES1    0.0000
      8 C3        -0.4746    3.5052    1.0157 C.3       1 RES1    0.0000
      9 H4        -1.3290    3.3253    0.4773 H         1 RES1    0.0000
     10 H5         0.6610    3.5137    0.9737 H         1 RES1    0.0000
     11 H6        -0.5625    4.3050    1.3174 H         1 RES1    0.0000
     12 C4         0.5112    2.7045    3.2490 C.3       1 RES1    0.0000
     13 C5        -0.0084    3.0352    4.6051 C.3       1 RES1    0.0000
     14 H7         0.9000    3.2311    5.2886 H         1 RES1    0.0000
     15 H8        -0.8157    2.1007    4.6395 H         1 RES1    0.0000
     16 H9        -0.1758    3.9847    4.1431 H         1 RES1    0.0000
     17 C6         1.5870    3.7841    2.8581 C.3       1 RES1    0.0000
     18 H10        1.1623    4.6394    2.7646 H         1 RES1    0.0000
     19 H11        1.9998    3.5382    2.0276 H         1 RES1    0.0000
     20 H12        2.2557    3.8321    3.5455 H         1 RES1    0.0000
     21 N2         1.2495    1.4563    3.2621 N.pl3     1 RES1    0.0000
     22 O2         2.1587    1.2312    4.1349 O.2       1 RES1    0.0000
     23 C7         0.9528    0.6396    2.2353 C.2       1 RES1    0.0000
     24 C8         1.6503   -0.5916    1.9661 C.2       1 RES1    0.0000
     25 N3         1.2333   -1.4893    1.0144 N.2       1 RES1    0.0000
     26 C9         2.1559   -2.4238    1.0404 C.2       1 RES1    0.0000
     27 H13        2.1728   -3.2594    0.4773 H         1 RES1    0.0000
     28 N4         3.0953   -2.2052    1.9451 N.pl3     1 RES1    0.0000
     29 C10        4.2562   -3.0531    2.1956 C.3       1 RES1    0.0000
     30 H14        4.3104   -3.2217    3.0166 H         1 RES1    0.0000
     31 H15        5.1049   -2.3550    2.0429 H         1 RES1    0.0000
     32 H16        4.1979   -3.8434    1.4701 H         1 RES1    0.0000
     33 C11        2.7922   -1.0306    2.5425 C.2       1 RES1    0.0000
     34 H17        3.3259   -0.6877    3.2152 H         1 RES1    0.0000
@<TRIPOS>BOND
     1    1    2 2
     2    2    3 1
     3    3    4 1
     4    4    5 1
     5    6    4 1
     6    7    4 1
     7    8    3 1
     8    9    8 1
     9   10    8 1
    10   11    8 1
    11   12    3 1
    12   13   12 1
    13   14   13 1
    14   15   13 1
    15   16   13 1
    16   17   12 1
    17   18   17 1
    18   19   17 1
    19   20   17 1
    20   21   12 1
    21   22   21 1
    22   23    2 1
    23   24   23 1
    24   25   24 1
    25   26   25 2
    26   27   26 1
    27   28   26 1
    28   29   28 1
    29   30   29 1
    30   31   29 1
    31   32   29 1
    32   33   24 2
    33   34   33 1
    34   21   23 2
    35   28   33 1
@<TRIPOS>SUBSTRUCTURE
     1 RES1 1

@<TRIPOS>CRYSIN
   7.0316    9.4201   19.0925  90.0000  90.0000  90.0000  19 1

