# MOL2 file generated by ConQuest
# Please check atom types

@<TRIPOS>MOLECULE
REJQAZ
    34    35     1
SMALL
NO_CHARGES
****
Generated from CSD

@<TRIPOS>ATOM
      1 O1        -1.7457   14.2487   10.8744 O.2       1 RES1    0.0000
      2 N1        -2.6478   13.5082   11.3832 N.pl3     1 RES1    0.0000
      3 C1        -3.2201   12.3164   10.6723 C.3       1 RES1    0.0000
      4 C2        -3.4150   12.6073    9.2026 C.3       1 RES1    0.0000
      5 H1        -2.5535   12.7226    8.7607 H         1 RES1    0.0000
      6 H2        -3.8601   11.8611    8.8171 H         1 RES1    0.0000
      7 H3        -3.9541   13.4244    9.0651 H         1 RES1    0.0000
      8 C3        -2.2196   11.1821   10.8639 C.3       1 RES1    0.0000
      9 H4        -2.5409   10.3869   10.4157 H         1 RES1    0.0000
     10 H5        -1.3932   11.4296   10.4371 H         1 RES1    0.0000
     11 H6        -2.0775   10.9950   11.8316 H         1 RES1    0.0000
     12 C4        -4.5274   12.1263   11.4766 C.3       1 RES1    0.0000
     13 C5        -5.6616   13.0230   10.9974 C.3       1 RES1    0.0000
     14 H7        -5.9889   12.6781   10.1643 H         1 RES1    0.0000
     15 H8        -5.3618   13.9588   10.8914 H         1 RES1    0.0000
     16 H9        -6.3766   12.9913   11.6377 H         1 RES1    0.0000
     17 C6        -4.9969   10.6947   11.6305 C.3       1 RES1    0.0000
     18 H10       -5.7906   10.7017   12.1574 H         1 RES1    0.0000
     19 H11       -4.3210   10.1305   12.0853 H         1 RES1    0.0000
     20 H12       -5.2048   10.3332   10.7437 H         1 RES1    0.0000
     21 N2        -4.0891   12.6698   12.8089 N.pl3     1 RES1    0.0000
     22 O2        -4.6631   12.3482   13.9086 O.2       1 RES1    0.0000
     23 C7        -3.0956   13.5617   12.6596 C.2       1 RES1    0.0000
     24 C8        -2.4862   14.3416   13.7059 C.2       1 RES1    0.0000
     25 C9        -1.1640   14.5452   13.9727 C.2       1 RES1    0.0000
     26 H13       -0.4350   14.2321   13.4607 H         1 RES1    0.0000
     27 N3        -0.9974   15.2504   15.1278 N.2       1 RES1    0.0000
     28 C10       -2.2220   15.4832   15.5403 C.2       1 RES1    0.0000
     29 H14       -2.4621   15.9459   16.3106 H         1 RES1    0.0000
     30 N4        -3.1671   14.9689   14.7270 N.pl3     1 RES1    0.0000
     31 C11       -4.6043   15.1868   14.8373 C.3       1 RES1    0.0000
     32 H15       -4.9187   15.5558   14.0593 H         1 RES1    0.0000
     33 H16       -4.7741   15.7800   15.5824 H         1 RES1    0.0000
     34 H17       -5.0739   14.3473   15.0254 H         1 RES1    0.0000
@<TRIPOS>BOND
     1    1    2 2
     2    2    3 1
     3    3    4 1
     4    4    5 1
     5    6    4 1
     6    7    4 1
     7    8    3 1
     8    9    8 1
     9   10    8 1
    10   11    8 1
    11   12    3 1
    12   13   12 1
    13   14   13 1
    14   15   13 1
    15   16   13 1
    16   17   12 1
    17   18   17 1
    18   19   17 1
    19   20   17 1
    20   21   12 1
    21   22   21 1
    22   23    2 1
    23   24   23 1
    24   25   24 2
    25   26   25 1
    26   27   25 1
    27   28   27 2
    28   29   28 1
    29   30   24 1
    30   31   30 1
    31   32   31 1
    32   33   31 1
    33   34   31 1
    34   21   23 2
    35   28   30 1
@<TRIPOS>SUBSTRUCTURE
     1 RES1 1

@<TRIPOS>CRYSIN
   6.9064   15.3562   11.6709  90.0000 104.9930  90.0000 231 1

