# MOL2 file generated by ConQuest
# Please check atom types

@<TRIPOS>MOLECULE
REJZIP
    32    32     1
SMALL
NO_CHARGES
****
Generated from CSD

@<TRIPOS>ATOM
      1 O1         1.1778    0.4069    1.6148 O.3       1 RES1    0.0000
      2 O2         3.6071    6.2187    3.5241 O.2       1 RES1    0.0000
      3 O3         1.5457    6.7549    3.9171 O.2       1 RES1    0.0000
      4 O4         2.3860    4.8683    6.0749 O.2       1 RES1    0.0000
      5 O5         3.1584    3.0240    5.3114 O.2       1 RES1    0.0000
      6 O6         0.0978    3.7113    4.6903 O.2       1 RES1    0.0000
      7 O7         0.0396    4.7447    2.8088 O.2       1 RES1    0.0000
      8 O8        -0.8456    2.3887    1.1458 O.2       1 RES1    0.0000
      9 O9        -0.5546    2.7903   -0.9370 O.2       1 RES1    0.0000
     10 N1         2.4436    5.9773    3.7276 N.pl3     1 RES1    0.0000
     11 N2         2.6027    4.0808    5.1904 N.pl3     1 RES1    0.0000
     12 N3         0.6065    4.3225    3.7854 N.pl3     1 RES1    0.0000
     13 N4        -0.1321    2.5141    0.1692 N.pl3     1 RES1    0.0000
     14 C1         1.6459    1.6834    1.6480 C.2       1 RES1    0.0000
     15 C2         2.2651    2.2472    2.6750 C.2       1 RES1    0.0000
     16 C3         2.7545    3.6686    2.6514 C.3       1 RES1    0.0000
     17 C4         2.5355    4.3411    1.3257 C.2       1 RES1    0.0000
     18 C5         1.9488    3.7547    0.3020 C.2       1 RES1    0.0000
     19 C6         1.4039    2.3551    0.3298 C.3       1 RES1    0.0000
     20 C7         1.1358   -0.2782    2.8741 C.3       1 RES1    0.0000
     21 C8         2.1124    4.4807    3.7908 C.3       1 RES1    0.0000
     22 C9         1.9192    1.5364   -0.8492 C.3       1 RES1    0.0000
     23 H1         2.4060    1.7313    3.4599 H         1 RES1    0.0000
     24 H2         3.7403    3.6494    2.8174 H         1 RES1    0.0000
     25 H3         1.8658    4.2476   -0.5054 H         1 RES1    0.0000
     26 H4         2.8361    5.2360    1.2208 H         1 RES1    0.0000
     27 H5         1.7744    2.0332   -1.6812 H         1 RES1    0.0000
     28 H6         1.4376    0.6843   -0.8899 H         1 RES1    0.0000
     29 H7         2.8777    1.3651   -0.7335 H         1 RES1    0.0000
     30 H8         2.0496   -0.4334    3.1922 H         1 RES1    0.0000
     31 H9         0.6767   -1.1364    2.7649 H         1 RES1    0.0000
     32 H10        0.6514    0.2698    3.5274 H         1 RES1    0.0000
@<TRIPOS>BOND
     1    1   14 1
     2    2   10 2
     3    3   10 2
     4    4   11 2
     5    5   11 2
     6    6   12 2
     7    7   12 2
     8    8   13 2
     9    9   13 2
    10   10   21 1
    11   11   21 1
    12   12   21 1
    13   13   19 1
    14   14   15 2
    15   15   16 1
    16   16   17 1
    17   17   18 2
    18   18   19 1
    19   19   14 1
    20   20    1 1
    21   21   16 1
    22   22   19 1
    23   23   15 1
    24   24   16 1
    25   25   18 1
    26   26   17 1
    27   27   22 1
    28   28   22 1
    29   29   22 1
    30   30   20 1
    31   31   20 1
    32   32   20 1
@<TRIPOS>SUBSTRUCTURE
     1 RES1 1

@<TRIPOS>CRYSIN
   6.0970   10.2900   11.1880  73.2300  86.8000  83.9100   2 1

