# MOL2 file generated by ConQuest
# Please check atom types

@<TRIPOS>MOLECULE
RELFAR
    56    57     1
SMALL
NO_CHARGES
****
Generated from CSD

@<TRIPOS>ATOM
      1 O1         0.8402    6.9141   11.8990 O.3       1 RES1    0.0000
      2 O2        -0.0864    9.3978   14.3903 O.3       1 RES1    0.0000
      3 O3        -2.3576    9.4466   14.2890 O.2       1 RES1    0.0000
      4 O4        -0.4003    6.8663   15.7762 O.3       1 RES1    0.0000
      5 O5         1.1425    7.0228   17.4118 O.2       1 RES1    0.0000
      6 O6         1.8109    5.0341   14.8812 O.3       1 RES1    0.0000
      7 O7         0.1393    3.6757   15.5590 O.2       1 RES1    0.0000
      8 O8         0.6882    3.9664   11.8827 O.3       1 RES1    0.0000
      9 O9        -0.0776    8.9983   11.6398 O.3       1 RES1    0.0000
     10 O10        0.4702    9.6397    8.2715 O.2       1 RES1    0.0000
     11 N1         0.6508    9.4178   10.5004 N.am      1 RES1    0.0000
     12 C1         0.7251    8.1881   12.4870 C.3       1 RES1    0.0000
     13 C2        -0.0600    8.0849   13.7772 C.3       1 RES1    0.0000
     14 C3         0.5952    7.1149   14.7318 C.3       1 RES1    0.0000
     15 C4         0.9079    5.8043   14.0414 C.3       1 RES1    0.0000
     16 C5         1.6435    6.0340   12.7194 C.3       1 RES1    0.0000
     17 C6        -1.3005    9.9704   14.5468 C.2       1 RES1    0.0000
     18 C7        -1.1392   11.3810   15.0893 C.3       1 RES1    0.0000
     19 C8         0.0127    6.8097   17.0780 C.2       1 RES1    0.0000
     20 C9        -1.1248    6.4124   17.9444 C.3       1 RES1    0.0000
     21 C10        1.3093    3.9897   15.5851 C.2       1 RES1    0.0000
     22 C11        2.3609    3.3538   16.4020 C.3       1 RES1    0.0000
     23 C12        1.8764    4.7422   11.9527 C.3       1 RES1    0.0000
     24 C13        0.1041    9.0604    9.2911 C.2       1 RES1    0.0000
     25 C14       -0.8919    7.9406    9.3144 C.3       1 RES1    0.0000
     26 C15        1.5554   10.5187   10.7338 C.ar      1 RES1    0.0000
     27 C16        1.3825   11.3333   11.8439 C.ar      1 RES1    0.0000
     28 C17        2.3223   12.3310   12.0925 C.ar      1 RES1    0.0000
     29 C18        3.3982   12.5352   11.2537 C.ar      1 RES1    0.0000
     30 C19        3.5490   11.7284   10.1345 C.ar      1 RES1    0.0000
     31 C20        2.6318   10.7196    9.8505 C.ar      1 RES1    0.0000
     32 H1         1.5765    8.5783   12.6357 H         1 RES1    0.0000
     33 H2        -0.9510    7.8028   13.5924 H         1 RES1    0.0000
     34 H3         1.3841    7.4893   15.1022 H         1 RES1    0.0000
     35 H4         0.1061    5.3145   13.8838 H         1 RES1    0.0000
     36 H5         2.4782    6.4496   12.9000 H         1 RES1    0.0000
     37 H6        -1.7916   11.9477   14.6995 H         1 RES1    0.0000
     38 H7        -0.2703   11.7007   14.8760 H         1 RES1    0.0000
     39 H8        -1.2494   11.3684   16.0326 H         1 RES1    0.0000
     40 H9         0.3189    4.0217   11.1710 H         1 RES1    0.0000
     41 H10       -1.9121    6.8864   17.6844 H         1 RES1    0.0000
     42 H11       -0.9254    6.6168   18.8508 H         1 RES1    0.0000
     43 H12       -1.2841    5.4787   17.8595 H         1 RES1    0.0000
     44 H13        3.1845    3.3804   15.9332 H         1 RES1    0.0000
     45 H14        2.1244    2.4512   16.5806 H         1 RES1    0.0000
     46 H15        2.4533    3.8220   17.2281 H         1 RES1    0.0000
     47 H16        2.5534    4.2425   12.3917 H         1 RES1    0.0000
     48 H17        2.1606    4.9564   11.0717 H         1 RES1    0.0000
     49 H18       -0.5052    7.1851    9.7394 H         1 RES1    0.0000
     50 H19       -1.6647    8.2143    9.7935 H         1 RES1    0.0000
     51 H20       -1.1338    7.7153    8.4239 H         1 RES1    0.0000
     52 H21        0.6484   11.2105   12.4243 H         1 RES1    0.0000
     53 H22        2.2179   12.8861   12.8573 H         1 RES1    0.0000
     54 H23        4.0234   13.2211   11.4355 H         1 RES1    0.0000
     55 H24        4.2908   11.8583    9.5617 H         1 RES1    0.0000
     56 H25        2.7307   10.1779    9.0717 H         1 RES1    0.0000
@<TRIPOS>BOND
     1    1   12 1
     2    2   13 1
     3    3   17 2
     4    4   14 1
     5    5   19 2
     6    6   15 1
     7    7   21 2
     8    8   23 1
     9    9   11 1
    10   10   24 2
    11   11   24 1
    12   12    9 1
    13   13   12 1
    14   14   13 1
    15   15   14 1
    16   16    1 1
    17   17    2 1
    18   18   17 1
    19   19    4 1
    20   20   19 1
    21   21    6 1
    22   22   21 1
    23   23   16 1
    24   24   25 1
    25   25   49 1
    26   26   11 1
    27   27   26 ar
    28   28   27 ar
    29   29   28 ar
    30   30   29 ar
    31   31   26 ar
    32   32   12 1
    33   33   13 1
    34   34   14 1
    35   35   15 1
    36   36   16 1
    37   37   18 1
    38   38   18 1
    39   39   18 1
    40   40    8 1
    41   41   20 1
    42   42   20 1
    43   43   20 1
    44   44   22 1
    45   45   22 1
    46   46   22 1
    47   47   23 1
    48   48   23 1
    49   50   25 1
    50   51   25 1
    51   52   27 1
    52   53   28 1
    53   54   29 1
    54   55   30 1
    55   56   31 1
    56   15   16 1
    57   30   31 ar
@<TRIPOS>SUBSTRUCTURE
     1 RES1 1

@<TRIPOS>CRYSIN
   5.5058   11.0980   35.3180  90.0000  90.0000  90.0000  19 1

