# MOL2 file generated by ConQuest
# Please check atom types

@<TRIPOS>MOLECULE
RELQUW
    30    32     1
SMALL
NO_CHARGES
****
Generated from CSD

@<TRIPOS>ATOM
      1 N1         1.4481    2.8924    0.3854 N.pl3     1 RES1    0.0000
      2 N2         2.0429    4.8675    1.3045 N.2       1 RES1    0.0000
      3 C1         2.0768    4.1095    0.1939 C.2       1 RES1    0.0000
      4 C2         1.2591    4.6802    3.6030 C.ar      1 RES1    0.0000
      5 O1        -0.0726    0.9347    1.5519 O.2       1 RES1    0.0000
      6 C3         1.4041    4.1419    2.2435 C.2       1 RES1    0.0000
      7 N3         0.2052    1.9094    2.2422 N.pl3     1 RES1    0.0000
      8 C4         1.0067    2.9226    1.7066 C.2       1 RES1    0.0000
      9 C5         0.8717    6.0038    3.7598 C.ar      1 RES1    0.0000
     10 H1         0.6613    6.5134    3.0101 H         1 RES1    0.0000
     11 O2        -0.2195    2.0468    3.3850 O.2       1 RES1    0.0000
     12 C6         2.6842    4.4009   -1.0429 C.2       1 RES1    0.0000
     13 C7         1.4127    1.9358   -0.5967 C.2       1 RES1    0.0000
     14 H2         0.9874    1.1204   -0.4557 H         1 RES1    0.0000
     15 C8         1.5989    3.9494    4.7312 C.ar      1 RES1    0.0000
     16 H3         1.8698    3.0638    4.6453 H         1 RES1    0.0000
     17 C9         1.5367    4.5315    5.9815 C.ar      1 RES1    0.0000
     18 H4         1.7721    4.0385    6.7346 H         1 RES1    0.0000
     19 C10        2.6445    3.4360   -2.0029 C.2       1 RES1    0.0000
     20 H5         3.0445    3.5961   -2.8257 H         1 RES1    0.0000
     21 C11        3.3436    5.7267   -1.2328 C.3       1 RES1    0.0000
     22 H6         4.1355    5.7705   -0.6922 H         1 RES1    0.0000
     23 H7         2.7390    6.4251   -0.9713 H         1 RES1    0.0000
     24 H8         3.5797    5.8369   -2.1571 H         1 RES1    0.0000
     25 C12        2.0152    2.2137   -1.7771 C.2       1 RES1    0.0000
     26 H9         2.0083    1.5749   -2.4520 H         1 RES1    0.0000
     27 C13        1.1275    5.8354    6.1165 C.ar      1 RES1    0.0000
     28 H10        1.0753    6.2197    6.9617 H         1 RES1    0.0000
     29 C14        0.7959    6.5693    5.0099 C.ar      1 RES1    0.0000
     30 H11        0.5182    7.4526    5.1042 H         1 RES1    0.0000
@<TRIPOS>BOND
     1    1    3 1
     2    2    3 2
     3    3   12 1
     4    4    6 1
     5    5    7 2
     6    6    2 1
     7    7    8 1
     8    8    1 1
     9    9    4 ar
    10   10    9 1
    11   11    7 2
    12   12   19 2
    13   13    1 1
    14   14   13 1
    15   15    4 ar
    16   16   15 1
    17   17   15 ar
    18   18   17 1
    19   19   20 1
    20   21   12 1
    21   22   21 1
    22   23   21 1
    23   24   21 1
    24   25   13 2
    25   26   25 1
    26   27   17 ar
    27   28   27 1
    28   29    9 ar
    29   30   29 1
    30    6    8 2
    31   19   25 1
    32   27   29 ar
@<TRIPOS>SUBSTRUCTURE
     1 RES1 1

@<TRIPOS>CRYSIN
  20.2470    7.5500   18.3040  90.0000 120.5190  90.0000  15 1

