# MOL2 file generated by ConQuest
# Please check atom types

@<TRIPOS>MOLECULE
REMFAR
    30    30     1
SMALL
USER_CHARGES
****
Generated from CSD

@<TRIPOS>ATOM
      1 O1         0.2498    3.7655    2.1778 O.2       1 RES1   -1.0000
      2 N1         0.1418    4.5114    1.1160 N.pl3     1 RES1    1.0000
      3 C1        -0.6119    5.6614    1.1758 C.ar      1 RES1    0.0000
      4 C2         0.7649    4.1498   -0.0455 C.ar      1 RES1    0.0000
      5 C3         1.5788    2.8949   -0.0022 C.3       1 RES1    0.0000
      6 C4        -1.2087    5.9740    2.4964 C.3       1 RES1    0.0000
      7 C5         0.7224    1.6463   -0.1689 C.3       1 RES1    0.0000
      8 H1         2.2331    2.9500   -0.6975 H         1 RES1    0.0000
      9 H2         2.0182    2.8431    0.8653 H         1 RES1    0.0000
     10 H3        -1.6460    6.8459    2.5334 H         1 RES1    0.0000
     11 H4         1.2819    0.8539   -0.1623 H         1 RES1    0.0000
     12 H5        -1.8897    5.3222    2.7089 H         1 RES1    0.0000
     13 H6         0.0643    1.5660    0.5593 H         1 RES1    0.0000
     14 H7         0.2806    1.6591   -1.0528 H         1 RES1    0.0000
     15 H8        -0.5152    5.8830    3.1585 H         1 RES1    0.0000
     16 O1B       -0.2498    6.8155   -2.1778 O.2       1 RES1   -1.0000
     17 N1B       -0.1418    6.0696   -1.1160 N.pl3     1 RES1    1.0000
     18 C1B        0.6119    4.9196   -1.1758 C.ar      1 RES1    0.0000
     19 C2B       -0.7649    6.4312    0.0455 C.ar      1 RES1    0.0000
     20 C3B       -1.5788    7.6861    0.0022 C.3       1 RES1    0.0000
     21 C4B        1.2087    4.6070   -2.4964 C.3       1 RES1    0.0000
     22 C5B       -0.7224    8.9347    0.1689 C.3       1 RES1    0.0000
     23 H1B       -2.2331    7.6310    0.6975 H         1 RES1    0.0000
     24 H2B       -2.0182    7.7379   -0.8653 H         1 RES1    0.0000
     25 H3B        1.6460    3.7351   -2.5334 H         1 RES1    0.0000
     26 H4B       -1.2819    9.7271    0.1623 H         1 RES1    0.0000
     27 H5B        1.8897    5.2588   -2.7089 H         1 RES1    0.0000
     28 H6B       -0.0643    9.0150   -0.5593 H         1 RES1    0.0000
     29 H7B       -0.2806    8.9219    1.0528 H         1 RES1    0.0000
     30 H8B        0.5152    4.6980   -3.1585 H         1 RES1    0.0000
@<TRIPOS>BOND
     1    1    2 1
     2    2    3 ar
     3    3    6 1
     4    4    2 ar
     5    5    4 1
     6    6   10 1
     7    7    5 1
     8    8    5 1
     9    9    5 1
    10   11    7 1
    11   12    6 1
    12   13    7 1
    13   14    7 1
    14   15    6 1
    15   16   17 1
    16   17   18 ar
    17   18    4 ar
    18   19    3 ar
    19   20   19 1
    20   21   18 1
    21   22   20 1
    22   23   20 1
    23   24   20 1
    24   25   21 1
    25   26   22 1
    26   27   21 1
    27   28   22 1
    28   29   22 1
    29   30   21 1
    30   17   19 ar
@<TRIPOS>SUBSTRUCTURE
     1 RES1 1

@<TRIPOS>CRYSIN
   4.2965   10.5810   11.0400  90.0000  96.5890  90.0000 231 1

