# MOL2 file generated by ConQuest
# Please check atom types

@<TRIPOS>MOLECULE
REMLED
    57    61     1
SMALL
NO_CHARGES
****
Generated from CSD

@<TRIPOS>ATOM
      1 O1         0.5434    2.2376   11.3689 O.3       1 RES1    0.0000
      2 C1         1.7280    1.7028   11.0480 C.2       1 RES1    0.0000
      3 O2         1.8642    0.5924   10.6082 O.2       1 RES1    0.0000
      4 C2         2.8484    2.6762   11.2510 C.ar      1 RES1    0.0000
      5 C3         2.6435    3.9473   11.7542 C.ar      1 RES1    0.0000
      6 C4         3.6861    4.8513   11.8513 C.ar      1 RES1    0.0000
      7 C5         4.9409    4.4365   11.4322 C.ar      1 RES1    0.0000
      8 N1         6.0431    5.4179   11.4824 N.pl3     1 RES1    0.0000
      9 O3         5.7873    6.5749   11.7737 O.2       1 RES1    0.0000
     10 O4         7.1674    5.0230   11.2006 O.2       1 RES1    0.0000
     11 C6         5.1897    3.1743   10.9511 C.ar      1 RES1    0.0000
     12 C7         4.1262    2.2803   10.8620 C.ar      1 RES1    0.0000
     13 C8        -0.6378    1.4745   10.9644 C.3       1 RES1    0.0000
     14 C9        -1.1115    0.5100   12.0531 C.3       1 RES1    0.0000
     15 C10       -2.0378    1.3396   12.9475 C.3       1 RES1    0.0000
     16 N2        -3.0731    0.6847   13.7291 N.3       1 RES1    0.0000
     17 C11       -2.5401   -0.2302   14.7285 C.3       1 RES1    0.0000
     18 C12       -1.6673    0.4535   15.7576 C.ar      1 RES1    0.0000
     19 C13       -2.1335    1.5668   16.4291 C.ar      1 RES1    0.0000
     20 C14       -1.3935    2.1572   17.4356 C.ar      1 RES1    0.0000
     21 C15       -0.1457    1.6551   17.7454 C.ar      1 RES1    0.0000
     22 C16        0.3322    0.5706   17.0722 C.ar      1 RES1    0.0000
     23 C17       -0.4193   -0.0308   16.0663 C.ar      1 RES1    0.0000
     24 C18       -4.1832    0.0933   12.9679 C.3       1 RES1    0.0000
     25 C19       -5.5363    0.3741   13.6104 C.ar      1 RES1    0.0000
     26 C20       -6.6414   -0.3820   13.2340 C.ar      1 RES1    0.0000
     27 C21       -7.8950   -0.0774   13.7642 C.ar      1 RES1    0.0000
     28 C22       -8.0612    0.9784   14.6209 C.ar      1 RES1    0.0000
     29 C23       -6.9764    1.7296   14.9757 C.ar      1 RES1    0.0000
     30 C24       -5.7383    1.4408   14.4657 C.ar      1 RES1    0.0000
     31 C25       -2.5870    2.3934   12.0190 C.3       1 RES1    0.0000
     32 C26       -1.7141    2.4976   10.8664 C.3       1 RES1    0.0000
     33 O5        -2.9995    1.8566   10.7255 O.3       1 RES1    0.0000
     34 H1         1.7514    4.2143   12.0205 H         1 RES1    0.0000
     35 H2         3.5578    5.7493   12.1898 H         1 RES1    0.0000
     36 H3         6.0794    2.9144   10.6961 H         1 RES1    0.0000
     37 H4         4.2696    1.3773   10.5267 H         1 RES1    0.0000
     38 H5        -0.4555    0.9992   10.1115 H         1 RES1    0.0000
     39 H6        -0.3395    0.1518   12.5587 H         1 RES1    0.0000
     40 H7        -1.6250   -0.2401   11.6254 H         1 RES1    0.0000
     41 H8        -1.4463    1.8457   13.5706 H         1 RES1    0.0000
     42 H9        -3.3102   -0.6301   15.2115 H         1 RES1    0.0000
     43 H10       -2.0133   -0.9447   14.3024 H         1 RES1    0.0000
     44 H11       -2.9863    1.9191   16.1973 H         1 RES1    0.0000
     45 H12       -1.7234    2.9173   17.9007 H         1 RES1    0.0000
     46 H13        0.3677    2.0461   18.4228 H         1 RES1    0.0000
     47 H14        1.1874    0.2223   17.2657 H         1 RES1    0.0000
     48 H15       -0.0640   -0.7948   15.5824 H         1 RES1    0.0000
     49 H16       -4.0256   -0.9129   12.9477 H         1 RES1    0.0000
     50 H17       -4.1735    0.4773   12.0305 H         1 RES1    0.0000
     51 H18       -6.5316   -1.1223   12.6111 H         1 RES1    0.0000
     52 H19       -8.6540   -0.6132   13.5263 H         1 RES1    0.0000
     53 H20       -8.9412    1.1838   14.9737 H         1 RES1    0.0000
     54 H21       -7.0919    2.4916   15.5885 H         1 RES1    0.0000
     55 H22       -4.9722    2.0014   14.6914 H         1 RES1    0.0000
     56 H23       -3.1322    3.1704   12.3672 H         1 RES1    0.0000
     57 H24       -1.5590    3.3897   10.4017 H         1 RES1    0.0000
@<TRIPOS>BOND
     1    1    2 1
     2    2    3 2
     3    4    2 1
     4    5    4 ar
     5    6    5 ar
     6    7    6 ar
     7    8    7 1
     8    9    8 2
     9   10    8 2
    10   11    7 ar
    11   12    4 ar
    12   13    1 1
    13   14   13 1
    14   15   14 1
    15   16   15 1
    16   17   16 1
    17   18   17 1
    18   19   18 ar
    19   20   19 ar
    20   21   20 ar
    21   22   21 ar
    22   23   18 ar
    23   24   16 1
    24   25   24 1
    25   26   25 ar
    26   27   26 ar
    27   28   27 ar
    28   29   28 ar
    29   30   25 ar
    30   31   15 1
    31   32   13 1
    32   33   31 1
    33   34    5 1
    34   35    6 1
    35   36   11 1
    36   37   12 1
    37   38   13 1
    38   39   14 1
    39   40   14 1
    40   41   15 1
    41   42   17 1
    42   43   17 1
    43   44   19 1
    44   45   20 1
    45   46   21 1
    46   47   22 1
    47   48   23 1
    48   49   24 1
    49   50   24 1
    50   51   26 1
    51   52   27 1
    52   53   28 1
    53   54   29 1
    54   55   30 1
    55   56   31 1
    56   57   32 1
    57   11   12 ar
    58   22   23 ar
    59   29   30 ar
    60   31   32 1
    61   32   33 1
@<TRIPOS>SUBSTRUCTURE
     1 RES1 1

@<TRIPOS>CRYSIN
  11.2751    9.9229   20.6082  90.0000 101.9927  90.0000 231 1

