# MOL2 file generated by ConQuest
# Please check atom types

@<TRIPOS>MOLECULE
REMLON
    63    67     1
SMALL
NO_CHARGES
****
Generated from CSD

@<TRIPOS>ATOM
      1 O1         0.0626    5.0812    6.4352 O.3       1 RES1    0.0000
      2 C1         1.0427    6.0421    5.9251 C.3       1 RES1    0.0000
      3 C2         2.1353    6.2903    6.9683 C.3       1 RES1    0.0000
      4 C3         3.4146    6.8608    6.3520 C.3       1 RES1    0.0000
      5 C4         3.3101    8.2555    5.7459 C.3       1 RES1    0.0000
      6 C5         2.3769    8.3725    4.5352 C.3       1 RES1    0.0000
      7 N1         2.7867    9.5009    3.6838 N.3       1 RES1    0.0000
      8 C6         2.0830    9.5122    2.3978 C.3       1 RES1    0.0000
      9 C7         2.4626    8.3509    1.5103 C.ar      1 RES1    0.0000
     10 C8         1.4892    7.5654    0.9141 C.ar      1 RES1    0.0000
     11 C9         1.8413    6.5460    0.0347 C.ar      1 RES1    0.0000
     12 C10        3.1659    6.3089   -0.2412 C.ar      1 RES1    0.0000
     13 C11        4.1494    7.0697    0.3574 C.ar      1 RES1    0.0000
     14 C12        3.7929    8.0940    1.2358 C.ar      1 RES1    0.0000
     15 C13        2.6782   10.8175    4.3297 C.3       1 RES1    0.0000
     16 C14        3.6515   11.8256    3.7538 C.ar      1 RES1    0.0000
     17 C15        4.9326   11.4665    3.3960 C.ar      1 RES1    0.0000
     18 C16        5.8376   12.4225    2.9226 C.ar      1 RES1    0.0000
     19 C17        5.4541   13.7543    2.8337 C.ar      1 RES1    0.0000
     20 C18        4.1795   14.1184    3.1899 C.ar      1 RES1    0.0000
     21 C19        3.2714   13.1666    3.6553 C.ar      1 RES1    0.0000
     22 C20        0.9320    8.4305    4.9903 C.3       1 RES1    0.0000
     23 C21        0.2787    7.2960    5.6496 C.3       1 RES1    0.0000
     24 O2        -0.0560    7.6295    4.2929 O.3       1 RES1    0.0000
     25 C22        0.4801    3.8038    6.4876 C.2       1 RES1    0.0000
     26 O3         1.5597    3.4252    6.1089 O.2       1 RES1    0.0000
     27 C23       -0.5146    2.9203    7.1575 C.ar      1 RES1    0.0000
     28 C24       -0.0504    1.6840    7.6272 C.ar      1 RES1    0.0000
     29 C25       -0.8915    0.8320    8.3195 C.ar      1 RES1    0.0000
     30 C26       -2.2049    1.2147    8.4831 C.ar      1 RES1    0.0000
     31 N2        -3.1240    0.2986    9.1830 N.pl3     1 RES1    0.0000
     32 O4        -2.6592   -0.7085    9.6972 O.2       1 RES1    0.0000
     33 O5        -4.3052    0.5801    9.2058 O.2       1 RES1    0.0000
     34 C27       -2.7126    2.4128    7.9968 C.ar      1 RES1    0.0000
     35 C28       -1.8446    3.2731    7.3364 C.ar      1 RES1    0.0000
     36 H1         1.4305    5.7172    5.1213 H         1 RES1    0.0000
     37 H2         1.8063    6.9116    7.6083 H         1 RES1    0.0000
     38 H3         2.3382    5.4690    7.4007 H         1 RES1    0.0000
     39 H4         4.0805    6.8835    7.0290 H         1 RES1    0.0000
     40 H5         3.6848    6.2674    5.6610 H         1 RES1    0.0000
     41 H6         2.9950    8.8442    6.4214 H         1 RES1    0.0000
     42 H7         4.1797    8.5238    5.4723 H         1 RES1    0.0000
     43 H8         2.4786    7.5799    4.0212 H         1 RES1    0.0000
     44 H9         2.2947   10.3196    1.9436 H         1 RES1    0.0000
     45 H10        1.1483    9.4779    2.5625 H         1 RES1    0.0000
     46 H11        0.5735    7.7321    1.1020 H         1 RES1    0.0000
     47 H12        1.1706    6.0077   -0.3680 H         1 RES1    0.0000
     48 H13        3.4061    5.6217   -0.8529 H         1 RES1    0.0000
     49 H14        5.0650    6.8935    0.1755 H         1 RES1    0.0000
     50 H15        4.4658    8.6223    1.6473 H         1 RES1    0.0000
     51 H16        2.8604   10.7156    5.2571 H         1 RES1    0.0000
     52 H17        1.7934   11.1442    4.2155 H         1 RES1    0.0000
     53 H18        5.2061   10.5599    3.4796 H         1 RES1    0.0000
     54 H19        6.7108   12.1602    2.6569 H         1 RES1    0.0000
     55 H20        6.0712   14.4103    2.5342 H         1 RES1    0.0000
     56 H21        3.9120   15.0277    3.1173 H         1 RES1    0.0000
     57 H22        2.3937   13.4291    3.9042 H         1 RES1    0.0000
     58 H23        0.6334    9.2881    5.2685 H         1 RES1    0.0000
     59 H24       -0.3747    7.5228    6.3006 H         1 RES1    0.0000
     60 H25        0.8500    1.4275    7.4649 H         1 RES1    0.0000
     61 H26       -0.5732    0.0115    8.6745 H         1 RES1    0.0000
     62 H27       -3.6288    2.6346    8.1121 H         1 RES1    0.0000
     63 H28       -2.1612    4.1065    7.0083 H         1 RES1    0.0000
@<TRIPOS>BOND
     1    1    2 1
     2    2    3 1
     3    3    4 1
     4    4    5 1
     5    5    6 1
     6    6    7 1
     7    7    8 1
     8    8    9 1
     9    9   10 ar
    10   10   11 ar
    11   11   12 ar
    12   12   13 ar
    13   13   14 ar
    14   14    9 ar
    15   15    7 1
    16   16   15 1
    17   17   16 ar
    18   18   17 ar
    19   19   18 ar
    20   20   19 ar
    21   21   16 ar
    22   22    6 1
    23   23    2 1
    24   24   22 1
    25   25    1 1
    26   26   25 2
    27   27   25 1
    28   28   27 ar
    29   29   28 ar
    30   30   29 ar
    31   31   30 1
    32   32   31 2
    33   33   31 2
    34   34   30 ar
    35   35   27 ar
    36   36    2 1
    37   37    3 1
    38   38    3 1
    39   39    4 1
    40   40    4 1
    41   41    5 1
    42   42    5 1
    43   43    6 1
    44   44    8 1
    45   45    8 1
    46   46   10 1
    47   47   11 1
    48   48   12 1
    49   49   13 1
    50   50   14 1
    51   51   15 1
    52   52   15 1
    53   53   17 1
    54   54   18 1
    55   55   19 1
    56   56   20 1
    57   57   21 1
    58   58   22 1
    59   59   23 1
    60   60   28 1
    61   61   29 1
    62   62   34 1
    63   63   35 1
    64   20   21 ar
    65   22   23 1
    66   23   24 1
    67   34   35 ar
@<TRIPOS>SUBSTRUCTURE
     1 RES1 1

@<TRIPOS>CRYSIN
   6.7380    9.4072   19.3817  99.2201  98.4462  95.3839   2 1

