# MOL2 file generated by ConQuest
# Please check atom types

@<TRIPOS>MOLECULE
REMQAE
    24    25     1
SMALL
NO_CHARGES
****
Generated from CSD

@<TRIPOS>ATOM
      1 C1         3.8583    5.9929    4.5599 C.ar      1 RES1    0.0000
      2 C2         4.9922    6.7692    4.7730 C.ar      1 RES1    0.0000
      3 H1         5.3270    7.2992    4.0865 H         1 RES1    0.0000
      4 C3         5.6192    6.7570    5.9968 C.ar      1 RES1    0.0000
      5 H2         6.3847    7.2687    6.1298 H         1 RES1    0.0000
      6 C4         5.1235    5.9981    7.0146 C.ar      1 RES1    0.0000
      7 H3         5.5497    5.9990    7.8415 H         1 RES1    0.0000
      8 C5         4.0198    5.2470    6.8313 C.ar      1 RES1    0.0000
      9 H4         3.6873    4.7353    7.5341 H         1 RES1    0.0000
     10 C6         3.3788    5.2305    5.6056 C.ar      1 RES1    0.0000
     11 H5         2.6217    4.7031    5.4848 H         1 RES1    0.0000
     12 C7         3.1758    5.9807    3.2624 C.2       1 RES1    0.0000
     13 C8         2.0441    5.0939    2.8905 C.3       1 RES1    0.0000
     14 H6         1.2685    5.2575    3.4496 H         1 RES1    0.0000
     15 H7         2.2926    4.1583    2.9554 H         1 RES1    0.0000
     16 C9         1.7811    5.4933    1.4572 C.3       1 RES1    0.0000
     17 H8         0.8659    5.8354    1.3782 H         1 RES1    0.0000
     18 C10        2.0049    4.4237    0.4167 C.3       1 RES1    0.0000
     19 H9         1.3257    3.7371    0.5123 H         1 RES1    0.0000
     20 H10        1.9140    4.8128   -0.4681 H         1 RES1    0.0000
     21 C11        3.3082    3.8232    0.5398 C.1       1 RES1    0.0000
     22 N1         3.5403    6.7675    2.3340 N.2       1 RES1    0.0000
     23 N2         4.3316    3.3611    0.6580 N.1       1 RES1    0.0000
     24 O1         2.7260    6.5803    1.2079 O.3       1 RES1    0.0000
@<TRIPOS>BOND
     1    1    2 ar
     2    2    3 1
     3    4    2 ar
     4    5    4 1
     5    6    4 ar
     6    7    6 1
     7    8    6 ar
     8    9    8 1
     9   10    1 ar
    10   11   10 1
    11   12    1 1
    12   13   12 1
    13   14   13 1
    14   15   13 1
    15   16   13 1
    16   17   16 1
    17   18   16 1
    18   19   18 1
    19   20   18 1
    20   21   18 1
    21   22   12 2
    22   23   21 3
    23   24   16 1
    24    8   10 ar
    25   22   24 1
@<TRIPOS>SUBSTRUCTURE
     1 RES1 1

@<TRIPOS>CRYSIN
   5.6080    8.7030   20.0910  90.0000  90.0000  90.0000  19 1

