# MOL2 file generated by ConQuest
# Please check atom types

@<TRIPOS>MOLECULE
REMVAJ
    43    46     1
SMALL
NO_CHARGES
****
Generated from CSD

@<TRIPOS>ATOM
      1 O1         9.1349   20.7770    4.1277 O.3       1 RES1    0.0000
      2 H1         9.6003   20.2997    3.6500 H         1 RES1    0.0000
      3 O2        11.3564   21.5926    5.6779 O.2       1 RES1    0.0000
      4 O3        10.0209   24.1870    3.6995 O.3       1 RES1    0.0000
      5 O4         7.0418   23.0621    2.2474 O.3       1 RES1    0.0000
      6 N1         9.6894   22.0407    4.1943 N.am      1 RES1    0.0000
      7 C1        10.7377   22.3518    4.9374 C.2       1 RES1    0.0000
      8 C2         9.2834   22.7019    1.8605 C.ar      1 RES1    0.0000
      9 C3         9.2062   23.0901    3.3081 C.3       1 RES1    0.0000
     10 C4        12.3812   24.0825    4.1439 C.3       1 RES1    0.0000
     11 H2        12.5145   23.5388    3.3648 H         1 RES1    0.0000
     12 H3        13.0382   23.8615    4.8061 H         1 RES1    0.0000
     13 H4        12.4670   25.0092    3.9055 H         1 RES1    0.0000
     14 C5         7.7173   23.4996    3.4593 C.3       1 RES1    0.0000
     15 H5         7.6792   24.4795    3.4818 H         1 RES1    0.0000
     16 C6        10.9997   23.8317    4.7026 C.3       1 RES1    0.0000
     17 C7         8.0015   22.7248    1.3423 C.ar      1 RES1    0.0000
     18 C8        10.7276   24.6220    5.9685 C.3       1 RES1    0.0000
     19 H6        10.7181   25.5603    5.7642 H         1 RES1    0.0000
     20 H7        11.4142   24.4400    6.6126 H         1 RES1    0.0000
     21 H8         9.8745   24.3669    6.3283 H         1 RES1    0.0000
     22 C9        10.1204   21.9476   -0.2348 C.ar      1 RES1    0.0000
     23 H9        10.8254   21.6787   -0.7755 H         1 RES1    0.0000
     24 C10       10.3503   22.2977    1.0913 C.ar      1 RES1    0.0000
     25 H10       11.2068   22.2602    1.4512 H         1 RES1    0.0000
     26 C11        6.9896   22.9893    4.6765 C.3       1 RES1    0.0000
     27 H11        6.8285   22.0380    4.5731 H         1 RES1    0.0000
     28 H12        7.5509   23.1126    5.4566 H         1 RES1    0.0000
     29 C12        8.8376   22.0030   -0.7431 C.ar      1 RES1    0.0000
     30 H13        8.6986   21.7762   -1.6347 H         1 RES1    0.0000
     31 C13        7.7502   22.3826    0.0252 C.ar      1 RES1    0.0000
     32 H14        6.8900   22.4063   -0.3275 H         1 RES1    0.0000
     33 C14        5.6807   23.6917    4.8988 C.ar      1 RES1    0.0000
     34 C15        5.6319   24.9404    5.4871 C.ar      1 RES1    0.0000
     35 H15        6.4225   25.3411    5.7696 H         1 RES1    0.0000
     36 C16        4.4926   23.1674    4.4192 C.ar      1 RES1    0.0000
     37 H16        4.5013   22.3424    3.9919 H         1 RES1    0.0000
     38 C17        4.4381   25.6059    5.6653 C.ar      1 RES1    0.0000
     39 H17        4.4258   26.4188    6.1124 H         1 RES1    0.0000
     40 C18        3.2868   25.0732    5.1894 C.ar      1 RES1    0.0000
     41 H18        2.4853   25.5359    5.2847 H         1 RES1    0.0000
     42 C19        3.2991   23.8341    4.5578 C.ar      1 RES1    0.0000
     43 H19        2.5134   23.4597    4.2330 H         1 RES1    0.0000
@<TRIPOS>BOND
     1    1    2 1
     2    3    7 2
     3    4    9 1
     4    5   14 1
     5    6    1 1
     6    7    6 1
     7    8    9 1
     8    9    6 1
     9   10   11 1
    10   12   10 1
    11   13   10 1
    12   14    9 1
    13   15   14 1
    14   16    4 1
    15   17    5 1
    16   18   16 1
    17   19   18 1
    18   20   18 1
    19   21   18 1
    20   22   23 1
    21   24    8 ar
    22   25   24 1
    23   26   14 1
    24   27   26 1
    25   28   26 1
    26   29   22 ar
    27   30   29 1
    28   31   17 ar
    29   32   31 1
    30   33   26 1
    31   34   33 ar
    32   35   34 1
    33   36   33 ar
    34   37   36 1
    35   38   34 ar
    36   39   38 1
    37   40   38 ar
    38   41   40 1
    39   42   36 ar
    40   43   42 1
    41    7   16 1
    42    8   17 ar
    43   10   16 1
    44   22   24 ar
    45   29   31 ar
    46   40   42 ar
@<TRIPOS>SUBSTRUCTURE
     1 RES1 1

@<TRIPOS>CRYSIN
  35.1530   35.1530    8.9968  90.0000  90.0000 120.0000 233 1

