# MOL2 file generated by ConQuest
# Please check atom types

@<TRIPOS>MOLECULE
REMYAJ
    55    58     1
SMALL
NO_CHARGES
****
Generated from CSD

@<TRIPOS>ATOM
      1 O1        12.6128    1.0857    4.5285 O.3       1 RES1    0.0000
      2 O2        14.0374    0.6996    8.6486 O.3       1 RES1    0.0000
      3 O3        13.8864    2.4676   10.0126 O.2       1 RES1    0.0000
      4 O4        17.9065   -0.1316    5.9859 O.2       1 RES1    0.0000
      5 O5        19.2280    1.5151    5.5015 O.2       1 RES1    0.0000
      6 O6        17.9171    5.3484   10.2537 O.2       1 RES1    0.0000
      7 O7        19.5722    5.0679    8.8506 O.2       1 RES1    0.0000
      8 N1        18.3441    1.0234    6.1792 N.pl3     1 RES1    0.0000
      9 N2        18.4761    4.7744    9.3371 N.pl3     1 RES1    0.0000
     10 C1        11.6180   -0.0054    4.4850 C.3       1 RES1    0.0000
     11 H1        12.1079   -0.8778    4.5220 H         1 RES1    0.0000
     12 C2        12.9423    1.3662    5.8968 C.3       1 RES1    0.0000
     13 H2        12.8284    2.3290    6.0966 H         1 RES1    0.0000
     14 H3        13.8779    1.1063    6.0944 H         1 RES1    0.0000
     15 C3        11.9991    0.5540    6.6700 C.2       1 RES1    0.0000
     16 C4        11.9025    0.0108    7.8559 C.2       1 RES1    0.0000
     17 C5        10.7245   -0.9465    7.9254 C.3       1 RES1    0.0000
     18 H4        10.0123   -0.5989    8.5205 H         1 RES1    0.0000
     19 H5        11.0074   -1.8406    8.2447 H         1 RES1    0.0000
     20 C6        10.2620   -0.9958    6.4789 C.2       1 RES1    0.0000
     21 C7        10.9156    0.1516    5.6970 C.3       1 RES1    0.0000
     22 H6        10.2611    0.9021    5.6036 H         1 RES1    0.0000
     23 C8         9.3838   -1.8308    6.0097 C.2       1 RES1    0.0000
     24 H7         8.9809   -2.4692    6.5875 H         1 RES1    0.0000
     25 H8         9.1435   -1.8032    5.0932 H         1 RES1    0.0000
     26 C9        12.7481    0.2161    9.0461 C.3       1 RES1    0.0000
     27 H9        12.3182    0.8696    9.6521 H         1 RES1    0.0000
     28 H10       12.8498   -0.6390    9.5348 H         1 RES1    0.0000
     29 C10       14.4976    1.8308    9.1960 C.2       1 RES1    0.0000
     30 C11       15.8574    2.1682    8.6943 C.ar      1 RES1    0.0000
     31 C12       16.4622    1.4155    7.7147 C.ar      1 RES1    0.0000
     32 H11       16.0175    0.6612    7.3455 H         1 RES1    0.0000
     33 C13       17.7221    1.7696    7.2738 C.ar      1 RES1    0.0000
     34 C14       18.4159    2.9019    7.7516 C.ar      1 RES1    0.0000
     35 H12       19.2567    3.1705    7.4020 H         1 RES1    0.0000
     36 C15       17.7958    3.5761    8.7464 C.ar      1 RES1    0.0000
     37 C16       16.5145    3.2712    9.2307 C.ar      1 RES1    0.0000
     38 H13       16.1064    3.8019    9.9062 H         1 RES1    0.0000
     39 C17       10.9153    0.0921    3.1232 C.3       1 RES1    0.0000
     40 H14       10.2018   -0.6081    3.1037 H         1 RES1    0.0000
     41 C18       11.9238   -0.2561    2.0286 C.3       1 RES1    0.0000
     42 H15       12.6667    0.3991    2.0525 H         1 RES1    0.0000
     43 H16       12.3044   -1.1512    2.2132 H         1 RES1    0.0000
     44 C19       11.3056   -0.2556    0.6407 C.3       1 RES1    0.0000
     45 H17       12.0072   -0.4419   -0.0304 H         1 RES1    0.0000
     46 H18       10.6286   -0.9769    0.5843 H         1 RES1    0.0000
     47 C20       10.6483    1.0743    0.3236 C.3       1 RES1    0.0000
     48 H19       11.3377    1.7842    0.2802 H         1 RES1    0.0000
     49 H20       10.2020    1.0234   -0.5582 H         1 RES1    0.0000
     50 C21        9.6318    1.4171    1.3900 C.3       1 RES1    0.0000
     51 H21        9.2528    2.3127    1.2076 H         1 RES1    0.0000
     52 H22        8.8926    0.7597    1.3640 H         1 RES1    0.0000
     53 C22       10.2655    1.4090    2.7605 C.3       1 RES1    0.0000
     54 H23        9.5708    1.6185    3.4338 H         1 RES1    0.0000
     55 H24       10.9476    2.1243    2.7996 H         1 RES1    0.0000
@<TRIPOS>BOND
     1    1   10 1
     2    2   26 1
     3    3   29 2
     4    4    8 2
     5    5    8 2
     6    6    9 2
     7    7    9 2
     8    8   33 1
     9    9   36 1
    10   10   11 1
    11   12    1 1
    12   13   12 1
    13   14   12 1
    14   15   12 1
    15   16   15 2
    16   17   16 1
    17   18   17 1
    18   19   17 1
    19   20   17 1
    20   21   10 1
    21   22   21 1
    22   23   20 2
    23   24   23 1
    24   25   23 1
    25   26   16 1
    26   27   26 1
    27   28   26 1
    28   29    2 1
    29   30   29 1
    30   31   30 ar
    31   32   31 1
    32   33   31 ar
    33   34   33 ar
    34   35   34 1
    35   36   34 ar
    36   37   30 ar
    37   38   37 1
    38   39   10 1
    39   40   39 1
    40   41   39 1
    41   42   41 1
    42   43   41 1
    43   44   41 1
    44   45   44 1
    45   46   44 1
    46   47   44 1
    47   48   47 1
    48   49   47 1
    49   50   47 1
    50   51   50 1
    51   52   50 1
    52   53   39 1
    53   54   53 1
    54   55   53 1
    55   15   21 1
    56   20   21 1
    57   36   37 ar
    58   50   53 1
@<TRIPOS>SUBSTRUCTURE
     1 RES1 1

@<TRIPOS>CRYSIN
  17.4890    5.4150   21.8050  90.0000  95.0800  90.0000  14 1

