# MOL2 file generated by ConQuest
# Please check atom types

@<TRIPOS>MOLECULE
RENFUN
    42    44     1
SMALL
NO_CHARGES
****
Generated from CSD

@<TRIPOS>ATOM
      1 O1         7.1655    7.6292    1.8301 O.2       1 RES1    0.0000
      2 O2         7.9607   12.1465    4.5896 O.2       1 RES1    0.0000
      3 N1         7.2628    8.6584    2.5891 N.3       1 RES1    0.0000
      4 C1         8.5579    8.8540    3.3087 C.3       1 RES1    0.0000
      5 C2         8.3116    9.7920    4.5005 C.3       1 RES1    0.0000
      6 H1         7.7369    9.3303    5.1616 H         1 RES1    0.0000
      7 H2         9.1771    9.9923    4.9384 H         1 RES1    0.0000
      8 C3         7.6570   11.0813    4.0981 C.2       1 RES1    0.0000
      9 C4         6.6039   10.9942    3.0156 C.3       1 RES1    0.0000
     10 H3         6.9750   11.3911    2.1882 H         1 RES1    0.0000
     11 H4         5.8307   11.5497    3.2887 H         1 RES1    0.0000
     12 C5         6.0912    9.5837    2.6853 C.3       1 RES1    0.0000
     13 C6         5.1277    9.0407    3.7664 C.3       1 RES1    0.0000
     14 H5         4.9633    8.0791    3.5998 H         1 RES1    0.0000
     15 H6         5.5570    9.1254    4.6548 H         1 RES1    0.0000
     16 C7         3.7858    9.7806    3.7872 C.3       1 RES1    0.0000
     17 H7         3.1838    9.3446    4.4410 H         1 RES1    0.0000
     18 H8         3.9328   10.7137    4.0823 H         1 RES1    0.0000
     19 C8         3.1206    9.7865    2.4199 C.3       1 RES1    0.0000
     20 H9         2.2922   10.3271    2.4581 H         1 RES1    0.0000
     21 H10        2.8715    8.8611    2.1703 H         1 RES1    0.0000
     22 C9         4.0564   10.3641    1.3596 C.3       1 RES1    0.0000
     23 H11        4.2405   11.3151    1.5629 H         1 RES1    0.0000
     24 H12        3.6203   10.3183    0.4719 H         1 RES1    0.0000
     25 C10        5.3743    9.5840    1.3241 C.3       1 RES1    0.0000
     26 H13        5.9708    9.9857    0.6434 H         1 RES1    0.0000
     27 H14        5.1911    8.6496    1.0539 H         1 RES1    0.0000
     28 C11        9.0683    7.4842    3.7787 C.3       1 RES1    0.0000
     29 H15        8.4553    7.1307    4.4717 H         1 RES1    0.0000
     30 H16        9.0565    6.8554    3.0147 H         1 RES1    0.0000
     31 C12       10.4863    7.5479    4.3514 C.3       1 RES1    0.0000
     32 H17       10.4893    8.1132    5.1637 H         1 RES1    0.0000
     33 H18       10.7799    6.6384    4.6093 H         1 RES1    0.0000
     34 C13       11.4612    8.1257    3.3253 C.3       1 RES1    0.0000
     35 H19       12.3605    8.2046    3.7321 H         1 RES1    0.0000
     36 H20       11.5275    7.5118    2.5512 H         1 RES1    0.0000
     37 C14       10.9974    9.4966    2.8481 C.3       1 RES1    0.0000
     38 H21       11.6061    9.8182    2.1375 H         1 RES1    0.0000
     39 H22       11.0434   10.1377    3.6019 H         1 RES1    0.0000
     40 C15        9.5664    9.4576    2.3067 C.3       1 RES1    0.0000
     41 H23        9.5520    8.9228    1.4740 H         1 RES1    0.0000
     42 H24        9.2831   10.3789    2.0793 H         1 RES1    0.0000
@<TRIPOS>BOND
     1    1    3 1
     2    2    8 2
     3    3    4 1
     4    4    5 1
     5    5    6 1
     6    7    5 1
     7    8    5 1
     8    9    8 1
     9   10    9 1
    10   11    9 1
    11   12    3 1
    12   13   12 1
    13   14   13 1
    14   15   13 1
    15   16   13 1
    16   17   16 1
    17   18   16 1
    18   19   16 1
    19   20   19 1
    20   21   19 1
    21   22   19 1
    22   23   22 1
    23   24   22 1
    24   25   12 1
    25   26   25 1
    26   27   25 1
    27   28    4 1
    28   29   28 1
    29   30   28 1
    30   31   28 1
    31   32   31 1
    32   33   31 1
    33   34   31 1
    34   35   34 1
    35   36   34 1
    36   37   34 1
    37   38   37 1
    38   39   37 1
    39   40    4 1
    40   41   40 1
    41   42   40 1
    42    9   12 1
    43   22   25 1
    44   37   40 1
@<TRIPOS>SUBSTRUCTURE
     1 RES1 1

@<TRIPOS>CRYSIN
  11.5624   11.0144   10.9255  90.0000 104.4170  90.0000  14 1

