# MOL2 file generated by ConQuest
# Please check atom types

@<TRIPOS>MOLECULE
RENMEF
    66    71     1
SMALL
NO_CHARGES
****
Generated from CSD

@<TRIPOS>ATOM
      1 O1         8.7043    7.6438    4.9647 O.3       1 RES1    0.0000
      2 O2        17.4726    8.2664    7.7143 O.2       1 RES1    0.0000
      3 N1        10.9219    8.0745    5.7542 N.3       1 RES1    0.0000
      4 O3         8.4015    5.6366    4.0073 O.2       1 RES1    0.0000
      5 O4        10.3302    7.8387    3.4502 O.3       1 RES1    0.0000
      6 O5        10.7880    8.5900    1.0212 O.2       1 RES1    0.0000
      7 O6        14.0293    4.9384    3.1249 O.2       1 RES1    0.0000
      8 O7         9.6305    6.3807    7.4980 O.3       1 RES1    0.0000
      9 O8        10.4374    4.5074    6.5944 O.2       1 RES1    0.0000
     10 O9        16.9648    6.7535    9.0857 O.2       1 RES1    0.0000
     11 C1        10.0636    7.5126    4.7840 C.3       1 RES1    0.0000
     12 N2        16.7502    7.3911    8.0840 N.pl3     1 RES1    0.0000
     13 C2        15.5715    7.0512    7.2848 C.ar      1 RES1    0.0000
     14 C3        14.8953    5.8871    7.5455 C.ar      1 RES1    0.0000
     15 H1        15.1614    5.3317    8.2426 H         1 RES1    0.0000
     16 C4        13.8186    5.5558    6.7623 C.ar      1 RES1    0.0000
     17 H2        13.3590    4.7641    6.9253 H         1 RES1    0.0000
     18 C5        13.4041    6.3890    5.7248 C.ar      1 RES1    0.0000
     19 C6        12.1826    6.0228    4.9024 C.3       1 RES1    0.0000
     20 H3        12.1059    5.0462    4.9061 H         1 RES1    0.0000
     21 C7        10.9280    6.5846    5.5545 C.3       1 RES1    0.0000
     22 C8         7.9153    6.6457    4.4194 C.2       1 RES1    0.0000
     23 C9         6.4709    7.0389    4.4474 C.3       1 RES1    0.0000
     24 H4         6.2054    7.1389    5.3853 H         1 RES1    0.0000
     25 C10        6.2378    8.3996    3.7407 C.3       1 RES1    0.0000
     26 H5         5.3472    8.7229    3.9517 H         1 RES1    0.0000
     27 H6         6.8778    9.0483    4.0720 H         1 RES1    0.0000
     28 C11        6.3771    8.2808    2.2854 C.3       1 RES1    0.0000
     29 H7         7.2893    8.0331    2.0685 H         1 RES1    0.0000
     30 H8         6.1954    9.1394    1.8733 H         1 RES1    0.0000
     31 C12        5.4360    7.2511    1.7294 C.3       1 RES1    0.0000
     32 H9         5.5583    7.1867    0.7690 H         1 RES1    0.0000
     33 H10        4.5212    7.5255    1.8970 H         1 RES1    0.0000
     34 C13       15.1861    7.9128    6.2679 C.ar      1 RES1    0.0000
     35 H11       15.6551    8.6996    6.1070 H         1 RES1    0.0000
     36 C14       14.0958    7.5770    5.5028 C.ar      1 RES1    0.0000
     37 H12       13.8150    8.1508    4.8272 H         1 RES1    0.0000
     38 C15        5.5923    5.9726    3.8294 C.3       1 RES1    0.0000
     39 C16        5.6759    5.9226    2.3485 C.3       1 RES1    0.0000
     40 H13        5.0205    5.2917    2.0133 H         1 RES1    0.0000
     41 H14        6.5552    5.6049    2.0902 H         1 RES1    0.0000
     42 C17       11.4312    7.3058    2.8774 C.2       1 RES1    0.0000
     43 C18       11.5757    7.7957    1.4708 C.2       1 RES1    0.0000
     44 C19       12.7229    7.2641    0.7006 C.ar      1 RES1    0.0000
     45 C20       13.5599    6.3094    1.2524 C.ar      1 RES1    0.0000
     46 C21       13.3524    5.8380    2.6558 C.2       1 RES1    0.0000
     47 C22       12.2869    6.4646    3.4621 C.2       1 RES1    0.0000
     48 C23       14.5883    5.7660    0.4932 C.ar      1 RES1    0.0000
     49 H15       15.1433    5.1095    0.8479 H         1 RES1    0.0000
     50 C24       14.7693    6.2281   -0.8207 C.ar      1 RES1    0.0000
     51 H16       15.4626    5.8826   -1.3350 H         1 RES1    0.0000
     52 C25       13.9479    7.1745   -1.3537 C.ar      1 RES1    0.0000
     53 H17       14.0817    7.4644   -2.2263 H         1 RES1    0.0000
     54 C26       12.9269    7.6999   -0.6123 C.ar      1 RES1    0.0000
     55 H18       12.3697    8.3463   -0.9800 H         1 RES1    0.0000
     56 C27       10.3092    5.6878    6.5919 C.2       1 RES1    0.0000
     57 C28        8.9717    5.6105    8.5598 C.3       1 RES1    0.0000
     58 H19        9.5460    4.8785    8.8361 H         1 RES1    0.0000
     59 H20        8.8198    6.1814    9.3291 H         1 RES1    0.0000
     60 C29        7.7399    5.1007    8.0966 C.3       1 RES1    0.0000
     61 H21        7.1328    5.8260    7.9389 H         1 RES1    0.0000
     62 H22        7.3695    4.5108    8.7572 H         1 RES1    0.0000
     63 H23        7.8818    4.6164    7.2783 H         1 RES1    0.0000
     64 H24       10.4757    8.2975    6.3890 H         1 RES1    0.0000
     65 H25        5.7680    5.0873    4.1804 H         1 RES1    0.0000
     66 H26        4.6362    6.2536    3.8117 H         1 RES1    0.0000
@<TRIPOS>BOND
     1    1   11 1
     2    2   12 2
     3    3   11 1
     4    4   22 2
     5    5   11 1
     6    6   43 2
     7    7   46 2
     8    8   56 1
     9    9   56 2
    10   10   12 2
    11   11   21 1
    12   12   13 1
    13   13   14 ar
    14   14   15 1
    15   16   14 ar
    16   17   16 1
    17   18   16 ar
    18   19   18 1
    19   20   19 1
    20   21    3 1
    21   22    1 1
    22   23   22 1
    23   24   23 1
    24   25   23 1
    25   26   25 1
    26   27   25 1
    27   28   25 1
    28   29   28 1
    29   30   28 1
    30   31   28 1
    31   32   31 1
    32   33   31 1
    33   34   13 ar
    34   35   34 1
    35   36   18 ar
    36   37   36 1
    37   38   23 1
    38   39   31 1
    39   40   39 1
    40   41   39 1
    41   42    5 1
    42   43   42 1
    43   44   43 1
    44   45   44 ar
    45   46   45 1
    46   47   19 1
    47   48   45 ar
    48   49   48 1
    49   50   48 ar
    50   51   50 1
    51   52   50 ar
    52   53   52 1
    53   54   44 ar
    54   55   54 1
    55   56   21 1
    56   57    8 1
    57   58   57 1
    58   59   57 1
    59   60   57 1
    60   61   60 1
    61   62   60 1
    62   63   60 1
    63   64    3 1
    64   65   38 1
    65   66   38 1
    66   19   21 1
    67   34   36 ar
    68   38   39 1
    69   42   47 2
    70   46   47 1
    71   52   54 ar
@<TRIPOS>SUBSTRUCTURE
     1 RES1 1

@<TRIPOS>CRYSIN
  12.2536   11.1077   19.8629  90.0000  96.9000  90.0000  14 1

