# MOL2 file generated by ConQuest
# Please check atom types

@<TRIPOS>MOLECULE
RENMAB
    52    56     1
SMALL
NO_CHARGES
****
Generated from CSD

@<TRIPOS>ATOM
      1 O1        11.5011    1.3995    3.3200 O.2       1 RES1    0.0000
      2 O2         9.5795    4.5777   10.3780 O.3       1 RES1    0.0000
      3 O3        11.5217    5.0819   11.4483 O.3       1 RES1    0.0000
      4 N1        11.7046    2.8791   11.6842 N.am      1 RES1    0.0000
      5 H1        11.7247    2.1125   12.0736 H         1 RES1    0.0000
      6 O4        12.1305    4.2811   13.4683 O.2       1 RES1    0.0000
      7 O5         8.8437   -0.0806   10.4681 O.2       1 RES1    0.0000
      8 C1        10.5885    2.0072    9.6420 C.3       1 RES1    0.0000
      9 H2        10.9057    1.1231    9.9230 H         1 RES1    0.0000
     10 O6         9.6009    2.4059    3.3084 O.2       1 RES1    0.0000
     11 C2         8.8220    3.4646   10.5834 C.2       1 RES1    0.0000
     12 C3        10.0146    9.4901    9.0489 C.ar      1 RES1    0.0000
     13 H3         9.7326   10.3758    9.0128 H         1 RES1    0.0000
     14 C4        11.2918    9.1889    9.4485 C.ar      1 RES1    0.0000
     15 H4        11.8720    9.8723    9.6985 H         1 RES1    0.0000
     16 C5        11.7230    7.8667    9.4812 C.ar      1 RES1    0.0000
     17 H5        12.5895    7.6736    9.7590 H         1 RES1    0.0000
     18 C6        10.8764    6.8295    9.1050 C.ar      1 RES1    0.0000
     19 C7        11.3949    5.4016    9.0679 C.3       1 RES1    0.0000
     20 H6        12.3633    5.4291    9.0227 H         1 RES1    0.0000
     21 H7        11.0766    4.9819    8.2534 H         1 RES1    0.0000
     22 C8        10.9933    4.5297   10.2463 C.3       1 RES1    0.0000
     23 C9        11.5487    3.0610   10.2571 C.3       1 RES1    0.0000
     24 C10       10.5788    2.0241    8.1197 C.ar      1 RES1    0.0000
     25 C11        9.5779    2.6716    7.4024 C.ar      1 RES1    0.0000
     26 H8         8.9011    3.1159    7.8594 H         1 RES1    0.0000
     27 C12        9.5764    2.6626    6.0137 C.ar      1 RES1    0.0000
     28 H9         8.9048    3.0948    5.5360 H         1 RES1    0.0000
     29 C13       10.5943    1.9981    5.3558 C.ar      1 RES1    0.0000
     30 N2        10.5681    1.9430    3.8900 N.pl3     1 RES1    0.0000
     31 C14       11.5904    1.3578    7.4174 C.ar      1 RES1    0.0000
     32 H10       12.2585    0.9136    7.8880 H         1 RES1    0.0000
     33 C15       11.6123    1.3508    6.0308 C.ar      1 RES1    0.0000
     34 H11       12.2944    0.9207    5.5668 H         1 RES1    0.0000
     35 C16        9.2398    2.2200   10.2695 C.2       1 RES1    0.0000
     36 C17       11.8140    4.0602   12.3314 C.2       1 RES1    0.0000
     37 C18       12.8879    3.0252    9.6131 C.1       1 RES1    0.0000
     38 N3        13.9366    3.0115    9.1675 N.1       1 RES1    0.0000
     39 C19        9.1495    8.4709    8.7012 C.ar      1 RES1    0.0000
     40 H12        8.2745    8.6700    8.4559 H         1 RES1    0.0000
     41 C20        9.5837    7.1414    8.7173 C.ar      1 RES1    0.0000
     42 H13        9.0002    6.4624    8.4658 H         1 RES1    0.0000
     43 C21        7.4898    3.8042   11.1528 C.3       1 RES1    0.0000
     44 H14        7.1557    4.6122   10.7341 H         1 RES1    0.0000
     45 H15        7.5773    3.9715   12.1044 H         1 RES1    0.0000
     46 C22        6.5004    2.6696   10.9262 C.3       1 RES1    0.0000
     47 H16        5.7037    2.8272   11.4572 H         1 RES1    0.0000
     48 H17        6.2391    2.6529    9.9923 H         1 RES1    0.0000
     49 C23        7.0976    1.3243   11.3047 C.3       1 RES1    0.0000
     50 H18        7.2100    1.2886   12.2673 H         1 RES1    0.0000
     51 H19        6.4781    0.6214   11.0522 H         1 RES1    0.0000
     52 C24        8.4283    1.0638   10.6464 C.2       1 RES1    0.0000
@<TRIPOS>BOND
     1    1   30 2
     2    2   11 1
     3    3   22 1
     4    4    5 1
     5    6   36 2
     6    7   52 2
     7    8    9 1
     8   10   30 2
     9   11   35 2
    10   12   13 1
    11   14   12 ar
    12   15   14 1
    13   16   14 ar
    14   17   16 1
    15   18   16 ar
    16   19   18 1
    17   20   19 1
    18   21   19 1
    19   22    2 1
    20   23    4 1
    21   24    8 1
    22   25   24 ar
    23   26   25 1
    24   27   25 ar
    25   28   27 1
    26   29   27 ar
    27   30   29 1
    28   31   24 ar
    29   32   31 1
    30   33   29 ar
    31   34   33 1
    32   35    8 1
    33   36    3 1
    34   37   23 1
    35   38   37 3
    36   39   12 ar
    37   40   39 1
    38   41   18 ar
    39   42   41 1
    40   43   11 1
    41   44   43 1
    42   45   43 1
    43   46   43 1
    44   47   46 1
    45   48   46 1
    46   49   46 1
    47   50   49 1
    48   51   49 1
    49   52   35 1
    50    4   36 1
    51    8   23 1
    52   19   22 1
    53   22   23 1
    54   31   33 ar
    55   39   41 ar
    56   49   52 1
@<TRIPOS>SUBSTRUCTURE
     1 RES1 1

@<TRIPOS>CRYSIN
  10.7380   17.6040   11.0070  90.0000  90.7800  90.0000 231 1

