# MOL2 file generated by ConQuest
# Please check atom types

@<TRIPOS>MOLECULE
REPTAH
    37    38     1
SMALL
NO_CHARGES
****
Generated from CSD

@<TRIPOS>ATOM
      1 O1        14.9346    5.3256   10.0195 O.2       1 RES1    0.0000
      2 O2        10.9020   10.6009    6.6026 O.2       1 RES1    0.0000
      3 N1        13.9578    5.6858    9.2760 N.3       1 RES1    0.0000
      4 N2         9.9854    8.6487    5.9132 N.am      1 RES1    0.0000
      5 C1        12.4653    6.9714    8.1125 C.ar      1 RES1    0.0000
      6 C2        11.7914    8.0145    7.5037 C.ar      1 RES1    0.0000
      7 C3        10.6995    7.6918    6.6762 C.ar      1 RES1    0.0000
      8 C4        10.3163    6.3585    6.5427 C.ar      1 RES1    0.0000
      9 C5        11.0027    5.3341    7.1642 C.ar      1 RES1    0.0000
     10 C6        12.1044    5.6628    7.9491 C.ar      1 RES1    0.0000
     11 C7        13.0337    4.6982    8.6500 C.3       1 RES1    0.0000
     12 C8        13.6947    7.1241    8.9929 C.3       1 RES1    0.0000
     13 C9        10.1369    9.9880    5.8706 C.2       1 RES1    0.0000
     14 C10        9.3216   10.6777    4.8256 C.3       1 RES1    0.0000
     15 C11       13.8191    3.8275    7.6890 C.3       1 RES1    0.0000
     16 C12       12.3540    3.8651    9.7272 C.3       1 RES1    0.0000
     17 C13       13.4199    7.8599   10.3015 C.3       1 RES1    0.0000
     18 C14       14.8879    7.7268    8.2610 C.3       1 RES1    0.0000
     19 H1        12.0324    8.9193    7.6476 H         1 RES1    0.0000
     20 H2         9.5517    6.1562    6.0053 H         1 RES1    0.0000
     21 H3        10.7326    4.4242    7.0387 H         1 RES1    0.0000
     22 H4         9.3597    8.1800    5.3228 H         1 RES1    0.0000
     23 H5         9.8802   11.1147    4.1995 H         1 RES1    0.0000
     24 H6         8.7404   11.3247    5.2319 H         1 RES1    0.0000
     25 H7         8.7755   10.0383    4.3664 H         1 RES1    0.0000
     26 H8        13.2405    3.1634    7.3150 H         1 RES1    0.0000
     27 H9        14.5211    3.3965    8.1597 H         1 RES1    0.0000
     28 H10       14.1746    4.3593    6.9939 H         1 RES1    0.0000
     29 H11       13.0010    3.4443   10.2692 H         1 RES1    0.0000
     30 H12       11.8081    3.1848    9.3106 H         1 RES1    0.0000
     31 H13       11.7910    4.4165   10.2543 H         1 RES1    0.0000
     32 H14       13.3389    8.7963   10.1208 H         1 RES1    0.0000
     33 H15       14.1284    7.7140   10.9022 H         1 RES1    0.0000
     34 H16       12.6034    7.5458   10.6686 H         1 RES1    0.0000
     35 H17       14.9517    7.3307    7.3921 H         1 RES1    0.0000
     36 H18       15.6755    7.5706    8.7443 H         1 RES1    0.0000
     37 H19       14.7504    8.6675    8.1539 H         1 RES1    0.0000
@<TRIPOS>BOND
     1    1    3 1
     2    2   13 2
     3    3   11 1
     4    4    7 1
     5    5    6 ar
     6    6    7 ar
     7    7    8 ar
     8    8    9 ar
     9    9   10 ar
    10   10    5 ar
    11   11   10 1
    12   12    3 1
    13   13    4 1
    14   14   13 1
    15   15   11 1
    16   16   11 1
    17   17   12 1
    18   18   12 1
    19   19    6 1
    20   20    8 1
    21   21    9 1
    22   22    4 1
    23   23   14 1
    24   24   14 1
    25   25   14 1
    26   26   15 1
    27   27   15 1
    28   28   15 1
    29   29   16 1
    30   30   16 1
    31   31   16 1
    32   32   17 1
    33   33   17 1
    34   34   17 1
    35   35   18 1
    36   36   18 1
    37   37   18 1
    38    5   12 1
@<TRIPOS>SUBSTRUCTURE
     1 RES1 1

@<TRIPOS>CRYSIN
  14.3250    8.5360   11.5130  90.0000  91.5600  90.0000   9 1

