# MOL2 file generated by ConQuest
# Please check atom types

@<TRIPOS>MOLECULE
REPXOA
    19    20     1
SMALL
NO_CHARGES
****
Generated from CSD

@<TRIPOS>ATOM
      1 O1         0.0536    2.5696   -1.8995 O.2       1 RES1    0.0000
      2 N1         1.1472    0.9225   -0.9121 N.ar      1 RES1    0.0000
      3 C1         2.1577    0.5654   -0.0656 C.ar      1 RES1    0.0000
      4 N2         0.9496    2.2141   -1.0935 N.pl3     1 RES1    0.0000
      5 C2         1.7070    3.1823   -0.4212 C.ar      1 RES1    0.0000
      6 N3         2.9516    1.3696    0.6041 N.ar      1 RES1    0.0000
      7 C3         2.7169    2.7073    0.4337 C.ar      1 RES1    0.0000
      8 C4         3.4951    3.6557    1.1233 C.ar      1 RES1    0.0000
      9 H1         4.1891    3.3684    1.7045 H         1 RES1    0.0000
     10 C5         3.2496    4.9975    0.9550 C.ar      1 RES1    0.0000
     11 H2         3.7714    5.6338    1.4303 H         1 RES1    0.0000
     12 C6         2.2343    5.4395    0.0873 C.ar      1 RES1    0.0000
     13 H3         2.0803    6.3713   -0.0156 H         1 RES1    0.0000
     14 C7         1.4666    4.5501   -0.6094 C.ar      1 RES1    0.0000
     15 H4         0.7896    4.8497   -1.2045 H         1 RES1    0.0000
     16 C8         2.3432   -0.9141    0.0662 C.3       1 RES1    0.0000
     17 H5         3.3005   -1.1242    0.0648 H         1 RES1    0.0000
     18 H6         1.9082   -1.3658   -0.6866 H         1 RES1    0.0000
     19 H7         1.9426   -1.2196    0.9069 H         1 RES1    0.0000
@<TRIPOS>BOND
     1    1    4 1
     2    2    3 ar
     3    3    6 ar
     4    4    2 ar
     5    5    4 ar
     6    6    7 ar
     7    7    5 ar
     8    8    7 ar
     9    9    8 1
    10   10    8 ar
    11   11   10 1
    12   12   10 ar
    13   13   12 1
    14   14    5 ar
    15   15   14 1
    16   16    3 1
    17   17   16 1
    18   18   16 1
    19   19   16 1
    20   12   14 ar
@<TRIPOS>SUBSTRUCTURE
     1 RES1 1

@<TRIPOS>CRYSIN
   9.0466   10.5959    7.8981  90.0000  98.4940  90.0000  14 1

