# MOL2 file generated by ConQuest
# Please check atom types

@<TRIPOS>MOLECULE
REQZIW
    27    29     1
SMALL
NO_CHARGES
****
Generated from CSD

@<TRIPOS>ATOM
      1 O1         2.6926    0.0944    2.8850 O.3       1 RES1    0.0000
      2 N1         3.8589    0.1939    2.0902 N.2       1 RES1    0.0000
      3 N2         7.0835    3.1291    0.5649 N.3       1 RES1    0.0000
      4 N3         6.1581    3.0599    2.5987 N.2       1 RES1    0.0000
      5 C1         3.9006    1.4327    1.6995 C.2       1 RES1    0.0000
      6 C2         2.8086    2.1670    2.1991 C.2       1 RES1    0.0000
      7 C3         2.0903    1.2946    2.9140 C.2       1 RES1    0.0000
      8 C4         4.9777    1.8462    0.7536 C.3       1 RES1    0.0000
      9 C5         6.0545    2.6903    1.3444 C.2       1 RES1    0.0000
     10 C6         7.9341    3.8349    1.3955 C.ar      1 RES1    0.0000
     11 C7         9.1350    4.4897    1.1474 C.ar      1 RES1    0.0000
     12 C8         9.7213    5.1251    2.2203 C.ar      1 RES1    0.0000
     13 C9         9.1372    5.1095    3.4839 C.ar      1 RES1    0.0000
     14 C10        7.9493    4.4466    3.7293 C.ar      1 RES1    0.0000
     15 C11        7.3456    3.7978    2.6549 C.ar      1 RES1    0.0000
     16 C12        0.8134    1.3693    3.6676 C.3       1 RES1    0.0000
     17 H1         2.6280    3.0959    2.0898 H         1 RES1    0.0000
     18 H2         7.2100    2.9562   -0.3962 H         1 RES1    0.0000
     19 H3         9.5292    4.5207    0.2883 H         1 RES1    0.0000
     20 H4        10.5819    5.5985    2.0805 H         1 RES1    0.0000
     21 H5         9.5560    5.5701    4.2392 H         1 RES1    0.0000
     22 H6         7.5301    4.4580    4.6465 H         1 RES1    0.0000
     23 H7         5.3772    1.0304    0.3460 H         1 RES1    0.0000
     24 H8         4.5951    2.3628    0.0419 H         1 RES1    0.0000
     25 H9         0.9600    1.0174    4.5814 H         1 RES1    0.0000
     26 H10        0.2233    0.8563    3.2905 H         1 RES1    0.0000
     27 H11        0.5058    2.3190    3.7025 H         1 RES1    0.0000
@<TRIPOS>BOND
     1    1    2 1
     2    2    5 2
     3    3    9 1
     4    4    9 2
     5    5    6 1
     6    6    7 2
     7    7    1 1
     8    8    5 1
     9    9    8 1
    10   10    3 1
    11   11   10 ar
    12   12   11 ar
    13   13   12 ar
    14   14   13 ar
    15   15    4 1
    16   16    7 1
    17   17    6 1
    18   18    3 1
    19   19   11 1
    20   20   12 1
    21   21   13 1
    22   22   14 1
    23   23    8 1
    24   24    8 1
    25   25   16 1
    26   26   16 1
    27   27   16 1
    28   10   15 ar
    29   14   15 ar
@<TRIPOS>SUBSTRUCTURE
     1 RES1 1

@<TRIPOS>CRYSIN
   9.5437   11.8437   10.1523  90.0000 113.6380  90.0000  14 1

