# MOL2 file generated by ConQuest
# Please check atom types

@<TRIPOS>MOLECULE
RERDOJ01
    71    75     1
SMALL
NO_CHARGES
****
Generated from CSD

@<TRIPOS>ATOM
      1 O1         5.0214    8.4165    4.4314 O.3       1 RES1    0.0000
      2 O2         4.1721    8.0020    6.5289 O.3       1 RES1    0.0000
      3 N1         4.3218   11.2595    6.9195 N.2       1 RES1    0.0000
      4 O3         7.0939    8.5089    2.7958 O.3       1 RES1    0.0000
      5 N2         3.5543   10.6505    7.8875 N.pl3     1 RES1    0.0000
      6 C1         4.1710   10.8649    5.6950 C.2       1 RES1    0.0000
      7 C2         7.3894    8.6600    5.0973 C.ar      1 RES1    0.0000
      8 C3         3.8395   10.9301    9.1830 C.ar      1 RES1    0.0000
      9 C4         5.5528    8.1498    6.5991 C.ar      1 RES1    0.0000
     10 C5         6.0470    8.4034    5.3447 C.ar      1 RES1    0.0000
     11 C6         5.0850   11.4948    4.7126 C.ar      1 RES1    0.0000
     12 C7         3.1920    9.8038    5.2351 C.3       1 RES1    0.0000
     13 H1         2.8699   10.0364    4.3509 H         1 RES1    0.0000
     14 H2         2.4295    9.7991    5.8347 H         1 RES1    0.0000
     15 N3         2.0582    9.3779   10.0411 N.pl3     1 RES1    0.0000
     16 O4         1.7645    9.0576    8.8792 O.2       1 RES1    0.0000
     17 C8         6.3497    8.0874    7.7233 C.ar      1 RES1    0.0000
     18 C9         8.2453    8.6038    6.2253 C.ar      1 RES1    0.0000
     19 C10        3.1576   10.2917   10.2564 C.ar      1 RES1    0.0000
     20 O5         8.8562    9.6744    3.4998 O.2       1 RES1    0.0000
     21 C11        4.8327   11.8656    9.5371 C.ar      1 RES1    0.0000
     22 H3         5.2625   12.3453    8.8667 H         1 RES1    0.0000
     23 C12        7.7167    8.3062    7.4616 C.ar      1 RES1    0.0000
     24 H4         8.3061    8.2462    8.1783 H         1 RES1    0.0000
     25 O6         1.4475    8.9516   10.9978 O.2       1 RES1    0.0000
     26 C13        4.8248   11.4834    3.3492 C.ar      1 RES1    0.0000
     27 H5         4.0445   11.0876    3.0334 H         1 RES1    0.0000
     28 C14        5.1787   12.0877   10.8378 C.ar      1 RES1    0.0000
     29 H6         5.8326   12.7159   11.0454 H         1 RES1    0.0000
     30 C15        4.5559   11.3753   11.8472 C.ar      1 RES1    0.0000
     31 C16        3.5358   10.5054   11.5688 C.ar      1 RES1    0.0000
     32 H7         3.0994   10.0610   12.2598 H         1 RES1    0.0000
     33 C17        7.8808    9.0107    3.7437 C.2       1 RES1    0.0000
     34 C18        6.2742   12.0795    5.1463 C.ar      1 RES1    0.0000
     35 H8         6.4749   12.0888    6.0538 H         1 RES1    0.0000
     36 C19        7.1521   12.6425    4.2542 C.ar      1 RES1    0.0000
     37 H9         7.9393   13.0328    4.5623 H         1 RES1    0.0000
     38 C20        4.6925    7.1157    9.3295 C.ar      1 RES1    0.0000
     39 H10        4.2074    6.7800    8.6102 H         1 RES1    0.0000
     40 C21        5.8445    7.8490    9.0949 C.ar      1 RES1    0.0000
     41 C22        5.7079   12.0512    2.4597 C.ar      1 RES1    0.0000
     42 H11        5.5181   12.0439    1.5496 H         1 RES1    0.0000
     43 C23        6.8744   12.6325    2.9160 C.ar      1 RES1    0.0000
     44 H12        7.4696   13.0152    2.3127 H         1 RES1    0.0000
     45 C24        4.9438    7.3741   11.6912 C.ar      1 RES1    0.0000
     46 H13        4.6446    7.2117   12.5563 H         1 RES1    0.0000
     47 C25        6.5227    8.3504   10.2061 C.ar      1 RES1    0.0000
     48 H14        7.2931    8.8563   10.0837 H         1 RES1    0.0000
     49 N4         4.9894   11.5373   13.2305 N.pl3     1 RES1    0.0000
     50 O7         4.4508   10.8894   14.0997 O.2       1 RES1    0.0000
     51 C26        4.2536    6.8757   10.6174 C.ar      1 RES1    0.0000
     52 H15        3.4837    6.3733   10.7566 H         1 RES1    0.0000
     53 C27        9.7373    8.8556    6.1118 C.3       1 RES1    0.0000
     54 H16        9.8963    9.7980    6.0190 H         1 RES1    0.0000
     55 H17       10.0817    8.3954    5.3435 H         1 RES1    0.0000
     56 H18       10.1764    8.5326    6.9021 H         1 RES1    0.0000
     57 C28        7.4153    8.8113    1.4193 C.3       1 RES1    0.0000
     58 H19        8.2805    8.4400    1.1834 H         1 RES1    0.0000
     59 H20        7.4409    9.7705    1.2788 H         1 RES1    0.0000
     60 C29        6.0684    8.1078   11.4837 C.ar      1 RES1    0.0000
     61 H21        6.5358    8.4493   12.2121 H         1 RES1    0.0000
     62 O8         5.8871   12.3378   13.4525 O.2       1 RES1    0.0000
     63 C30        6.3416    8.1928    0.6007 C.3       1 RES1    0.0000
     64 H22        6.2102    7.2829    0.8779 H         1 RES1    0.0000
     65 H23        6.5939    8.2111   -0.3262 H         1 RES1    0.0000
     66 H24        5.5258    8.6843    0.7193 H         1 RES1    0.0000
     67 C31        3.7959    8.3950    5.1885 C.3       1 RES1    0.0000
     68 C32        2.8722    7.3701    4.5945 C.3       1 RES1    0.0000
     69 H25        3.3301    6.5295    4.5262 H         1 RES1    0.0000
     70 H26        2.5966    7.6567    3.7205 H         1 RES1    0.0000
     71 H27        2.1011    7.2705    5.1566 H         1 RES1    0.0000
@<TRIPOS>BOND
     1    1   10 1
     2    2    9 1
     3    3    5 1
     4    4   33 1
     5    5    8 1
     6    6    3 2
     7    7   10 ar
     8    8   19 ar
     9    9   10 ar
    10   11    6 1
    11   12    6 1
    12   13   12 1
    13   14   12 1
    14   15   16 2
    15   17    9 ar
    16   18    7 ar
    17   19   15 1
    18   20   33 2
    19   21    8 ar
    20   22   21 1
    21   23   17 ar
    22   24   23 1
    23   25   15 2
    24   26   11 ar
    25   27   26 1
    26   28   21 ar
    27   29   28 1
    28   30   28 ar
    29   31   19 ar
    30   32   31 1
    31   33    7 1
    32   34   11 ar
    33   35   34 1
    34   36   34 ar
    35   37   36 1
    36   38   39 1
    37   40   17 1
    38   41   26 ar
    39   42   41 1
    40   43   36 ar
    41   44   43 1
    42   45   46 1
    43   47   40 ar
    44   48   47 1
    45   49   30 1
    46   50   49 2
    47   51   38 ar
    48   52   51 1
    49   53   18 1
    50   54   53 1
    51   55   53 1
    52   56   53 1
    53   57    4 1
    54   58   57 1
    55   59   57 1
    56   60   45 ar
    57   61   60 1
    58   62   49 2
    59   63   57 1
    60   64   63 1
    61   65   63 1
    62   66   63 1
    63   67    1 1
    64   68   67 1
    65   69   68 1
    66   70   68 1
    67   71   68 1
    68    2   67 1
    69   12   67 1
    70   18   23 ar
    71   30   31 ar
    72   38   40 ar
    73   41   43 ar
    74   45   51 ar
    75   47   60 ar
@<TRIPOS>SUBSTRUCTURE
     1 RES1 1

@<TRIPOS>CRYSIN
  10.0850   11.3020   13.2690  80.7600  78.8100  82.3000   2 1

