# MOL2 file generated by ConQuest
# Please check atom types

@<TRIPOS>MOLECULE
RERWAO
    69    73     1
SMALL
NO_CHARGES
****
Generated from CSD

@<TRIPOS>ATOM
      1 N1         3.7848    4.5465    2.8678 N.3       1 RES1    0.0000
      2 O1         2.8993    5.2211    3.7953 O.3       1 RES1    0.0000
      3 O2         3.0434    3.2956    2.8013 O.3       1 RES1    0.0000
      4 O3         8.2365    3.0893    2.3691 O.3       1 RES1    0.0000
      5 O4         7.1752    2.2163    4.1558 O.2       1 RES1    0.0000
      6 O5         6.0852    3.6211    0.1484 O.3       1 RES1    0.0000
      7 O6         6.6350    5.4394    1.3150 O.2       1 RES1    0.0000
      8 O7        10.1698    4.1977    7.4240 O.3       1 RES1    0.0000
      9 C1         5.0634    4.2368    3.5762 C.3       1 RES1    0.0000
     10 H1         4.8673    3.6348    4.3501 H         1 RES1    0.0000
     11 C2         5.7242    5.5336    4.1049 C.3       1 RES1    0.0000
     12 H2         6.0578    6.0511    3.3166 H         1 RES1    0.0000
     13 C3         4.7117    6.4187    4.8561 C.3       1 RES1    0.0000
     14 H3         4.4998    5.9749    5.7263 H         1 RES1    0.0000
     15 C4         3.4111    6.5409    4.0591 C.3       1 RES1    0.0000
     16 H4         2.7483    6.9907    4.6588 H         1 RES1    0.0000
     17 C5         3.6366    2.4969    1.7554 C.3       1 RES1    0.0000
     18 H5         3.6075    2.9864    0.8839 H         1 RES1    0.0000
     19 C6         5.0741    2.1820    2.1385 C.3       1 RES1    0.0000
     20 H6         5.5182    1.7287    1.3789 H         1 RES1    0.0000
     21 H7         5.0733    1.5560    2.9060 H         1 RES1    0.0000
     22 C7         5.8876    3.4439    2.5179 C.3       1 RES1    0.0000
     23 C8         6.9210    5.2051    4.9882 C.ar      1 RES1    0.0000
     24 C9         6.7712    4.5588    6.2241 C.ar      1 RES1    0.0000
     25 H8         5.9012    4.3282    6.5259 H         1 RES1    0.0000
     26 C10        7.8641    4.2518    7.0096 C.ar      1 RES1    0.0000
     27 H9         7.7386    3.8226    7.8476 H         1 RES1    0.0000
     28 C11        9.1564    4.5701    6.5774 C.ar      1 RES1    0.0000
     29 C12        9.3359    5.2067    5.3514 C.ar      1 RES1    0.0000
     30 H10       10.2084    5.4239    5.0450 H         1 RES1    0.0000
     31 C13        8.2111    5.5214    4.5779 C.ar      1 RES1    0.0000
     32 H11        8.3343    5.9648    3.7464 H         1 RES1    0.0000
     33 C14        5.2893    7.8092    5.1606 C.3       1 RES1    0.0000
     34 H12        4.7082    8.2607    5.8228 H         1 RES1    0.0000
     35 H13        6.1855    7.7039    5.5672 H         1 RES1    0.0000
     36 C15        5.4079    8.6936    3.9181 C.3       1 RES1    0.0000
     37 H14        5.7154    9.5966    4.1815 H         1 RES1    0.0000
     38 H15        6.0784    8.3083    3.2990 H         1 RES1    0.0000
     39 C16        3.5384    7.4146    2.8117 C.3       1 RES1    0.0000
     40 H16        2.6553    7.5032    2.3729 H         1 RES1    0.0000
     41 H17        4.1626    6.9933    2.1703 H         1 RES1    0.0000
     42 C17        4.0597    8.7984    3.2111 C.3       1 RES1    0.0000
     43 H18        4.1550    9.3605    2.4015 H         1 RES1    0.0000
     44 H19        3.4059    9.2350    3.8130 H         1 RES1    0.0000
     45 C18        2.8244    1.2235    1.6717 C.ar      1 RES1    0.0000
     46 C19        2.3290    0.7874    0.4513 C.ar      1 RES1    0.0000
     47 H20        2.4569    1.3170   -0.3264 H         1 RES1    0.0000
     48 C20        1.6429   -0.4262    0.3601 C.ar      1 RES1    0.0000
     49 H21        1.3224   -0.7257   -0.4827 H         1 RES1    0.0000
     50 C21        1.4294   -1.1899    1.4856 C.ar      1 RES1    0.0000
     51 H22        0.9613   -2.0141    1.4210 H         1 RES1    0.0000
     52 C22        1.8998   -0.7528    2.7142 C.ar      1 RES1    0.0000
     53 H23        1.7398   -1.2716    3.4934 H         1 RES1    0.0000
     54 C23        2.6062    0.4431    2.8112 C.ar      1 RES1    0.0000
     55 H24        2.9402    0.7302    3.6525 H         1 RES1    0.0000
     56 C24        7.1704    2.8695    3.1427 C.2       1 RES1    0.0000
     57 C25        9.4757    2.4824    2.8281 C.3       1 RES1    0.0000
     58 H25       10.1807    2.6388    2.1662 H         1 RES1    0.0000
     59 H26        9.3437    1.5178    2.9441 H         1 RES1    0.0000
     60 H27        9.7370    2.8821    3.6838 H         1 RES1    0.0000
     61 C26        6.2390    4.3049    1.2848 C.2       1 RES1    0.0000
     62 C27        6.4475    4.3462   -1.0565 C.3       1 RES1    0.0000
     63 H28        6.4165    3.7385   -1.8249 H         1 RES1    0.0000
     64 H29        7.3546    4.7063   -0.9614 H         1 RES1    0.0000
     65 H30        5.8164    5.0830   -1.1967 H         1 RES1    0.0000
     66 C28       11.5092    4.5067    7.0184 C.3       1 RES1    0.0000
     67 H31       12.1395    4.1651    7.6858 H         1 RES1    0.0000
     68 H32       11.6107    5.4787    6.9406 H         1 RES1    0.0000
     69 H33       11.6924    4.0887    6.1519 H         1 RES1    0.0000
@<TRIPOS>BOND
     1    1    2 1
     2    2   15 1
     3    3    1 1
     4    4   56 1
     5    5   56 2
     6    6   61 1
     7    7   61 2
     8    8   28 1
     9    9    1 1
    10   10    9 1
    11   11    9 1
    12   12   11 1
    13   13   11 1
    14   14   13 1
    15   15   13 1
    16   16   15 1
    17   17    3 1
    18   18   17 1
    19   19   17 1
    20   20   19 1
    21   21   19 1
    22   22    9 1
    23   23   11 1
    24   24   23 ar
    25   25   24 1
    26   26   24 ar
    27   27   26 1
    28   28   26 ar
    29   29   28 ar
    30   30   29 1
    31   31   23 ar
    32   32   31 1
    33   33   13 1
    34   34   33 1
    35   35   33 1
    36   36   33 1
    37   37   36 1
    38   38   36 1
    39   39   15 1
    40   40   39 1
    41   41   39 1
    42   42   36 1
    43   43   42 1
    44   44   42 1
    45   45   17 1
    46   46   45 ar
    47   47   46 1
    48   48   46 ar
    49   49   48 1
    50   50   48 ar
    51   51   50 1
    52   52   50 ar
    53   53   52 1
    54   54   45 ar
    55   55   54 1
    56   56   22 1
    57   57    4 1
    58   58   57 1
    59   59   57 1
    60   60   57 1
    61   61   22 1
    62   62    6 1
    63   63   62 1
    64   64   62 1
    65   65   62 1
    66   66    8 1
    67   67   66 1
    68   68   66 1
    69   69   66 1
    70   19   22 1
    71   29   31 ar
    72   39   42 1
    73   52   54 ar
@<TRIPOS>SUBSTRUCTURE
     1 RES1 1

@<TRIPOS>CRYSIN
   9.6224   10.0813   14.8728 103.3570 105.4970 103.9440   2 1

