# MOL2 file generated by ConQuest
# Please check atom types

@<TRIPOS>MOLECULE
RERXES
    47    51     1
SMALL
NO_CHARGES
****
Generated from CSD

@<TRIPOS>ATOM
      1 C1         1.1374    7.3509    2.8862 C.3       1 RES1    0.0000
      2 H1         1.1915    7.9091    3.6661 H         1 RES1    0.0000
      3 H2         0.9950    6.4404    3.1537 H         1 RES1    0.0000
      4 H3         0.4060    7.6409    2.3371 H         1 RES1    0.0000
      5 C2         2.1228    7.2922   -0.4909 C.3       1 RES1    0.0000
      6 H4         2.1813    6.6687   -1.2188 H         1 RES1    0.0000
      7 H5         2.7376    8.0149   -0.6394 H         1 RES1    0.0000
      8 H6         1.2290    7.6387   -0.4358 H         1 RES1    0.0000
      9 C3         1.7026    5.2732    0.9286 C.3       1 RES1    0.0000
     10 H7         1.7645    4.7875    0.1030 H         1 RES1    0.0000
     11 H8         0.7804    5.4581    1.1231 H         1 RES1    0.0000
     12 H9         2.0792    4.7469    1.6379 H         1 RES1    0.0000
     13 C4        10.3113    7.3560    6.6940 C.ar      1 RES1    0.0000
     14 H10       10.8841    7.7329    7.3226 H         1 RES1    0.0000
     15 C5         2.7601    8.9160    1.8283 C.3       1 RES1    0.0000
     16 H11        2.7226    9.4090    2.6508 H         1 RES1    0.0000
     17 H12        2.1193    9.2771    1.2093 H         1 RES1    0.0000
     18 H13        3.6411    8.9856    1.4535 H         1 RES1    0.0000
     19 C6         9.9478    4.1858    4.7547 C.ar      1 RES1    0.0000
     20 H14       10.6817    3.7001    5.0550 H         1 RES1    0.0000
     21 C7        10.5526    6.0844    6.2269 C.ar      1 RES1    0.0000
     22 H15       11.2852    5.6125    6.5492 H         1 RES1    0.0000
     23 C8         9.2278    8.0766    6.2398 C.ar      1 RES1    0.0000
     24 H16        9.0793    8.9363    6.5611 H         1 RES1    0.0000
     25 C9         9.1395    3.6385    3.8431 C.ar      1 RES1    0.0000
     26 H17        9.3351    2.7917    3.5128 H         1 RES1    0.0000
     27 C10        2.4365    7.4502    2.0979 C.3       1 RES1    0.0000
     28 C11        7.0821    3.7501    2.4650 C.ar      1 RES1    0.0000
     29 H18        7.2520    2.8976    2.1336 H         1 RES1    0.0000
     30 C12        2.4736    6.5897    0.8058 C.3       1 RES1    0.0000
     31 C13        9.7207    5.4892    5.2788 C.ar      1 RES1    0.0000
     32 C14        5.9547    4.4214    2.0603 C.ar      1 RES1    0.0000
     33 H19        5.3765    4.0162    1.4535 H         1 RES1    0.0000
     34 C15        7.1988    8.2201    4.8184 C.ar      1 RES1    0.0000
     35 H20        7.0371    9.0864    5.1172 H         1 RES1    0.0000
     36 C16        8.3488    7.5278    5.3004 C.ar      1 RES1    0.0000
     37 C17        6.3414    7.6641    3.9494 C.ar      1 RES1    0.0000
     38 H21        5.5991    8.1498    3.6709 H         1 RES1    0.0000
     39 C18        5.6566    5.6973    2.5387 C.ar      1 RES1    0.0000
     40 C19        7.9730    4.3279    3.3603 C.ar      1 RES1    0.0000
     41 C20        4.3860    6.3171    2.1393 C.2       1 RES1    0.0000
     42 C21        7.7069    5.6306    3.8603 C.ar      1 RES1    0.0000
     43 C22        6.5406    6.3345    3.4384 C.ar      1 RES1    0.0000
     44 C23        8.5999    6.2207    4.8030 C.ar      1 RES1    0.0000
     45 N1         3.9160    6.2229    0.8211 N.pl3     1 RES1    0.0000
     46 N2         3.5573    6.9217    2.9202 N.2       1 RES1    0.0000
     47 O1         4.5333    5.7480   -0.1786 O.2       1 RES1    0.0000
@<TRIPOS>BOND
     1    1    2 1
     2    3    1 1
     3    4    1 1
     4    5    6 1
     5    7    5 1
     6    8    5 1
     7    9   10 1
     8   11    9 1
     9   12    9 1
    10   13   14 1
    11   15   16 1
    12   17   15 1
    13   18   15 1
    14   19   20 1
    15   21   13 ar
    16   22   21 1
    17   23   13 ar
    18   24   23 1
    19   25   19 ar
    20   26   25 1
    21   27    1 1
    22   28   29 1
    23   30    5 1
    24   31   19 ar
    25   32   28 ar
    26   33   32 1
    27   34   35 1
    28   36   23 ar
    29   37   34 ar
    30   38   37 1
    31   39   32 ar
    32   40   25 ar
    33   41   39 1
    34   42   40 ar
    35   43   37 ar
    36   44   31 ar
    37   45   30 1
    38   46   27 1
    39   47   45 2
    40    9   30 1
    41   15   27 1
    42   21   31 ar
    43   27   30 1
    44   28   40 ar
    45   34   36 ar
    46   36   44 ar
    47   39   43 ar
    48   41   45 1
    49   41   46 2
    50   42   43 ar
    51   42   44 ar
@<TRIPOS>SUBSTRUCTURE
     1 RES1 1

@<TRIPOS>CRYSIN
  10.3920    7.2494   24.2200  90.0000  98.6300  90.0000 231 1

