# MOL2 file generated by ConQuest
# Please check atom types

@<TRIPOS>MOLECULE
RERXES01
    47    51     1
SMALL
NO_CHARGES
****
Generated from CSD

@<TRIPOS>ATOM
      1 C1        -3.8423    1.5131   14.3654 C.ar      1 RES1    0.0000
      2 C2        -4.1318    2.7912   13.8820 C.ar      1 RES1    0.0000
      3 H1        -3.5218    3.2206   13.2453 H         1 RES1    0.0000
      4 C3        -5.2657    3.4627   14.2891 C.ar      1 RES1    0.0000
      5 H2        -5.4358    4.3518   13.9424 H         1 RES1    0.0000
      6 C4        -6.1571    2.8834   15.1873 C.ar      1 RES1    0.0000
      7 C5        -7.3300    3.5758   15.6627 C.ar      1 RES1    0.0000
      8 H3        -7.4671    4.4671   15.2726 H         1 RES1    0.0000
      9 C6        -8.1453    3.0326   16.5825 C.ar      1 RES1    0.0000
     10 H4        -8.9049    3.5232   16.9301 H         1 RES1    0.0000
     11 C7        -7.9140    1.7184   17.1015 C.ar      1 RES1    0.0000
     12 C8        -8.7539    1.1240   18.0462 C.ar      1 RES1    0.0000
     13 H5        -9.5297    1.6572   18.3978 H         1 RES1    0.0000
     14 C9        -8.5084   -0.1556   18.5150 C.ar      1 RES1    0.0000
     15 H6        -9.1577   -0.5404   19.1756 H         1 RES1    0.0000
     16 C10       -7.4189   -0.8790   18.0592 C.ar      1 RES1    0.0000
     17 H7        -7.2672   -1.7868   18.4144 H         1 RES1    0.0000
     18 C11       -6.5398   -0.3199   17.1229 C.ar      1 RES1    0.0000
     19 C12       -5.3805   -1.0181   16.6479 C.ar      1 RES1    0.0000
     20 H8        -5.2194   -1.9093   16.9894 H         1 RES1    0.0000
     21 C13       -4.5133   -0.4510   15.7787 C.ar      1 RES1    0.0000
     22 H9        -3.7482   -0.9439   15.5074 H         1 RES1    0.0000
     23 C14       -4.7223    0.8768   15.2684 C.ar      1 RES1    0.0000
     24 C15       -5.8921    1.5801   15.6869 C.ar      1 RES1    0.0000
     25 C16       -6.7885    0.9878   16.6278 C.ar      1 RES1    0.0000
     26 C17       -2.5644    0.8913   13.9687 C.2       1 RES1    0.0000
     27 N1        -2.0988    0.9807   12.6447 N.3       1 RES1    0.0000
     28 O1        -2.7152    1.4629   11.6433 O.2       1 RES1    0.0000
     29 C18       -0.6459    0.6319   12.6338 C.3       1 RES1    0.0000
     30 C19       -0.6056   -0.2248   13.9291 C.3       1 RES1    0.0000
     31 N2        -1.7340    0.3013   14.7522 N.2       1 RES1    0.0000
     32 C20        0.1075    1.9634   12.7592 C.3       1 RES1    0.0000
     33 H10       -0.1533    2.4569   13.6152 H         1 RES1    0.0000
     34 H11       -0.1711    2.5434   11.9933 H         1 RES1    0.0000
     35 H12        1.1064    1.7868   12.6952 H         1 RES1    0.0000
     36 C21       -0.2775   -0.0670   11.3424 C.3       1 RES1    0.0000
     37 H13        0.6816   -0.3530   11.4077 H         1 RES1    0.0000
     38 H14       -0.8621   -0.8718   11.2037 H         1 RES1    0.0000
     39 H15       -0.3710    0.6052   10.5730 H         1 RES1    0.0000
     40 C22        0.6940   -0.1052   14.7159 C.3       1 RES1    0.0000
     41 H16        1.4870   -0.4107   14.1748 H         1 RES1    0.0000
     42 H17        0.9002    0.8502   14.9597 H         1 RES1    0.0000
     43 H18        0.6020   -0.6629   15.5335 H         1 RES1    0.0000
     44 C23       -0.9182   -1.6982   13.6610 C.3       1 RES1    0.0000
     45 H19       -0.1824   -2.1255   13.2050 H         1 RES1    0.0000
     46 H20       -1.1069   -2.1759   14.4831 H         1 RES1    0.0000
     47 H21       -1.7477   -1.7868   13.1505 H         1 RES1    0.0000
@<TRIPOS>BOND
     1    1    2 ar
     2    2    3 1
     3    4    2 ar
     4    5    4 1
     5    6    4 ar
     6    7    6 ar
     7    8    7 1
     8    9    7 ar
     9   10    9 1
    10   11    9 ar
    11   12   11 ar
    12   13   12 1
    13   14   12 ar
    14   15   14 1
    15   16   14 ar
    16   17   16 1
    17   18   16 ar
    18   19   18 ar
    19   20   19 1
    20   21   19 ar
    21   22   21 1
    22   23    1 ar
    23   24    6 ar
    24   25   11 ar
    25   26    1 1
    26   27   26 1
    27   28   27 1
    28   29   27 1
    29   30   29 1
    30   31   26 2
    31   32   29 1
    32   33   32 1
    33   34   32 1
    34   35   32 1
    35   36   29 1
    36   37   36 1
    37   38   36 1
    38   39   36 1
    39   40   30 1
    40   41   40 1
    41   42   40 1
    42   43   40 1
    43   44   30 1
    44   45   44 1
    45   46   44 1
    46   47   44 1
    47   18   25 ar
    48   21   23 ar
    49   23   24 ar
    50   24   25 ar
    51   30   31 1
@<TRIPOS>SUBSTRUCTURE
     1 RES1 1

@<TRIPOS>CRYSIN
  10.4000    7.2050   24.6490  90.0000 105.8520  90.0000  14 1

