# MOL2 file generated by ConQuest
# Please check atom types

@<TRIPOS>MOLECULE
RERXAQ
    29    29     1
SMALL
NO_CHARGES
****
Generated from CSD

@<TRIPOS>ATOM
      1 C1         5.0816    0.1772   13.2045 C.3       1 RES1    0.0000
      2 H1         6.0774    0.1311   13.2893 H         1 RES1    0.0000
      3 C2         4.4469   -1.0458   13.8730 C.3       1 RES1    0.0000
      4 C3         2.9343   -1.0954   13.6707 C.3       1 RES1    0.0000
      5 H2         2.5108   -0.3309   14.1359 H         1 RES1    0.0000
      6 H3         2.5732   -1.9318   14.0590 H         1 RES1    0.0000
      7 C4         2.6034   -1.0373   12.1731 C.3       1 RES1    0.0000
      8 H4         2.9779   -1.8345   11.7216 H         1 RES1    0.0000
      9 H5         1.6208   -1.0478   12.0508 H         1 RES1    0.0000
     10 C5         3.1806    0.2241   11.5416 C.3       1 RES1    0.0000
     11 H6         2.7649    1.0214   11.9552 H         1 RES1    0.0000
     12 H7         2.9706    0.2358   10.5741 H         1 RES1    0.0000
     13 C6         4.6925    0.2790   11.7359 C.3       1 RES1    0.0000
     14 H8         5.1130   -0.4642   11.2356 H         1 RES1    0.0000
     15 H9         5.0380    1.1292   11.3658 H         1 RES1    0.0000
     16 C7         5.1360   -2.3341   13.4458 C.3       1 RES1    0.0000
     17 H10        4.7470   -3.0895   13.9336 H         1 RES1    0.0000
     18 H11        6.0932   -2.2743   13.6452 H         1 RES1    0.0000
     19 H12        5.0108   -2.4678   12.4835 H         1 RES1    0.0000
     20 N1         4.7627   -0.9087   15.3721 N.pl3     1 RES1    0.0000
     21 O1         3.8600   -1.0069   16.1830 O.2       1 RES1    0.0000
     22 O2         5.9377   -0.7371   15.6794 O.2       1 RES1    0.0000
     23 O3         4.5795    1.3351   13.9272 O.3       1 RES1    0.0000
     24 C8         5.3919    2.4148   13.9589 C.2       1 RES1    0.0000
     25 O4         6.4646    2.4503   13.4216 O.2       1 RES1    0.0000
     26 C9         4.7754    3.5198   14.7546 C.3       1 RES1    0.0000
     27 H13        4.8383    3.3095   15.7098 H         1 RES1    0.0000
     28 H14        3.8334    3.6172   14.5027 H         1 RES1    0.0000
     29 H15        5.2504    4.3573   14.5732 H         1 RES1    0.0000
@<TRIPOS>BOND
     1    1    2 1
     2    3    1 1
     3    4    3 1
     4    5    4 1
     5    6    4 1
     6    7    4 1
     7    8    7 1
     8    9    7 1
     9   10    7 1
    10   11   10 1
    11   12   10 1
    12   13    1 1
    13   14   13 1
    14   15   13 1
    15   16    3 1
    16   17   16 1
    17   18   16 1
    18   19   16 1
    19   20    3 1
    20   21   20 2
    21   22   20 2
    22   23    1 1
    23   24   23 1
    24   25   24 2
    25   26   24 1
    26   27   26 1
    27   28   26 1
    28   29   26 1
    29   10   13 1
@<TRIPOS>SUBSTRUCTURE
     1 RES1 1

@<TRIPOS>CRYSIN
   6.0502   10.5734   15.6769  90.0000  90.0000  90.0000  19 1

