# MOL2 file generated by ConQuest
# Please check atom types

@<TRIPOS>MOLECULE
RESKAC
    57    61     1
SMALL
NO_CHARGES
****
Generated from CSD

@<TRIPOS>ATOM
      1 N1         3.2404   16.5818    6.6591 N.pl3     1 RES1    0.0000
      2 C1         2.2083   16.3980    5.7248 C.ar      1 RES1    0.0000
      3 C2         1.9190   15.0971    5.2734 C.ar      1 RES1    0.0000
      4 H1         1.2400   14.9651    4.6220 H         1 RES1    0.0000
      5 C3         2.6054   14.0262    5.7653 C.ar      1 RES1    0.0000
      6 H2         2.4520   13.1550    5.4215 H         1 RES1    0.0000
      7 C4         4.3075   13.2705    7.6379 C.2       1 RES1    0.0000
      8 C5         5.7023   13.7701    9.8253 C.ar      1 RES1    0.0000
      9 H3         5.9367   12.8694   10.0228 H         1 RES1    0.0000
     10 C6         6.0807   14.8245   10.6486 C.ar      1 RES1    0.0000
     11 H4         6.6022   14.6547   11.4243 H         1 RES1    0.0000
     12 C7         5.7030   16.1183   10.3471 C.ar      1 RES1    0.0000
     13 H5         5.9696   16.8094   10.9427 H         1 RES1    0.0000
     14 N2         4.9742   16.4685    9.2515 N.ar      1 RES1    0.0000
     15 C8         4.6547   15.4489    8.4654 C.ar      1 RES1    0.0000
     16 C9         4.9653   14.1023    8.6990 C.ar      1 RES1    0.0000
     17 C10        3.8208   15.5035    7.2491 C.ar      1 RES1    0.0000
     18 C11        3.5476   14.2386    6.7940 C.ar      1 RES1    0.0000
     19 O1         4.3575   12.0625    7.5059 O.2       1 RES1    0.0000
     20 C12        3.4302   17.9485    6.9130 C.ar      1 RES1    0.0000
     21 C13        2.4412   18.6189    6.2044 C.ar      1 RES1    0.0000
     22 C14        1.7001   17.6766    5.4452 C.ar      1 RES1    0.0000
     23 C15        0.6810   17.9439    4.4347 C.2       1 RES1    0.0000
     24 O2         0.2899   17.1279    3.6185 O.2       1 RES1    0.0000
     25 O3         0.2460   19.2119    4.4989 O.3       1 RES1    0.0000
     26 C16       -0.6888   19.6562    3.4783 C.3       1 RES1    0.0000
     27 H6        -1.2034   18.8865    3.1274 H         1 RES1    0.0000
     28 H7        -0.1999   20.0756    2.7258 H         1 RES1    0.0000
     29 C17       -1.6020   20.6370    4.1009 C.3       1 RES1    0.0000
     30 H8        -2.0585   20.2216    4.8628 H         1 RES1    0.0000
     31 H9        -2.2662   20.9295    3.4425 H         1 RES1    0.0000
     32 H10       -1.0879   21.4107    4.4123 H         1 RES1    0.0000
     33 C18        2.1776   20.0859    6.2248 C.2       1 RES1    0.0000
     34 O4         1.5101   20.6165    7.0743 O.2       1 RES1    0.0000
     35 O5         2.7505   20.7034    5.1987 O.3       1 RES1    0.0000
     36 C19        2.3565   22.1102    5.0312 C.3       1 RES1    0.0000
     37 H11        1.3902   22.2117    5.2221 H         1 RES1    0.0000
     38 H12        2.8608   22.6775    5.6661 H         1 RES1    0.0000
     39 C20        2.6348   22.5275    3.6701 C.3       1 RES1    0.0000
     40 H13        2.1900   21.9199    3.0447 H         1 RES1    0.0000
     41 H14        3.6020   22.5067    3.5140 H         1 RES1    0.0000
     42 H15        2.3015   23.4381    3.5338 H         1 RES1    0.0000
     43 C21        4.7905   18.4289    7.2656 C.2       1 RES1    0.0000
     44 O6         5.7515   17.8414    6.7931 O.2       1 RES1    0.0000
     45 C22        4.9722   19.6295    8.1160 C.ar      1 RES1    0.0000
     46 C23        6.2074   20.2703    8.1080 C.ar      1 RES1    0.0000
     47 H16        6.8804   19.9825    7.5021 H         1 RES1    0.0000
     48 C24        6.4651   21.3179    8.9703 C.ar      1 RES1    0.0000
     49 H17        7.3097   21.7553    8.9750 H         1 RES1    0.0000
     50 C25        5.4498   21.7103    9.8278 C.ar      1 RES1    0.0000
     51 C26        4.2090   21.1071    9.8536 C.ar      1 RES1    0.0000
     52 H18        3.5337   21.4076   10.4498 H         1 RES1    0.0000
     53 C27        3.9745   20.0527    8.9899 C.ar      1 RES1    0.0000
     54 H19        3.1309   19.6161    8.9929 H         1 RES1    0.0000
     55 N3         5.7179   22.8107   10.7710 N.pl3     1 RES1    0.0000
     56 O7         6.8829   23.1273   10.9771 O.2       1 RES1    0.0000
     57 O8         4.7638   23.3459   11.3157 O.2       1 RES1    0.0000
@<TRIPOS>BOND
     1    1    2 ar
     2    2    3 ar
     3    3    4 1
     4    5    3 ar
     5    6    5 1
     6    7   16 1
     7    8    9 1
     8   10    8 ar
     9   11   10 1
    10   12   10 ar
    11   13   12 1
    12   14   12 ar
    13   15   14 ar
    14   16    8 ar
    15   17    1 ar
    16   18    5 ar
    17   19    7 2
    18   20    1 ar
    19   21   20 ar
    20   22    2 ar
    21   23   22 1
    22   24   23 2
    23   25   23 1
    24   26   25 1
    25   27   26 1
    26   28   26 1
    27   29   26 1
    28   30   29 1
    29   31   29 1
    30   32   29 1
    31   33   21 1
    32   34   33 2
    33   35   33 1
    34   36   35 1
    35   37   36 1
    36   38   36 1
    37   39   36 1
    38   40   39 1
    39   41   39 1
    40   42   39 1
    41   43   20 1
    42   44   43 2
    43   45   43 1
    44   46   45 ar
    45   47   46 1
    46   48   46 ar
    47   49   48 1
    48   50   48 ar
    49   51   50 ar
    50   52   51 1
    51   53   45 ar
    52   54   53 1
    53   55   50 1
    54   56   55 2
    55   57   55 2
    56    7   18 1
    57   15   16 ar
    58   15   17 1
    59   17   18 ar
    60   21   22 ar
    61   51   53 ar
@<TRIPOS>SUBSTRUCTURE
     1 RES1 1

@<TRIPOS>CRYSIN
   7.9340   31.0480    9.4411  90.0000  94.9560  90.0000  14 1

