# MOL2 file generated by ConQuest
# Please check atom types

@<TRIPOS>MOLECULE
RESQEM
    50    53     1
SMALL
NO_CHARGES
****
Generated from CSD

@<TRIPOS>ATOM
      1 O1         3.7872    7.0386    1.4020 O.3       1 RES1    0.0000
      2 O2         3.8189   11.7351    9.6015 O.3       1 RES1    0.0000
      3 O3        -0.5614    3.0725    6.3874 O.3       1 RES1    0.0000
      4 H1         0.1501    3.4535    6.2421 H         1 RES1    0.0000
      5 O4        -0.6689    3.1866   12.6544 O.2       1 RES1    0.0000
      6 O5        -2.1705    1.7575   12.2664 O.2       1 RES1    0.0000
      7 N1         1.0140    5.0090    6.7938 N.2       1 RES1    0.0000
      8 N2         1.2326    5.9588    8.7776 N.pl3     1 RES1    0.0000
      9 H2         1.1655    6.0940    9.6253 H         1 RES1    0.0000
     10 N3        -1.3446    2.5616   11.8580 N.pl3     1 RES1    0.0000
     11 C1         3.3772    6.9139    2.7168 C.ar      1 RES1    0.0000
     12 C2         3.7981    7.6601    3.7751 C.ar      1 RES1    0.0000
     13 H3         4.4243    8.3343    3.6404 H         1 RES1    0.0000
     14 C3         3.3033    7.4284    5.0608 C.ar      1 RES1    0.0000
     15 H4         3.6266    7.9305    5.7742 H         1 RES1    0.0000
     16 C4         2.3491    6.4733    5.2862 C.ar      1 RES1    0.0000
     17 C5         1.9251    5.7043    4.2088 C.ar      1 RES1    0.0000
     18 H5         1.2925    5.0353    4.3386 H         1 RES1    0.0000
     19 C6         2.4412    5.9308    2.9349 C.ar      1 RES1    0.0000
     20 H6         2.1487    5.4093    2.2220 H         1 RES1    0.0000
     21 C7         4.6828    8.0710    1.0862 C.3       1 RES1    0.0000
     22 H7         4.8837    8.0446    0.1470 H         1 RES1    0.0000
     23 H8         5.4919    7.9568    1.5899 H         1 RES1    0.0000
     24 H9         4.2851    8.9172    1.3057 H         1 RES1    0.0000
     25 C8         3.4071   10.4956    9.2725 C.ar      1 RES1    0.0000
     26 C9         3.7083    9.3509    9.9232 C.ar      1 RES1    0.0000
     27 H10        4.2416    9.3842   10.6836 H         1 RES1    0.0000
     28 C10        3.2412    8.1394    9.4807 C.ar      1 RES1    0.0000
     29 H11        3.4584    7.3652    9.9486 H         1 RES1    0.0000
     30 C11        2.4339    8.0499    8.3220 C.ar      1 RES1    0.0000
     31 C12        2.1373    9.2455    7.6806 C.ar      1 RES1    0.0000
     32 H12        1.5999    9.2262    6.9207 H         1 RES1    0.0000
     33 C13        2.6054   10.4499    8.1211 C.ar      1 RES1    0.0000
     34 H13        2.3949   11.2312    7.6630 H         1 RES1    0.0000
     35 C14        4.6343   11.8633   10.7745 C.3       1 RES1    0.0000
     36 H14        4.8824   12.7815   10.8943 H         1 RES1    0.0000
     37 H15        5.4252   11.3278   10.6738 H         1 RES1    0.0000
     38 H16        4.1405   11.5630   11.5410 H         1 RES1    0.0000
     39 C15        1.7809    6.1327    6.6279 C.2       1 RES1    0.0000
     40 C16        1.9056    6.7700    7.8516 C.2       1 RES1    0.0000
     41 C17        0.7188    4.9405    8.0941 C.2       1 RES1    0.0000
     42 C18       -0.1410    3.8678    8.6135 C.ar      1 RES1    0.0000
     43 C19       -0.3578    3.7045    9.9932 C.ar      1 RES1    0.0000
     44 H17        0.0816    4.2541   10.6003 H         1 RES1    0.0000
     45 C20       -1.2022    2.7512   10.4337 C.ar      1 RES1    0.0000
     46 C21       -1.8593    1.9260    9.5591 C.ar      1 RES1    0.0000
     47 H18       -2.4448    1.2799    9.8825 H         1 RES1    0.0000
     48 C22       -1.6507    2.0524    8.1823 C.ar      1 RES1    0.0000
     49 H19       -2.0961    1.4941    7.5870 H         1 RES1    0.0000
     50 C23       -0.7755    3.0180    7.7095 C.ar      1 RES1    0.0000
@<TRIPOS>BOND
     1    1   11 1
     2    2   25 1
     3    3    4 1
     4    5   10 2
     5    6   10 2
     6    7   39 1
     7    8    9 1
     8   10   45 1
     9   11   12 ar
    10   12   13 1
    11   14   12 ar
    12   15   14 1
    13   16   14 ar
    14   17   16 ar
    15   18   17 1
    16   19   11 ar
    17   20   19 1
    18   21    1 1
    19   22   21 1
    20   23   21 1
    21   24   21 1
    22   25   26 ar
    23   26   27 1
    24   28   26 ar
    25   29   28 1
    26   30   28 ar
    27   31   30 ar
    28   32   31 1
    29   33   25 ar
    30   34   33 1
    31   35    2 1
    32   36   35 1
    33   37   35 1
    34   38   35 1
    35   39   16 1
    36   40    8 1
    37   41    7 2
    38   42   41 1
    39   43   42 ar
    40   44   43 1
    41   45   43 ar
    42   46   45 ar
    43   47   46 1
    44   48   46 ar
    45   49   48 1
    46   50    3 1
    47    8   41 1
    48   17   19 ar
    49   30   40 1
    50   31   33 ar
    51   39   40 2
    52   42   50 ar
    53   48   50 ar
@<TRIPOS>SUBSTRUCTURE
     1 RES1 1

@<TRIPOS>CRYSIN
   4.5350   17.5570   24.4980  90.0000  90.0000  90.0000  19 1

