# MOL2 file generated by ConQuest
# Please check atom types

@<TRIPOS>MOLECULE
RESRAJ
    48    51     1
SMALL
NO_CHARGES
****
Generated from CSD

@<TRIPOS>ATOM
      1 N1         1.4571    2.5473    9.7974 N.2       1 RES1    0.0000
      2 N2        -0.1827    1.2123   10.3816 N.pl3     1 RES1    0.0000
      3 H1        -0.8989    0.7390   10.3296 H         1 RES1    0.0000
      4 N3        -3.1464    1.4121    5.9205 N.pl3     1 RES1    0.0000
      5 O1         1.7677    3.4740    7.4353 O.3       1 RES1    0.0000
      6 H2         1.9408    3.3094    8.2200 H         1 RES1    0.0000
      7 O2        -3.7358    0.6069    6.6423 O.2       1 RES1    0.0000
      8 O3        -3.6229    1.7888    4.8490 O.2       1 RES1    0.0000
      9 C1         4.7855    4.1870   13.2495 C.ar      1 RES1    0.0000
     10 C2         3.6391    3.7580   13.9007 C.ar      1 RES1    0.0000
     11 H3         3.5415    3.9345   14.8078 H         1 RES1    0.0000
     12 C3         2.6365    3.0757   13.2383 C.ar      1 RES1    0.0000
     13 H4         1.8868    2.7928   13.7104 H         1 RES1    0.0000
     14 C4         2.7336    2.8039   11.8840 C.ar      1 RES1    0.0000
     15 C5         3.8875    3.2310   11.2228 C.ar      1 RES1    0.0000
     16 H5         3.9863    3.0605   10.3132 H         1 RES1    0.0000
     17 C6         4.8845    3.9039   11.9004 C.ar      1 RES1    0.0000
     18 H6         5.6450    4.1737   11.4385 H         1 RES1    0.0000
     19 C7         5.8524    4.9827   13.9730 C.3       1 RES1    0.0000
     20 H7         6.0301    5.7930   13.4890 H         1 RES1    0.0000
     21 H8         6.6563    4.4615   14.0303 H         1 RES1    0.0000
     22 H9         5.5463    5.1976   14.8571 H         1 RES1    0.0000
     23 C8        -0.1908   -0.8783   15.0708 C.ar      1 RES1    0.0000
     24 C9        -1.2057   -0.2408   14.3872 C.ar      1 RES1    0.0000
     25 H10       -2.0783   -0.3126   14.6996 H         1 RES1    0.0000
     26 C10       -0.9533    0.4961   13.2375 C.ar      1 RES1    0.0000
     27 H11       -1.6538    0.9173   12.7951 H         1 RES1    0.0000
     28 C11        0.3354    0.6145   12.7480 C.ar      1 RES1    0.0000
     29 C12        1.3639   -0.0182   13.4504 C.ar      1 RES1    0.0000
     30 H12        2.2402    0.0485   13.1461 H         1 RES1    0.0000
     31 C13        1.0901   -0.7448   14.5856 C.ar      1 RES1    0.0000
     32 H13        1.7926   -1.1588   15.0326 H         1 RES1    0.0000
     33 C14       -0.4711   -1.6989   16.3072 C.3       1 RES1    0.0000
     34 H14       -1.3609   -1.5157   16.6188 H         1 RES1    0.0000
     35 H15        0.1606   -1.4697   16.9928 H         1 RES1    0.0000
     36 H16       -0.3916   -2.6318   16.0972 H         1 RES1    0.0000
     37 C15        1.6300    2.1865   11.1194 C.2       1 RES1    0.0000
     38 C16        0.6181    1.3404   11.5000 C.2       1 RES1    0.0000
     39 C17        0.3485    1.9567    9.3773 C.2       1 RES1    0.0000
     40 C18       -0.1781    2.1618    8.0383 C.ar      1 RES1    0.0000
     41 C19       -1.4091    1.6621    7.6157 C.ar      1 RES1    0.0000
     42 H17       -1.9265    1.1503    8.1954 H         1 RES1    0.0000
     43 C20       -1.8618    1.9259    6.3388 C.ar      1 RES1    0.0000
     44 C21       -1.1236    2.6770    5.4402 C.ar      1 RES1    0.0000
     45 H18       -1.4542    2.8546    4.5898 H         1 RES1    0.0000
     46 C22        0.0983    3.1602    5.8323 C.ar      1 RES1    0.0000
     47 H19        0.6116    3.6467    5.2279 H         1 RES1    0.0000
     48 C23        0.5816    2.9292    7.1154 C.ar      1 RES1    0.0000
@<TRIPOS>BOND
     1    1   37 1
     2    2    3 1
     3    4    7 2
     4    5    6 1
     5    8    4 2
     6    9   10 ar
     7   10   11 1
     8   12   10 ar
     9   13   12 1
    10   14   12 ar
    11   15   14 ar
    12   16   15 1
    13   17    9 ar
    14   18   17 1
    15   19    9 1
    16   20   19 1
    17   21   19 1
    18   22   19 1
    19   23   24 ar
    20   24   25 1
    21   26   24 ar
    22   27   26 1
    23   28   26 ar
    24   29   28 ar
    25   30   29 1
    26   31   23 ar
    27   32   31 1
    28   33   23 1
    29   34   33 1
    30   35   33 1
    31   36   33 1
    32   37   14 1
    33   38    2 1
    34   39    1 2
    35   40   39 1
    36   41   40 ar
    37   42   41 1
    38   43    4 1
    39   44   43 ar
    40   45   44 1
    41   46   44 ar
    42   47   46 1
    43   48    5 1
    44    2   39 1
    45   15   17 ar
    46   28   38 1
    47   29   31 ar
    48   37   38 2
    49   40   48 ar
    50   41   43 ar
    51   46   48 ar
@<TRIPOS>SUBSTRUCTURE
     1 RES1 1

@<TRIPOS>CRYSIN
   6.6300    8.9750   16.4080  88.7300  89.6700  79.5100   2 1

