# MOL2 file generated by ConQuest
# Please check atom types

@<TRIPOS>MOLECULE
REVFAA
    32    37     1
SMALL
NO_CHARGES
****
Generated from CSD

@<TRIPOS>ATOM
      1 O1         1.5911   10.1643   12.7098 O.3       1 RES1    0.0000
      2 O2         2.2296    6.1048   12.9904 O.3       1 RES1    0.0000
      3 O3         3.8551    6.4004   14.4337 O.2       1 RES1    0.0000
      4 O4         1.5185   16.3127    9.8340 O.2       1 RES1    0.0000
      5 O5         3.0208   17.0714   11.1934 O.2       1 RES1    0.0000
      6 N1         1.8595   11.3326   14.7649 N.3       1 RES1    0.0000
      7 N2         2.3104   16.1649   10.7571 N.pl3     1 RES1    0.0000
      8 C1         1.8408    8.8327   12.8667 C.2       1 RES1    0.0000
      9 C2         0.9443    7.9895   12.1298 C.ar      1 RES1    0.0000
     10 C3        -0.1136    8.4006   11.3317 C.ar      1 RES1    0.0000
     11 C4        -0.8687    7.4631   10.6600 C.ar      1 RES1    0.0000
     12 C5        -0.5944    6.1526   10.7252 C.ar      1 RES1    0.0000
     13 C6         0.4611    5.6797   11.5352 C.ar      1 RES1    0.0000
     14 C7         1.2097    6.6284   12.2150 C.ar      1 RES1    0.0000
     15 C8         3.0376    6.9507   13.7500 C.2       1 RES1    0.0000
     16 C9         2.8254    8.3555   13.6329 C.2       1 RES1    0.0000
     17 C10        3.7619    9.2944   14.3632 C.3       1 RES1    0.0000
     18 C11        3.2216    9.5872   15.7559 C.ar      1 RES1    0.0000
     19 C12        3.6127    8.8848   16.8692 C.ar      1 RES1    0.0000
     20 C13        3.1004    9.1888   18.1249 C.ar      1 RES1    0.0000
     21 C14        2.2139   10.2164   18.2539 C.ar      1 RES1    0.0000
     22 C15        1.8023   10.9244   17.1632 C.ar      1 RES1    0.0000
     23 C16        2.2946   10.6358   15.8756 C.ar      1 RES1    0.0000
     24 C17        2.4258   11.1243   13.4520 C.3       1 RES1    0.0000
     25 C18        3.8485   10.5612   13.5917 C.3       1 RES1    0.0000
     26 C19        0.5694   12.0096   14.8154 C.3       1 RES1    0.0000
     27 C20        2.4186   12.4150   12.6672 C.ar      1 RES1    0.0000
     28 C21        3.0123   13.5453   13.2379 C.ar      1 RES1    0.0000
     29 C22        3.0363   14.7319   12.6087 C.ar      1 RES1    0.0000
     30 C23        2.3952   14.8811   11.3849 C.ar      1 RES1    0.0000
     31 C24        1.8299   13.7677   10.7717 C.ar      1 RES1    0.0000
     32 C25        1.8601   12.5333   11.4062 C.ar      1 RES1    0.0000
@<TRIPOS>BOND
     1    1    8 1
     2    2   14 1
     3    3   15 2
     4    4    7 2
     5    5    7 2
     6    6   23 1
     7    7   30 1
     8    8    9 1
     9    9   10 ar
    10   10   11 ar
    11   11   12 ar
    12   12   13 ar
    13   13   14 ar
    14   14    9 ar
    15   15    2 1
    16   16    8 2
    17   17   16 1
    18   18   17 1
    19   19   18 ar
    20   20   19 ar
    21   21   20 ar
    22   22   21 ar
    23   23   18 ar
    24   24    1 1
    25   25   17 1
    26   26    6 1
    27   27   24 1
    28   28   27 ar
    29   29   28 ar
    30   30   29 ar
    31   31   30 ar
    32   32   27 ar
    33    6   24 1
    34   15   16 1
    35   22   23 ar
    36   24   25 1
    37   31   32 ar
@<TRIPOS>SUBSTRUCTURE
     1 RES1 1

@<TRIPOS>CRYSIN
  10.4596   14.0760   13.3070  90.0000  91.6160  90.0000 231 1

