# MOL2 file generated by ConQuest
# Please check atom types

@<TRIPOS>MOLECULE
REWDUS
    37    38     1
SMALL
NO_CHARGES
****
Generated from CSD

@<TRIPOS>ATOM
      1 N1         4.4334    5.7262    5.1437 N.am      1 RES1    0.0000
      2 C1         5.3711    6.6277    5.6024 C.2       1 RES1    0.0000
      3 O1         5.3477    7.0335    6.7699 O.2       1 RES1    0.0000
      4 N2         6.3194    6.9696    4.7316 N.am      1 RES1    0.0000
      5 C2         6.2613    6.7259    3.2867 C.3       1 RES1    0.0000
      6 C3         5.4368    5.4588    3.0381 C.2       1 RES1    0.0000
      7 C4         4.5358    5.0542    3.9460 C.2       1 RES1    0.0000
      8 C5         5.6875    7.9244    2.5396 C.ar      1 RES1    0.0000
      9 C6         6.2085    8.2805    1.3144 C.ar      1 RES1    0.0000
     10 C7         5.6397    9.3512    0.6291 C.ar      1 RES1    0.0000
     11 N3         6.1819    9.6742   -0.7032 N.pl3     1 RES1    0.0000
     12 O2         5.6135   10.5497   -1.3666 O.2       1 RES1    0.0000
     13 O3         7.1693    9.0685   -1.1098 O.2       1 RES1    0.0000
     14 C8         4.6039   10.0930    1.1208 C.ar      1 RES1    0.0000
     15 C9         4.1366    9.7535    2.3761 C.ar      1 RES1    0.0000
     16 C10        4.6575    8.6851    3.0793 C.ar      1 RES1    0.0000
     17 C11        5.6207    4.7123    1.7814 C.2       1 RES1    0.0000
     18 O4         5.0030    3.7350    1.4531 O.2       1 RES1    0.0000
     19 O5         6.6025    5.2293    1.0466 O.3       1 RES1    0.0000
     20 C12        6.8790    4.5431   -0.2074 C.3       1 RES1    0.0000
     21 C13        6.8224    5.3949   -1.2979 C.3       1 RES1    0.0000
     22 C14        3.5808    3.9184    3.8512 C.3       1 RES1    0.0000
     23 H1         3.6448    5.5866    5.7356 H         1 RES1    0.0000
     24 H2         7.1272    7.4192    5.0860 H         1 RES1    0.0000
     25 H3         6.5996    6.2409    2.5396 H         1 RES1    0.0000
     26 H4         6.9486    7.7954    0.9408 H         1 RES1    0.0000
     27 H5         4.2288   10.8336    0.6345 H         1 RES1    0.0000
     28 H6         3.4225   10.2658    2.7648 H         1 RES1    0.0000
     29 H7         4.3131    8.4769    3.9446 H         1 RES1    0.0000
     30 H8         6.2115    3.8770   -0.3255 H         1 RES1    0.0000
     31 H9         7.7285    4.1574   -0.1621 H         1 RES1    0.0000
     32 H10        7.0007    4.9146   -2.0822 H         1 RES1    0.0000
     33 H11        7.4813    6.0835   -1.1812 H         1 RES1    0.0000
     34 H12        5.9642    5.8019   -1.3446 H         1 RES1    0.0000
     35 H13        3.6703    3.4381    3.0010 H         1 RES1    0.0000
     36 H14        2.6437    4.1479    3.9227 H         1 RES1    0.0000
     37 H15        3.7247    3.2204    4.5366 H         1 RES1    0.0000
@<TRIPOS>BOND
     1    1    2 1
     2    2    3 2
     3    4    2 1
     4    5    4 1
     5    6    5 1
     6    7    1 1
     7    8    5 1
     8    9    8 ar
     9   10    9 ar
    10   11   10 1
    11   12   11 2
    12   13   11 2
    13   14   10 ar
    14   15   14 ar
    15   16    8 ar
    16   17    6 1
    17   18   17 2
    18   19   17 1
    19   20   19 1
    20   21   20 1
    21   22    7 1
    22   23    1 1
    23   24    4 1
    24   25    5 1
    25   26    9 1
    26   27   14 1
    27   28   15 1
    28   29   16 1
    29   30   20 1
    30   31   20 1
    31   32   21 1
    32   33   21 1
    33   34   21 1
    34   35   22 1
    35   36   22 1
    36   37   22 1
    37    6    7 2
    38   15   16 ar
@<TRIPOS>SUBSTRUCTURE
     1 RES1 1

@<TRIPOS>CRYSIN
   8.6700   11.8310   13.7590  90.0000  93.4000  90.0000 231 1

