# MOL2 file generated by ConQuest
# Please check atom types

@<TRIPOS>MOLECULE
REWDAY
    47    48     1
SMALL
NO_CHARGES
****
Generated from CSD

@<TRIPOS>ATOM
      1 N1         5.7534   10.9027    5.5172 N.am      1 RES1    0.0000
      2 C1         4.7505   10.3871    6.2876 C.2       1 RES1    0.0000
      3 N2         3.4669   10.5751    5.7842 N.am      1 RES1    0.0000
      4 C2         3.2591   10.8913    4.3523 C.3       1 RES1    0.0000
      5 C3         4.3595   11.7859    3.8366 C.2       1 RES1    0.0000
      6 C4         5.5728   11.7460    4.4282 C.2       1 RES1    0.0000
      7 C5         3.0854    9.6207    3.5347 C.ar      1 RES1    0.0000
      8 C6         1.9049    9.3786    2.8585 C.ar      1 RES1    0.0000
      9 C7         1.7863    8.2419    2.1081 C.ar      1 RES1    0.0000
     10 N3         0.5230    8.0197    1.3725 N.pl3     1 RES1    0.0000
     11 O1         0.4761    7.0311    0.6518 O.2       1 RES1    0.0000
     12 O2        -0.3660    8.8373    1.4851 O.2       1 RES1    0.0000
     13 C8         2.7748    7.3017    2.0112 C.ar      1 RES1    0.0000
     14 C9         3.9571    7.5268    2.6971 C.ar      1 RES1    0.0000
     15 C10        4.1015    8.6777    3.4326 C.ar      1 RES1    0.0000
     16 O3         4.9922    9.8230    7.3365 O.2       1 RES1    0.0000
     17 C11        2.2809   10.3956    6.5459 C.2       1 RES1    0.0000
     18 O4         1.2004   10.5552    5.9849 O.2       1 RES1    0.0000
     19 N4         2.4059   10.0880    7.8260 N.am      1 RES1    0.0000
     20 C12        1.2279    9.9398    8.6566 C.3       1 RES1    0.0000
     21 C13        4.0848   12.6491    2.6866 C.2       1 RES1    0.0000
     22 O5         4.8704   13.3414    2.0985 O.2       1 RES1    0.0000
     23 O6         2.7854   12.5545    2.3123 O.3       1 RES1    0.0000
     24 C14        2.3655   13.3556    1.1657 C.3       1 RES1    0.0000
     25 C15        1.2322   12.6263    0.5070 C.3       1 RES1    0.0000
     26 C16        1.9842   14.7260    1.6264 C.3       1 RES1    0.0000
     27 C17        6.7953   12.5209    4.0530 C.3       1 RES1    0.0000
     28 H1         3.3142    9.8486    8.2483 H         1 RES1    0.0000
     29 H2         6.6449   10.6634    5.7440 H         1 RES1    0.0000
     30 H3         2.4455   11.3785    4.2572 H         1 RES1    0.0000
     31 H4         1.1800    9.9968    2.9152 H         1 RES1    0.0000
     32 H5         2.6517    6.5126    1.4921 H         1 RES1    0.0000
     33 H6         4.6633    6.8915    2.6561 H         1 RES1    0.0000
     34 H7         4.9200    8.8316    3.8925 H         1 RES1    0.0000
     35 H8         1.4838    9.7204    9.5423 H         1 RES1    0.0000
     36 H9         0.7498   10.7631    8.6575 H         1 RES1    0.0000
     37 H10        0.6796    9.2532    8.2998 H         1 RES1    0.0000
     38 H11        3.0663   13.4781    0.5323 H         1 RES1    0.0000
     39 H12        0.9312   13.1192   -0.2478 H         1 RES1    0.0000
     40 H13        1.5316   11.7688    0.2234 H         1 RES1    0.0000
     41 H14        0.5194   12.5238    1.1239 H         1 RES1    0.0000
     42 H15        2.7376   15.1391    2.0269 H         1 RES1    0.0000
     43 H16        1.7037   15.2388    0.8743 H         1 RES1    0.0000
     44 H17        1.2797   14.6604    2.2494 H         1 RES1    0.0000
     45 H18        6.6018   13.0708    3.3035 H         1 RES1    0.0000
     46 H19        7.0664   13.0594    4.7834 H         1 RES1    0.0000
     47 H20        7.4937   11.9141    3.8270 H         1 RES1    0.0000
@<TRIPOS>BOND
     1    1    2 1
     2    2    3 1
     3    3    4 1
     4    4    5 1
     5    5    6 2
     6    6    1 1
     7    7    4 1
     8    8    7 ar
     9    9    8 ar
    10   10    9 1
    11   11   10 2
    12   12   10 2
    13   13    9 ar
    14   14   13 ar
    15   15    7 ar
    16   16    2 2
    17   17    3 1
    18   18   17 2
    19   19   17 1
    20   20   19 1
    21   21    5 1
    22   22   21 2
    23   23   21 1
    24   24   23 1
    25   25   24 1
    26   26   24 1
    27   27    6 1
    28   28   19 1
    29   29    1 1
    30   30    4 1
    31   31    8 1
    32   32   13 1
    33   33   14 1
    34   34   15 1
    35   35   20 1
    36   36   20 1
    37   37   20 1
    38   38   24 1
    39   39   25 1
    40   40   25 1
    41   41   25 1
    42   42   26 1
    43   43   26 1
    44   44   26 1
    45   45   27 1
    46   46   27 1
    47   47   27 1
    48   14   15 ar
@<TRIPOS>SUBSTRUCTURE
     1 RES1 1

@<TRIPOS>CRYSIN
   7.3860   28.4890    9.2300  90.0000 109.0300  90.0000  14 1

