# MOL2 file generated by ConQuest
# Please check atom types

@<TRIPOS>MOLECULE
REWFAA
    50    51     1
SMALL
NO_CHARGES
****
Generated from CSD

@<TRIPOS>ATOM
      1 N1         6.7943    4.8656    6.0815 N.am      1 RES1    0.0000
      2 C1         6.3051    4.5552    4.8477 C.2       1 RES1    0.0000
      3 N2         5.1742    3.7998    4.8428 N.am      1 RES1    0.0000
      4 C2         4.7511    3.0201    6.0342 C.3       1 RES1    0.0000
      5 C3         5.0521    3.8340    7.2740 C.2       1 RES1    0.0000
      6 C4         6.0833    4.6915    7.2582 C.2       1 RES1    0.0000
      7 C5         5.3603    1.6273    6.1081 C.ar      1 RES1    0.0000
      8 C6         4.5807    0.5303    5.7898 C.ar      1 RES1    0.0000
      9 C7         5.1120   -0.7354    5.9426 C.ar      1 RES1    0.0000
     10 N3         4.2622   -1.8869    5.6006 N.pl3     1 RES1    0.0000
     11 O1         4.5918   -2.9847    5.9603 O.2       1 RES1    0.0000
     12 O2         3.2735   -1.7064    4.9541 O.2       1 RES1    0.0000
     13 C8         6.3892   -0.9564    6.3910 C.ar      1 RES1    0.0000
     14 C9         7.1799    0.1341    6.6659 C.ar      1 RES1    0.0000
     15 C10        6.6641    1.4159    6.5359 C.ar      1 RES1    0.0000
     16 O3         6.8429    4.9543    3.8129 O.2       1 RES1    0.0000
     17 C11        4.5403    3.4733    3.5862 C.2       1 RES1    0.0000
     18 N4         4.0302    4.5002    2.9191 N.am      1 RES1    0.0000
     19 O4         4.4688    2.3128    3.2393 O.2       1 RES1    0.0000
     20 C12        3.4260    4.2175    1.6231 C.3       1 RES1    0.0000
     21 C13        4.0049    5.8807    3.3576 C.3       1 RES1    0.0000
     22 C14        4.2487    3.5596    8.4783 C.2       1 RES1    0.0000
     23 O5         4.3295    4.1180    9.5387 O.2       1 RES1    0.0000
     24 O6         3.3901    2.5654    8.2496 O.3       1 RES1    0.0000
     25 C15        2.5735    2.0902    9.3613 C.3       1 RES1    0.0000
     26 C16        1.3054    2.8130    9.3485 C.3       1 RES1    0.0000
     27 C17        2.4743    0.6421    9.2381 C.3       1 RES1    0.0000
     28 C18        6.6183    5.4976    8.4004 C.3       1 RES1    0.0000
     29 H1         7.6879    5.2332    6.1308 H         1 RES1    0.0000
     30 H2         3.8025    2.8769    5.9652 H         1 RES1    0.0000
     31 H3         3.6815    0.6480    5.4548 H         1 RES1    0.0000
     32 H4         6.7286   -1.8537    6.5171 H         1 RES1    0.0000
     33 H5         8.0863    0.0019    6.9429 H         1 RES1    0.0000
     34 H6         7.2129    2.1818    6.7576 H         1 RES1    0.0000
     35 H7         3.5025    3.2719    1.4231 H         1 RES1    0.0000
     36 H8         2.5138    4.4549    1.5945 H         1 RES1    0.0000
     37 H9         3.8931    4.6870    0.9224 H         1 RES1    0.0000
     38 H10        4.4137    5.9624    4.2180 H         1 RES1    0.0000
     39 H11        4.4863    6.4310    2.7407 H         1 RES1    0.0000
     40 H12        3.1086    6.1990    3.4138 H         1 RES1    0.0000
     41 H13        2.9562    2.2810   10.2591 H         1 RES1    0.0000
     42 H14        1.4274    3.7601    9.4598 H         1 RES1    0.0000
     43 H15        0.8673    2.6763    8.5019 H         1 RES1    0.0000
     44 H16        0.7107    2.5102   10.0364 H         1 RES1    0.0000
     45 H17        3.3789    0.2302    9.2765 H         1 RES1    0.0000
     46 H18        1.9674    0.2418    9.9191 H         1 RES1    0.0000
     47 H19        2.1229    0.4069    8.3847 H         1 RES1    0.0000
     48 H20        7.3552    6.0279    8.1176 H         1 RES1    0.0000
     49 H21        5.9363    6.0780    8.7414 H         1 RES1    0.0000
     50 H22        6.9034    4.9225    9.1080 H         1 RES1    0.0000
@<TRIPOS>BOND
     1    1    2 1
     2    2    3 1
     3    3    4 1
     4    4    5 1
     5    5    6 2
     6    6    1 1
     7    7    4 1
     8    8    7 ar
     9    9    8 ar
    10   10    9 1
    11   11   10 2
    12   12   10 2
    13   13    9 ar
    14   14   13 ar
    15   15    7 ar
    16   16    2 2
    17   17    3 1
    18   18   17 1
    19   19   17 2
    20   20   18 1
    21   21   18 1
    22   22    5 1
    23   23   22 2
    24   24   22 1
    25   25   24 1
    26   26   25 1
    27   27   25 1
    28   28    6 1
    29   29    1 1
    30   30    4 1
    31   31    8 1
    32   32   13 1
    33   33   14 1
    34   34   15 1
    35   35   20 1
    36   36   20 1
    37   37   20 1
    38   38   21 1
    39   39   21 1
    40   40   21 1
    41   41   25 1
    42   42   26 1
    43   43   26 1
    44   44   26 1
    45   45   27 1
    46   46   27 1
    47   47   27 1
    48   48   28 1
    49   49   28 1
    50   50   28 1
    51   14   15 ar
@<TRIPOS>SUBSTRUCTURE
     1 RES1 1

@<TRIPOS>CRYSIN
   9.9310   10.6800   11.0400  82.4000  63.8100  84.6400   2 1

