# MOL2 file generated by ConQuest
# Please check atom types

@<TRIPOS>MOLECULE
REWKEJ
    32    33     1
SMALL
NO_CHARGES
****
Generated from CSD

@<TRIPOS>ATOM
      1 O1         2.9869   11.4315    2.1233 O.3       1 RES1    0.0000
      2 N1         2.1324   12.3249    1.4557 N.2       1 RES1    0.0000
      3 C1         1.8924   13.3170    2.1998 C.2       1 RES1    0.0000
      4 C2         2.5633   13.2519    3.5257 C.3       1 RES1    0.0000
      5 C3         3.2490   11.9107    3.4689 C.3       1 RES1    0.0000
      6 C4         2.8359   10.8555    4.4772 C.3       1 RES1    0.0000
      7 C5         1.0117   14.3958    1.7304 C.ar      1 RES1    0.0000
      8 C6         0.7811   15.5082    2.5231 C.ar      1 RES1    0.0000
      9 C7        -0.0818   16.5022    2.0955 C.ar      1 RES1    0.0000
     10 C8        -0.7223   16.4076    0.8820 C.ar      1 RES1    0.0000
     11 C9        -0.4791   15.3208    0.0892 C.ar      1 RES1    0.0000
     12 C10        0.3753   14.3228    0.5053 C.ar      1 RES1    0.0000
     13 C11        3.2060   11.3565    5.8622 C.3       1 RES1    0.0000
     14 C12        3.6159    9.5657    4.1851 C.3       1 RES1    0.0000
     15 C13        1.3503   10.5577    4.3868 C.3       1 RES1    0.0000
     16 H1         3.1190   14.0112    3.5836 H         1 RES1    0.0000
     17 H2         1.8494   13.2203    4.1898 H         1 RES1    0.0000
     18 H3         4.1978   12.0369    3.5616 H         1 RES1    0.0000
     19 H4         1.2528   15.6127    3.3565 H         1 RES1    0.0000
     20 H5        -0.1971   17.2517    2.6506 H         1 RES1    0.0000
     21 H6        -1.2654   17.1551    0.4879 H         1 RES1    0.0000
     22 H7        -1.0149   15.2242   -0.7939 H         1 RES1    0.0000
     23 H8         0.5347   13.5063   -0.0278 H         1 RES1    0.0000
     24 H9         2.8233   12.1375    6.0952 H         1 RES1    0.0000
     25 H10        2.9995   10.6741    6.5089 H         1 RES1    0.0000
     26 H11        4.1569   11.5301    5.9051 H         1 RES1    0.0000
     27 H12        4.5501    9.8497    4.2060 H         1 RES1    0.0000
     28 H13        3.4021    8.9542    4.8945 H         1 RES1    0.0000
     29 H14        3.4125    9.2126    3.2464 H         1 RES1    0.0000
     30 H15        0.8544   11.3900    4.5943 H         1 RES1    0.0000
     31 H16        1.1428    9.8299    5.0590 H         1 RES1    0.0000
     32 H17        1.1428   10.2560    3.4782 H         1 RES1    0.0000
@<TRIPOS>BOND
     1    1    2 1
     2    2    3 2
     3    3    4 1
     4    4    5 1
     5    5    1 1
     6    6    5 1
     7    7    3 1
     8    8    7 ar
     9    9    8 ar
    10   10    9 ar
    11   11   10 ar
    12   12    7 ar
    13   13    6 1
    14   14    6 1
    15   15    6 1
    16   16    4 1
    17   17    4 1
    18   18    5 1
    19   19    8 1
    20   20    9 1
    21   21   10 1
    22   22   11 1
    23   23   12 1
    24   24   13 1
    25   25   13 1
    26   26   13 1
    27   27   14 1
    28   28   14 1
    29   29   14 1
    30   30   15 1
    31   31   15 1
    32   32   15 1
    33   11   12 ar
@<TRIPOS>SUBSTRUCTURE
     1 RES1 1

@<TRIPOS>CRYSIN
  10.4840   19.7230   11.5900  90.0000  90.0000  90.0000  61 1

