# MOL2 file generated by ConQuest
# Please check atom types

@<TRIPOS>MOLECULE
REWWAR
    46    48     1
SMALL
NO_CHARGES
****
Generated from CSD

@<TRIPOS>ATOM
      1 O1         5.0447    0.6657    4.3946 O.3       1 RES1    0.0000
      2 O2         1.6912    0.6058    8.6208 O.3       1 RES1    0.0000
      3 O3         1.6691   -1.4374    6.9887 O.2       1 RES1    0.0000
      4 N1         2.6320    0.5136    7.6070 N.am      1 RES1    0.0000
      5 C1         4.2670    0.5093    5.4814 C.2       1 RES1    0.0000
      6 C2         4.2879    1.5920    6.3874 C.2       1 RES1    0.0000
      7 C3         3.4626    1.5636    7.4341 C.2       1 RES1    0.0000
      8 C4         2.5415   -0.5888    6.7669 C.2       1 RES1    0.0000
      9 C5         3.4970   -0.6139    5.6890 C.2       1 RES1    0.0000
     10 C6         3.6108   -1.6912    4.6226 C.3       1 RES1    0.0000
     11 C7         2.7287   -2.9464    4.7643 C.3       1 RES1    0.0000
     12 C8         3.1872   -3.7776    5.9536 C.3       1 RES1    0.0000
     13 C9         2.8025   -3.8075    3.5073 C.3       1 RES1    0.0000
     14 C10        2.5527   -3.0837    2.2075 C.3       1 RES1    0.0000
     15 C11        2.6455   -4.0136    1.0058 C.3       1 RES1    0.0000
     16 C12        3.5577   -1.9452    2.0864 C.3       1 RES1    0.0000
     17 C13        2.2166   -0.1244    3.1777 C.3       1 RES1    0.0000
     18 C14        3.5139   -0.9500    3.2587 C.3       1 RES1    0.0000
     19 C15        4.7687   -0.0765    3.1670 C.3       1 RES1    0.0000
     20 C16        4.8032    0.9427    2.0463 C.3       1 RES1    0.0000
     21 C17        6.1649    1.5767    1.8583 C.3       1 RES1    0.0000
     22 H1         4.8917    2.3379    6.2449 H         1 RES1    0.0000
     23 H2         3.4663    2.3005    8.0889 H         1 RES1    0.0000
     24 H3         0.9935    1.0474    8.2315 H         1 RES1    0.0000
     25 H4         4.4490   -2.1322    4.7482 H         1 RES1    0.0000
     26 H5         1.8357   -2.6559    4.8997 H         1 RES1    0.0000
     27 H6         1.6522   -2.7120    2.2004 H         1 RES1    0.0000
     28 H7         5.4208   -0.7481    2.9754 H         1 RES1    0.0000
     29 H8         3.1532   -3.2544    6.7616 H         1 RES1    0.0000
     30 H9         2.6240   -4.5450    6.0756 H         1 RES1    0.0000
     31 H10        4.0818   -4.0774    5.8262 H         1 RES1    0.0000
     32 H11        3.6607   -4.2083    3.5010 H         1 RES1    0.0000
     33 H12        2.1489   -4.5076    3.6169 H         1 RES1    0.0000
     34 H13        3.4015   -1.4776    1.2828 H         1 RES1    0.0000
     35 H14        4.4274   -2.3192    2.0579 H         1 RES1    0.0000
     36 H15        2.1705    0.5050    3.9286 H         1 RES1    0.0000
     37 H16        2.1813    0.3741    2.3786 H         1 RES1    0.0000
     38 H17        1.4578   -0.6920    3.2427 H         1 RES1    0.0000
     39 H18        6.1335    2.2818    1.2026 H         1 RES1    0.0000
     40 H19        4.1250    1.6459    2.2717 H         1 RES1    0.0000
     41 H20        6.4143    2.0574    2.7082 H         1 RES1    0.0000
     42 H21        4.5354    0.5611    1.2383 H         1 RES1    0.0000
     43 H22        6.8031    0.9726    1.6748 H         1 RES1    0.0000
     44 H23        2.3865   -3.6472   -0.0089 H         1 RES1    0.0000
     45 H24        2.0517   -4.7507    1.2116 H         1 RES1    0.0000
     46 H25        3.5419   -4.3392    0.9888 H         1 RES1    0.0000
@<TRIPOS>BOND
     1    1    5 1
     2    2    4 1
     3    3    8 2
     4    4    7 1
     5    5    6 1
     6    6    7 2
     7    7   23 1
     8    8    4 1
     9    9    5 2
    10   10    9 1
    11   11   10 1
    12   12   11 1
    13   13   11 1
    14   14   13 1
    15   15   14 1
    16   16   14 1
    17   17   18 1
    18   18   10 1
    19   19    1 1
    20   20   19 1
    21   21   20 1
    22   22    6 1
    23   24    2 1
    24   25   10 1
    25   26   11 1
    26   27   14 1
    27   28   19 1
    28   29   12 1
    29   30   12 1
    30   31   12 1
    31   32   13 1
    32   33   13 1
    33   34   16 1
    34   35   16 1
    35   36   17 1
    36   37   17 1
    37   38   17 1
    38   39   21 1
    39   40   20 1
    40   41   21 1
    41   42   20 1
    42   43   21 1
    43   44   15 1
    44   45   15 1
    45   46   15 1
    46    8    9 1
    47   16   18 1
    48   18   19 1
@<TRIPOS>SUBSTRUCTURE
     1 RES1 1

@<TRIPOS>CRYSIN
  21.5970   21.5970    8.9085  90.0000  90.0000 120.0000 232 1

