# MOL2 file generated by ConQuest
# Please check atom types

@<TRIPOS>MOLECULE
REXVAS
    30    30     1
SMALL
NO_CHARGES
****
Generated from CSD

@<TRIPOS>ATOM
      1 C1         0.1828    6.6907   10.2394 C.3       1 RES1    0.0000
      2 H1         0.5461    5.8275   10.0116 H         1 RES1    0.0000
      3 C2        -1.3410    6.6395   10.2574 C.3       1 RES1    0.0000
      4 H2        -1.7005    7.5181   10.2508 H         1 RES1    0.0000
      5 C3        -1.8857    5.8792   11.4412 C.3       1 RES1    0.0000
      6 H3        -1.6574    6.3205   12.2509 H         1 RES1    0.0000
      7 H4        -2.8409    5.7578   11.3630 H         1 RES1    0.0000
      8 C4         0.7876    7.2394   11.5038 C.ar      1 RES1    0.0000
      9 C5         0.4189    8.4867   11.9904 C.ar      1 RES1    0.0000
     10 H5        -0.2256    8.9864   11.5539 H         1 RES1    0.0000
     11 C6         0.9924    8.9842   13.1469 C.ar      1 RES1    0.0000
     12 H6         0.7274    9.8286   13.4687 H         1 RES1    0.0000
     13 C7         1.9482    8.2440   13.8096 C.ar      1 RES1    0.0000
     14 H7         2.3498    8.5836   14.5679 H         1 RES1    0.0000
     15 C8         2.3206    7.0101   13.3321 C.ar      1 RES1    0.0000
     16 H8         2.9893    6.5107   13.7857 H         1 RES1    0.0000
     17 C9         1.7407    6.5019   12.1823 C.ar      1 RES1    0.0000
     18 H9         1.9920    5.6489   11.8264 H         1 RES1    0.0000
     19 O1         0.4844    7.5917    9.1248 O.3       1 RES1    0.0000
     20 N1         1.6532    7.2688    8.4041 N.pl3     1 RES1    0.0000
     21 O2         2.1731    6.2063    8.5978 O.2       1 RES1    0.0000
     22 O3         1.9624    8.1465    7.6421 O.2       1 RES1    0.0000
     23 O4        -1.7253    5.9404    9.0386 O.3       1 RES1    0.0000
     24 N2        -2.7302    6.5558    8.2729 N.pl3     1 RES1    0.0000
     25 O5        -3.0018    5.9162    7.2960 O.2       1 RES1    0.0000
     26 O6        -3.1878    7.5974    8.6535 O.2       1 RES1    0.0000
     27 O7        -1.2240    4.5934   11.4006 O.3       1 RES1    0.0000
     28 N3        -1.5178    3.7707   12.4928 N.pl3     1 RES1    0.0000
     29 O8        -1.0612    2.6650   12.3780 O.2       1 RES1    0.0000
     30 O9        -2.1604    4.2412   13.3877 O.2       1 RES1    0.0000
@<TRIPOS>BOND
     1    1    2 1
     2    3    1 1
     3    4    3 1
     4    5    3 1
     5    6    5 1
     6    7    5 1
     7    8    1 1
     8    9    8 ar
     9   10    9 1
    10   11    9 ar
    11   12   11 1
    12   13   11 ar
    13   14   13 1
    14   15   13 ar
    15   16   15 1
    16   17    8 ar
    17   18   17 1
    18   19    1 1
    19   20   19 1
    20   21   20 2
    21   22   20 2
    22   23    3 1
    23   24   23 1
    24   25   24 2
    25   26   24 2
    26   27    5 1
    27   28   27 1
    28   29   28 2
    29   30   28 2
    30   15   17 ar
@<TRIPOS>SUBSTRUCTURE
     1 RES1 1

@<TRIPOS>CRYSIN
  14.9710    8.9310   18.5580  90.0000  92.7500  90.0000  15 1

