# MOL2 file generated by ConQuest
# Please check atom types

@<TRIPOS>MOLECULE
REYKAH
    34    35     1
SMALL
NO_CHARGES
****
Generated from CSD

@<TRIPOS>ATOM
      1 O1         4.8195    1.5490    3.4703 O.2       1 RES1    0.0000
      2 O2        -3.0754    4.4980    1.7511 O.2       1 RES1    0.0000
      3 O3        -2.6126    4.7210    3.8434 O.2       1 RES1    0.0000
      4 N1         1.6750    0.4296    2.2187 N.pl3     1 RES1    0.0000
      5 N2         1.2629   -0.7259    1.6971 N.2       1 RES1    0.0000
      6 N3         2.3088   -1.5254    1.6257 N.2       1 RES1    0.0000
      7 N4        -2.4064    4.2641    2.7519 N.pl3     1 RES1    0.0000
      8 C1         3.0151    0.3774    2.5060 C.2       1 RES1    0.0000
      9 C2         3.4049   -0.8946    2.1059 C.2       1 RES1    0.0000
     10 C3         4.7494   -1.5880    2.1040 C.3       1 RES1    0.0000
     11 C4         4.6397   -2.8936    1.3171 C.3       1 RES1    0.0000
     12 C5         5.1515   -1.8579    3.5243 C.3       1 RES1    0.0000
     13 C6         5.7886   -0.7419    1.4126 C.3       1 RES1    0.0000
     14 C7         0.7069    1.4779    2.3682 C.ar      1 RES1    0.0000
     15 C8         0.5076    2.0832    3.5889 C.ar      1 RES1    0.0000
     16 C9        -0.5059    3.0264    3.7085 C.ar      1 RES1    0.0000
     17 C10       -1.2775    3.3146    2.6083 C.ar      1 RES1    0.0000
     18 C11       -1.0751    2.7242    1.3952 C.ar      1 RES1    0.0000
     19 C12       -0.0596    1.8034    1.2660 C.ar      1 RES1    0.0000
     20 C13        3.7039    1.5581    3.0123 C.2       1 RES1    0.0000
     21 H1         5.4941   -3.3338    1.3617 H         1 RES1    0.0000
     22 H2         4.1027   -3.3196    1.0774 H         1 RES1    0.0000
     23 H3         4.3708   -3.1705    2.4158 H         1 RES1    0.0000
     24 H4         6.0710   -2.2879    3.5639 H         1 RES1    0.0000
     25 H5         5.3571   -0.9716    3.8939 H         1 RES1    0.0000
     26 H6         4.4868   -2.1570    4.1078 H         1 RES1    0.0000
     27 H7         6.6525   -1.2347    1.4577 H         1 RES1    0.0000
     28 H8         5.8961    0.1934    1.9637 H         1 RES1    0.0000
     29 H9         5.5128   -0.7284    0.4387 H         1 RES1    0.0000
     30 H10        1.0370    1.8018    4.3082 H         1 RES1    0.0000
     31 H11       -0.6303    3.3988    4.5184 H         1 RES1    0.0000
     32 H12       -1.6464    2.9777    0.6257 H         1 RES1    0.0000
     33 H13        0.1204    1.3377    0.4286 H         1 RES1    0.0000
     34 H14        3.2122    2.4993    2.9462 H         1 RES1    0.0000
@<TRIPOS>BOND
     1    1   20 2
     2    2    7 2
     3    3    7 2
     4    4    5 1
     5    5    6 2
     6    6    9 1
     7    7   17 1
     8    8    4 1
     9    9    8 2
    10   10    9 1
    11   11   10 1
    12   12   10 1
    13   13   10 1
    14   14    4 1
    15   15   14 ar
    16   16   15 ar
    17   17   16 ar
    18   18   17 ar
    19   19   14 ar
    20   20    8 1
    21   21   11 1
    22   22   11 1
    23   23   11 1
    24   24   12 1
    25   25   12 1
    26   26   12 1
    27   27   13 1
    28   28   13 1
    29   29   13 1
    30   30   15 1
    31   31   16 1
    32   32   18 1
    33   33   19 1
    34   34   20 1
    35   18   19 ar
@<TRIPOS>SUBSTRUCTURE
     1 RES1 1

@<TRIPOS>CRYSIN
   8.5610    8.6080    9.9050  76.8200  93.0100 107.8900   2 1

