# MOL2 file generated by ConQuest
# Please check atom types

@<TRIPOS>MOLECULE
REZGEL
    35    36     1
SMALL
NO_CHARGES
****
Generated from CSD

@<TRIPOS>ATOM
      1 O1         3.0323    1.1677    2.0278 O.3       1 RES1    0.0000
      2 O2         0.6676    6.1630    5.0312 O.2       1 RES1    0.0000
      3 N1         2.7692    6.4269    5.8022 N.am      1 RES1    0.0000
      4 O3         8.0903    4.4318    8.5520 O.2       1 RES1    0.0000
      5 N2         6.9486    4.0424    8.7200 N.pl3     1 RES1    0.0000
      6 C1         3.8428    5.7915    6.5017 C.ar      1 RES1    0.0000
      7 C2         5.8686    4.6590    7.9449 C.ar      1 RES1    0.0000
      8 O4         6.6596    3.1643    9.5209 O.2       1 RES1    0.0000
      9 C3         3.5892    4.6995    7.3075 C.ar      1 RES1    0.0000
     10 H1         2.7280    4.3513    7.3568 H         1 RES1    0.0000
     11 C4         2.1895    4.4711    4.4088 C.ar      1 RES1    0.0000
     12 C5         5.1204    6.3185    6.4325 C.ar      1 RES1    0.0000
     13 H2         5.2851    7.0630    5.9003 H         1 RES1    0.0000
     14 C6         4.6076    4.1226    8.0407 C.ar      1 RES1    0.0000
     15 H3         4.4430    3.3878    8.5862 H         1 RES1    0.0000
     16 C7         3.4506    4.2508    3.8609 C.ar      1 RES1    0.0000
     17 H4         4.1356    4.8563    4.0298 H         1 RES1    0.0000
     18 C8         1.8055    5.7239    5.1209 C.2       1 RES1    0.0000
     19 C9         6.1505    5.7459    7.1478 C.ar      1 RES1    0.0000
     20 H5         7.0148    6.0853    7.0926 H         1 RES1    0.0000
     21 C10        2.6925    2.2243    2.8254 C.ar      1 RES1    0.0000
     22 C11        1.4413    2.4134    3.3785 C.ar      1 RES1    0.0000
     23 H6         0.7659    1.7897    3.2355 H         1 RES1    0.0000
     24 C12        3.6979    3.1492    3.0718 C.ar      1 RES1    0.0000
     25 H7         4.5426    3.0252    2.7018 H         1 RES1    0.0000
     26 C13        1.2005    3.5383    4.1480 C.ar      1 RES1    0.0000
     27 H8         0.3504    3.6714    4.5000 H         1 RES1    0.0000
     28 C14        2.4048    7.7613    6.2819 C.3       1 RES1    0.0000
     29 H9         1.9436    8.2363    5.5867 H         1 RES1    0.0000
     30 H10        3.1988    8.2415    6.5255 H         1 RES1    0.0000
     31 H11        1.8330    7.6808    7.0486 H         1 RES1    0.0000
     32 C15        1.9716    0.3844    1.4786 C.3       1 RES1    0.0000
     33 H12        1.4580   -0.0039    2.1910 H         1 RES1    0.0000
     34 H13        2.3395   -0.3134    0.9317 H         1 RES1    0.0000
     35 H14        1.4040    0.9441    0.9440 H         1 RES1    0.0000
@<TRIPOS>BOND
     1    1   21 1
     2    2   18 2
     3    3    6 1
     4    4    5 2
     5    5    7 1
     6    6    9 ar
     7    7   14 ar
     8    8    5 2
     9    9   10 1
    10   11   16 ar
    11   12    6 ar
    12   13   12 1
    13   14    9 ar
    14   15   14 1
    15   16   17 1
    16   18    3 1
    17   19    7 ar
    18   20   19 1
    19   21   22 ar
    20   22   23 1
    21   24   16 ar
    22   25   24 1
    23   26   11 ar
    24   27   26 1
    25   28    3 1
    26   29   28 1
    27   30   28 1
    28   31   28 1
    29   32    1 1
    30   33   32 1
    31   34   32 1
    32   35   32 1
    33   11   18 1
    34   12   19 ar
    35   21   24 ar
    36   22   26 ar
@<TRIPOS>SUBSTRUCTURE
     1 RES1 1

@<TRIPOS>CRYSIN
  12.2938   12.9502   17.6127  90.0000  90.0000  90.0000  61 1

