# MOL2 file generated by ConQuest
# Please check atom types

@<TRIPOS>MOLECULE
REZHUB
    38    30     2
SMALL
NO_CHARGES
****
Generated from CSD

@<TRIPOS>ATOM
      1 N1         2.8594    0.8697   13.9548 N.3       1 RES1    0.0000
      2 N2         1.8548    2.3281   16.2796 N.pl3     1 RES1    0.0000
      3 O1         0.2314   -1.3540   14.3436 O.2       1 RES1    0.0000
      4 O2         2.8462    2.7829   15.6964 O.2       1 RES1    0.0000
      5 O3         1.3715    2.8757   17.2556 O.2       1 RES1    0.0000
      6 C1         3.0902   -0.0172   12.9100 C.ar      1 RES1    0.0000
      7 C2         4.0764    0.0239   11.9620 C.ar      1 RES1    0.0000
      8 H1         4.7117    0.7031   11.9509 H         1 RES1    0.0000
      9 C3         4.0857   -0.9913   11.0187 C.ar      1 RES1    0.0000
     10 H2         4.7434   -0.9919   10.3602 H         1 RES1    0.0000
     11 C4         3.1399   -2.0071   11.0299 C.ar      1 RES1    0.0000
     12 H3         3.1777   -2.6785   10.3869 H         1 RES1    0.0000
     13 C5         2.1538   -2.0293   11.9776 C.ar      1 RES1    0.0000
     14 H4         1.5139   -2.7040   11.9850 H         1 RES1    0.0000
     15 C6         2.1337   -1.0191   12.9258 C.ar      1 RES1    0.0000
     16 C7         1.2276   -0.7492   14.0240 C.2       1 RES1    0.0000
     17 C8         1.7749    0.5243   14.6930 C.2       1 RES1    0.0000
     18 C9         1.2421    1.1207   15.7822 C.2       1 RES1    0.0000
     19 C10        0.0401    0.6664   16.5148 C.3       1 RES1    0.0000
     20 H5         0.1208    0.8864   17.4560 H         1 RES1    0.0000
     21 H6        -0.0566   -0.2955   16.4321 H         1 RES1    0.0000
     22 C11       -1.2228    1.3956   15.8905 C.3       1 RES1    0.0000
     23 H7        -1.1558    2.3503   16.0493 H         1 RES1    0.0000
     24 H8        -1.2407    1.2496   14.9319 H         1 RES1    0.0000
     25 C12       -2.4633    0.8819   16.4915 C.3       1 RES1    0.0000
     26 H9        -2.5370   -0.0594   16.3178 H         1 RES1    0.0000
     27 H10       -3.2165    1.3379   16.1071 H         1 RES1    0.0000
     28 H11       -2.4472    1.0330   17.4381 H         1 RES1    0.0000
     29 H12        3.3344    1.5606   14.1025 H         1 RES1    0.0000
     30 H13        0.3236    0.4804   17.4114 Du        2 SUP2    0.0000
     31 H14       -0.2224   -0.1727   16.1294 Du        2 SUP2    0.0000
     32 C13       -1.2508    1.5272   16.6665 Du        2 SUP2    0.0000
     33 H15       -1.8736    1.1252   17.2927 Du        2 SUP2    0.0000
     34 H16       -1.0454    2.4297   16.9500 Du        2 SUP2    0.0000
     35 C14       -1.7914    1.4939   15.2361 Du        2 SUP2    0.0000
     36 H17       -1.2093    1.9971   14.6634 Du        2 SUP2    0.0000
     37 H18       -2.6708    1.8788   15.2183 Du        2 SUP2    0.0000
     38 H19       -1.8341    0.5842   14.9304 Du        2 SUP2    0.0000
@<TRIPOS>BOND
     1    1    6 1
     2    2    4 2
     3    3   16 2
     4    5    2 2
     5    6    7 ar
     6    7    8 1
     7    9    7 ar
     8   10    9 1
     9   11    9 ar
    10   12   11 1
    11   13   11 ar
    12   14   13 1
    13   15    6 ar
    14   16   15 1
    15   17    1 1
    16   18    2 1
    17   19   18 1
    18   20   19 1
    19   21   19 1
    20   22   19 1
    21   23   22 1
    22   24   22 1
    23   25   22 1
    24   26   25 1
    25   27   25 1
    26   28   25 1
    27   29    1 1
    28   13   15 ar
    29   16   17 1
    30   17   18 2
@<TRIPOS>SUBSTRUCTURE
     1 RES1 1
     2 SUP2 30

@<TRIPOS>CRYSIN
  13.7730    5.5536   15.1150  90.0000 100.9770  90.0000 231 1

