# MOL2 file generated by ConQuest
# Please check atom types

@<TRIPOS>MOLECULE
REZNAN
    32    33     1
SMALL
NO_CHARGES
****
Generated from CSD

@<TRIPOS>ATOM
      1 O1         0.2628   21.6862    7.6945 O.2       1 RES1    0.0000
      2 O2         3.4332   17.0867    3.5835 O.2       1 RES1    0.0000
      3 O3         2.5612   16.4941    1.6811 O.2       1 RES1    0.0000
      4 N1         1.8315   20.6611    4.7711 N.2       1 RES1    0.0000
      5 N2         1.1865   20.5242    5.9795 N.am      1 RES1    0.0000
      6 N3         3.0295   17.3419    2.4478 N.pl3     1 RES1    0.0000
      7 C1         2.1152   19.6091    4.0990 C.2       1 RES1    0.0000
      8 H1         1.9233   18.7417    4.4390 H         1 RES1    0.0000
      9 C2         0.7880   21.6848    6.5828 C.2       1 RES1    0.0000
     10 C3         2.7489   19.7870    2.7799 C.ar      1 RES1    0.0000
     11 C4         3.1331   18.7233    1.9563 C.ar      1 RES1    0.0000
     12 C5         3.6384   18.8889    0.6830 C.ar      1 RES1    0.0000
     13 H2         3.8580   18.1320    0.1516 H         1 RES1    0.0000
     14 C6         3.8204   20.1595    0.1924 C.ar      1 RES1    0.0000
     15 H3         4.1843   20.2940   -0.6740 H         1 RES1    0.0000
     16 C7         3.4613   21.2461    0.9871 C.ar      1 RES1    0.0000
     17 H4         3.5944   22.1296    0.6611 H         1 RES1    0.0000
     18 C8         2.9163   21.0599    2.2405 C.ar      1 RES1    0.0000
     19 H5         2.6490   21.8164    2.7470 H         1 RES1    0.0000
     20 N4         0.4823   23.1466    4.6205 N.ar      1 RES1    0.0000
     21 C9         0.9840   22.9870    5.8678 C.ar      1 RES1    0.0000
     22 C10        1.5514   24.0184    6.5578 C.ar      1 RES1    0.0000
     23 H6         1.8879   23.8618    7.4323 H         1 RES1    0.0000
     24 N5         1.6467   25.2476    6.0324 N.ar      1 RES1    0.0000
     25 C11        1.1129   25.4165    4.8050 C.ar      1 RES1    0.0000
     26 H7         1.1187   26.2836    4.4171 H         1 RES1    0.0000
     27 C12        0.5649   24.3812    4.1000 C.ar      1 RES1    0.0000
     28 H8         0.2357   24.5381    3.2226 H         1 RES1    0.0000
     29 C13        0.9071   19.2290    6.5858 C.3       1 RES1    0.0000
     30 H9         0.4687   19.3613    7.4522 H         1 RES1    0.0000
     31 H10        1.7470   18.7417    6.7154 H         1 RES1    0.0000
     32 H11        0.3174   18.7117    5.9975 H         1 RES1    0.0000
@<TRIPOS>BOND
     1    1    9 2
     2    2    6 2
     3    3    6 2
     4    4    5 1
     5    5    9 1
     6    6   11 1
     7    7    4 2
     8    8    7 1
     9    9   21 1
    10   10    7 1
    11   11   10 ar
    12   12   11 ar
    13   13   12 1
    14   14   12 ar
    15   15   14 1
    16   16   14 ar
    17   17   16 1
    18   18   10 ar
    19   19   18 1
    20   20   21 ar
    21   21   22 ar
    22   22   23 1
    23   24   22 ar
    24   25   24 ar
    25   26   25 1
    26   27   20 ar
    27   28   27 1
    28   29    5 1
    29   30   29 1
    30   31   29 1
    31   32   29 1
    32   16   18 ar
    33   25   27 ar
@<TRIPOS>SUBSTRUCTURE
     1 RES1 1

@<TRIPOS>CRYSIN
   3.7974   33.3126   10.0959  90.0000  99.0270  90.0000  14 1

