# MOL2 file generated by ConQuest
# Please check atom types

@<TRIPOS>MOLECULE
REZYIH
    59    62     1
SMALL
NO_CHARGES
****
Generated from CSD

@<TRIPOS>ATOM
      1 N1        -3.0504   12.3410    5.9480 N.2       1 RES1    0.0000
      2 O1        -3.8816   12.3008    7.0697 O.3       1 RES1    0.0000
      3 O2        -1.7008   13.4240    2.8028 O.3       1 RES1    0.0000
      4 O3        -3.5299   12.1651    2.9240 O.2       1 RES1    0.0000
      5 O4         0.0956   10.3208    3.1613 O.2       1 RES1    0.0000
      6 O5        -1.9749    9.4813    3.3745 O.3       1 RES1    0.0000
      7 O6         2.7180    7.7842    7.3078 O.3       1 RES1    0.0000
      8 C1        -2.4305   11.2933    5.5655 C.2       1 RES1    0.0000
      9 C2        -2.4393    9.9384    6.2377 C.3       1 RES1    0.0000
     10 H1        -2.9685    9.3061    5.6715 H         1 RES1    0.0000
     11 C3        -3.1384   10.0742    7.5980 C.3       1 RES1    0.0000
     12 H2        -3.4260    9.1793    7.9080 H         1 RES1    0.0000
     13 H3        -2.4965   10.4348    8.2599 H         1 RES1    0.0000
     14 C4        -4.3440   10.9881    7.5232 C.3       1 RES1    0.0000
     15 C5        -5.4191   10.4875    6.5731 C.3       1 RES1    0.0000
     16 H4        -6.1756   11.1103    6.5785 H         1 RES1    0.0000
     17 H5        -5.7228    9.6011    6.8612 H         1 RES1    0.0000
     18 H6        -5.0523   10.4273    5.6671 H         1 RES1    0.0000
     19 C6        -4.9079   11.2830    8.8978 C.3       1 RES1    0.0000
     20 H7        -4.1991   11.6401    9.4717 H         1 RES1    0.0000
     21 H8        -5.2614   10.4574    9.2906 H         1 RES1    0.0000
     22 H9        -5.6286   11.9427    8.8209 H         1 RES1    0.0000
     23 C7        -1.5718   11.6090    4.3343 C.3       1 RES1    0.0000
     24 C8        -2.4184   12.3949    3.2932 C.2       1 RES1    0.0000
     25 C9        -0.3406   13.4413    3.3446 C.3       1 RES1    0.0000
     26 H10        0.2809   12.9948    2.7003 H         1 RES1    0.0000
     27 C10       -0.4387   12.6046    4.6225 C.3       1 RES1    0.0000
     28 H11       -0.6585   13.1744    5.4021 H         1 RES1    0.0000
     29 H12        0.4117   12.1298    4.7999 H         1 RES1    0.0000
     30 C11        0.0898   14.8652    3.5513 C.ar      1 RES1    0.0000
     31 C12       -0.7267   15.7628    4.2348 C.ar      1 RES1    0.0000
     32 H13       -1.5712   15.4808    4.5658 H         1 RES1    0.0000
     33 C13       -0.3050   17.0691    4.4312 C.ar      1 RES1    0.0000
     34 H14       -0.8627   17.6830    4.8941 H         1 RES1    0.0000
     35 C14        0.9309   17.4799    3.9531 C.ar      1 RES1    0.0000
     36 H15        1.2153   18.3761    4.0858 H         1 RES1    0.0000
     37 C15        1.7493   16.5896    3.2838 C.ar      1 RES1    0.0000
     38 H16        2.5995   16.8694    2.9683 H         1 RES1    0.0000
     39 C16        1.3248   15.2851    3.0749 C.ar      1 RES1    0.0000
     40 H17        1.8818   14.6760    2.6031 H         1 RES1    0.0000
     41 C17       -1.0302   10.3910    3.5758 C.2       1 RES1    0.0000
     42 C18       -1.5458    8.3128    2.6301 C.3       1 RES1    0.0000
     43 H18       -2.3102    7.7165    2.4883 H         1 RES1    0.0000
     44 H19       -0.8517    7.8396    3.1361 H         1 RES1    0.0000
     45 H20       -1.1850    8.5929    1.7624 H         1 RES1    0.0000
     46 C19       -1.0469    9.3643    6.4277 C.ar      1 RES1    0.0000
     47 C20       -0.8137    8.0078    6.2419 C.ar      1 RES1    0.0000
     48 H21       -1.5117    7.4567    5.9071 H         1 RES1    0.0000
     49 C21        0.4256    7.4379    6.5386 C.ar      1 RES1    0.0000
     50 H22        0.5620    6.5050    6.4224 H         1 RES1    0.0000
     51 C22        1.4585    8.2397    7.0036 C.ar      1 RES1    0.0000
     52 C23        1.2518    9.6070    7.1767 C.ar      1 RES1    0.0000
     53 H23        1.9603   10.1623    7.4796 H         1 RES1    0.0000
     54 C24        0.0071   10.1510    6.9052 C.ar      1 RES1    0.0000
     55 H24       -0.1341   11.0801    7.0467 H         1 RES1    0.0000
     56 C25        2.9583    6.3921    7.1276 C.3       1 RES1    0.0000
     57 H25        3.8869    6.1873    7.3662 H         1 RES1    0.0000
     58 H26        2.8024    6.1521    6.1898 H         1 RES1    0.0000
     59 H27        2.3514    5.8784    7.7019 H         1 RES1    0.0000
@<TRIPOS>BOND
     1    1    2 1
     2    2   14 1
     3    3   24 1
     4    4   24 2
     5    5   41 2
     6    6   41 1
     7    7   51 1
     8    8    1 2
     9    9    8 1
    10   10    9 1
    11   11    9 1
    12   12   11 1
    13   13   11 1
    14   14   11 1
    15   15   14 1
    16   16   15 1
    17   17   15 1
    18   18   15 1
    19   19   14 1
    20   20   19 1
    21   21   19 1
    22   22   19 1
    23   23    8 1
    24   24   23 1
    25   25    3 1
    26   26   25 1
    27   27   23 1
    28   28   27 1
    29   29   27 1
    30   30   25 1
    31   31   30 ar
    32   32   31 1
    33   33   31 ar
    34   34   33 1
    35   35   33 ar
    36   36   35 1
    37   37   35 ar
    38   38   37 1
    39   39   30 ar
    40   40   39 1
    41   41   23 1
    42   42    6 1
    43   43   42 1
    44   44   42 1
    45   45   42 1
    46   46    9 1
    47   47   46 ar
    48   48   47 1
    49   49   47 ar
    50   50   49 1
    51   51   49 ar
    52   52   51 ar
    53   53   52 1
    54   54   46 ar
    55   55   54 1
    56   56    7 1
    57   57   56 1
    58   58   56 1
    59   59   56 1
    60   25   27 1
    61   37   39 ar
    62   52   54 ar
@<TRIPOS>SUBSTRUCTURE
     1 RES1 1

@<TRIPOS>CRYSIN
  11.9507   12.5554   14.8064  90.0000  96.0620  90.0000 231 1

