# MOL2 file generated by ConQuest
# Please check atom types

@<TRIPOS>MOLECULE
REZYON
    57    60     1
SMALL
NO_CHARGES
****
Generated from CSD

@<TRIPOS>ATOM
      1 N1         0.6373    4.8769    1.0291 N.2       1 RES1    0.0000
      2 O1         1.3795    5.0027    2.2351 O.3       1 RES1    0.0000
      3 O2        -3.5815    5.2186    0.3963 O.2       1 RES1    0.0000
      4 O3        -2.9554    6.2706   -1.4638 O.3       1 RES1    0.0000
      5 O4        -1.7916    3.4086   -1.9195 O.3       1 RES1    0.0000
      6 H1        -2.2203    2.5622   -1.9202 H         1 RES1    0.0000
      7 O5        -2.5743   11.4044    0.7846 O.3       1 RES1    0.0000
      8 C1         0.5975    4.9201    3.4705 C.3       1 RES1    0.0000
      9 C2        -0.3841    6.0816    3.4240 C.3       1 RES1    0.0000
     10 H2         0.1193    6.9335    3.4560 H         1 RES1    0.0000
     11 H3        -0.9700    6.0452    4.2212 H         1 RES1    0.0000
     12 C3        -1.2532    6.0549    2.1557 C.3       1 RES1    0.0000
     13 H4        -2.1000    5.5679    2.3660 H         1 RES1    0.0000
     14 C4        -0.5568    5.3291    1.0264 C.2       1 RES1    0.0000
     15 C5        -1.2387    5.0993   -0.3221 C.3       1 RES1    0.0000
     16 C6        -2.7082    5.5197   -0.3675 C.2       1 RES1    0.0000
     17 C7        -1.7916    6.3196   -2.3391 C.3       1 RES1    0.0000
     18 H5        -1.8992    5.6443   -3.0681 H         1 RES1    0.0000
     19 C8        -0.6062    5.9200   -1.4547 C.3       1 RES1    0.0000
     20 H6        -0.1465    6.7206   -1.0970 H         1 RES1    0.0000
     21 H7         0.0466    5.3762   -1.9623 H         1 RES1    0.0000
     22 C9         1.6344    5.1168    4.5509 C.3       1 RES1    0.0000
     23 H8         2.0952    5.9701    4.4108 H         1 RES1    0.0000
     24 H9         2.2853    4.3852    4.5161 H         1 RES1    0.0000
     25 H10        1.1960    5.1231    5.4270 H         1 RES1    0.0000
     26 C10       -0.0757    3.5595    3.5823 C.3       1 RES1    0.0000
     27 H11        0.6024    2.8541    3.5244 H         1 RES1    0.0000
     28 H12       -0.7207    3.4530    2.8522 H         1 RES1    0.0000
     29 H13       -0.5422    3.4956    4.4424 H         1 RES1    0.0000
     30 C11       -1.6092    7.4713    1.7318 C.ar      1 RES1    0.0000
     31 C12       -0.6227    8.3243    1.2411 C.ar      1 RES1    0.0000
     32 H14        0.2600    7.9935    1.1268 H         1 RES1    0.0000
     33 C13       -0.8972    9.6448    0.9167 C.ar      1 RES1    0.0000
     34 H15       -0.2105   10.2111    0.5862 H         1 RES1    0.0000
     35 C14       -2.1834   10.1252    1.0812 C.ar      1 RES1    0.0000
     36 C15       -3.1854    9.2940    1.5760 C.ar      1 RES1    0.0000
     37 H16       -4.0652    9.6298    1.6990 H         1 RES1    0.0000
     38 C16       -2.8973    7.9832    1.8877 C.ar      1 RES1    0.0000
     39 H17       -3.5880    7.4184    2.2150 H         1 RES1    0.0000
     40 C17       -1.5471   12.3223    0.3949 C.3       1 RES1    0.0000
     41 H18       -1.9438   13.2006    0.2176 H         1 RES1    0.0000
     42 H19       -1.1058   11.9928   -0.4160 H         1 RES1    0.0000
     43 H20       -0.8885   12.4012    1.1163 H         1 RES1    0.0000
     44 C18       -1.2348    3.5883   -0.6278 C.3       1 RES1    0.0000
     45 H21       -0.3094    3.2375   -0.6038 H         1 RES1    0.0000
     46 H22       -1.7731    3.1022    0.0456 H         1 RES1    0.0000
     47 C19       -1.6538    7.6890   -2.9496 C.ar      1 RES1    0.0000
     48 C20       -0.9748    7.8131   -4.1531 C.ar      1 RES1    0.0000
     49 H23       -0.6712    7.0338   -4.6039 H         1 RES1    0.0000
     50 C21       -0.7333    9.0635   -4.7072 C.ar      1 RES1    0.0000
     51 H24       -0.2522    9.1424   -5.5236 H         1 RES1    0.0000
     52 C22       -1.1989   10.1923   -4.0613 C.ar      1 RES1    0.0000
     53 H25       -1.0427   11.0493   -4.4389 H         1 RES1    0.0000
     54 C23       -1.8915   10.0808   -2.8708 C.ar      1 RES1    0.0000
     55 H26       -2.2154   10.8614   -2.4362 H         1 RES1    0.0000
     56 C24       -2.1146    8.8304   -2.3053 C.ar      1 RES1    0.0000
     57 H27       -2.5811    8.7565   -1.4814 H         1 RES1    0.0000
@<TRIPOS>BOND
     1    1    2 1
     2    2    8 1
     3    3   16 2
     4    4   16 1
     5    5    6 1
     6    7   35 1
     7    8    9 1
     8    9   10 1
     9   11    9 1
    10   12    9 1
    11   13   12 1
    12   14    1 2
    13   15   14 1
    14   16   15 1
    15   17    4 1
    16   18   17 1
    17   19   15 1
    18   20   19 1
    19   21   19 1
    20   22    8 1
    21   23   22 1
    22   24   22 1
    23   25   22 1
    24   26    8 1
    25   27   26 1
    26   28   26 1
    27   29   26 1
    28   30   12 1
    29   31   30 ar
    30   32   31 1
    31   33   31 ar
    32   34   33 1
    33   35   33 ar
    34   36   35 ar
    35   37   36 1
    36   38   30 ar
    37   39   38 1
    38   40    7 1
    39   41   40 1
    40   42   40 1
    41   43   40 1
    42   44    5 1
    43   45   44 1
    44   46   44 1
    45   47   17 1
    46   48   47 ar
    47   49   48 1
    48   50   48 ar
    49   51   50 1
    50   52   50 ar
    51   53   52 1
    52   54   52 ar
    53   55   54 1
    54   56   47 ar
    55   57   56 1
    56   12   14 1
    57   15   44 1
    58   17   19 1
    59   36   38 ar
    60   54   56 ar
@<TRIPOS>SUBSTRUCTURE
     1 RES1 1

@<TRIPOS>CRYSIN
   9.6998   12.5290   17.5519  90.0000  90.0000  90.0000  19 1

