# MOL2 file generated by ConQuest
# Please check atom types

@<TRIPOS>MOLECULE
RICCIQ
    41    43     1
SMALL
NO_CHARGES
****
Generated from CSD

@<TRIPOS>ATOM
      1 O1         1.9518    7.1287   -4.3436 O.2       1 RES1    0.0000
      2 O2         2.7474    8.4758   -2.8540 O.2       1 RES1    0.0000
      3 O3         5.3183    0.3205    3.2106 O.2       1 RES1    0.0000
      4 N1         2.5473    7.3537   -3.2958 N.pl3     1 RES1    0.0000
      5 N2         4.4072    2.9297    1.0354 N.2       1 RES1    0.0000
      6 N3         4.7422    1.6674    1.5129 N.am      1 RES1    0.0000
      7 C1         3.7759    5.2815   -0.4538 C.ar      1 RES1    0.0000
      8 H1         4.0033    5.3906    0.4414 H         1 RES1    0.0000
      9 C2         3.3786    6.3762   -1.1927 C.ar      1 RES1    0.0000
     10 H2         3.3504    7.2228   -0.8089 H         1 RES1    0.0000
     11 C3         3.0193    6.1893   -2.5230 C.ar      1 RES1    0.0000
     12 C4         3.0849    4.9564   -3.1320 C.ar      1 RES1    0.0000
     13 H3         2.8507    4.8584   -4.0262 H         1 RES1    0.0000
     14 C5         3.5065    3.8635   -2.3913 C.ar      1 RES1    0.0000
     15 H4         3.5691    3.0286   -2.7964 H         1 RES1    0.0000
     16 C6         3.8405    4.0066   -1.0336 C.ar      1 RES1    0.0000
     17 C7         4.2320    2.8290   -0.2484 C.2       1 RES1    0.0000
     18 C8         4.5061    1.4488   -0.7877 C.3       1 RES1    0.0000
     19 H5         5.3567    1.4131   -1.2549 H         1 RES1    0.0000
     20 H6         3.7994    1.1548   -1.3845 H         1 RES1    0.0000
     21 C9         4.5386    0.6036    0.5061 C.3       1 RES1    0.0000
     22 H7         5.2983   -0.0155    0.4972 H         1 RES1    0.0000
     23 C10        5.0703    1.4548    2.8296 C.2       1 RES1    0.0000
     24 C11        5.0855    2.6655    3.7208 C.3       1 RES1    0.0000
     25 H8         5.3145    2.4012    4.6155 H         1 RES1    0.0000
     26 H9         4.2174    3.0739    3.7202 H         1 RES1    0.0000
     27 H10        5.7342    3.2929    3.3971 H         1 RES1    0.0000
     28 C12        3.2289   -0.1507    0.7186 C.ar      1 RES1    0.0000
     29 C13        2.2447    0.2831    1.5966 C.ar      1 RES1    0.0000
     30 H11        2.4096    1.0155    2.1456 H         1 RES1    0.0000
     31 C14        1.0172   -0.3600    1.6661 C.ar      1 RES1    0.0000
     32 H12        0.3710   -0.0417    2.2549 H         1 RES1    0.0000
     33 C15        0.7279   -1.4705    0.8776 C.ar      1 RES1    0.0000
     34 C16        1.7259   -1.9065   -0.0006 C.ar      1 RES1    0.0000
     35 H13        1.5630   -2.6417   -0.5461 H         1 RES1    0.0000
     36 C17        2.9485   -1.2657   -0.0735 C.ar      1 RES1    0.0000
     37 H14        3.5958   -1.5834   -0.6610 H         1 RES1    0.0000
     38 C18       -0.6060   -2.1715    0.9453 C.3       1 RES1    0.0000
     39 H15       -1.1644   -1.7334    1.5905 H         1 RES1    0.0000
     40 H16       -0.4738   -3.0870    1.2048 H         1 RES1    0.0000
     41 H17       -1.0279   -2.1417    0.0830 H         1 RES1    0.0000
@<TRIPOS>BOND
     1    1    4 2
     2    2    4 2
     3    3   23 2
     4    4   11 1
     5    5    6 1
     6    6   21 1
     7    7    8 1
     8    9    7 ar
     9   10    9 1
    10   11    9 ar
    11   12   11 ar
    12   13   12 1
    13   14   12 ar
    14   15   14 1
    15   16    7 ar
    16   17    5 2
    17   18   17 1
    18   19   18 1
    19   20   18 1
    20   21   18 1
    21   22   21 1
    22   23    6 1
    23   24   23 1
    24   25   24 1
    25   26   24 1
    26   27   24 1
    27   28   21 1
    28   29   28 ar
    29   30   29 1
    30   31   29 ar
    31   32   31 1
    32   33   31 ar
    33   34   33 ar
    34   35   34 1
    35   36   28 ar
    36   37   36 1
    37   38   33 1
    38   39   38 1
    39   40   38 1
    40   41   38 1
    41   14   16 ar
    42   16   17 1
    43   34   36 ar
@<TRIPOS>SUBSTRUCTURE
     1 RES1 1

@<TRIPOS>CRYSIN
  24.0720   11.9050   11.7590  90.0000 104.6500  90.0000  15 1

