# MOL2 file generated by ConQuest
# Please check atom types

@<TRIPOS>MOLECULE
RICTAZ
    45    48     1
SMALL
NO_CHARGES
****
Generated from CSD

@<TRIPOS>ATOM
      1 O1         2.4603    5.8269   10.7319 O.3       1 RES1    0.0000
      2 O2         3.5069    5.1956    8.8522 O.2       1 RES1    0.0000
      3 O3        -0.5293    5.7349    7.2099 O.2       1 RES1    0.0000
      4 O4         1.4738    4.7814    6.7631 O.3       1 RES1    0.0000
      5 O5         1.5494    5.7763   13.3415 O.3       1 RES1    0.0000
      6 N1         1.1042    6.1730   11.1106 N.3       1 RES1    0.0000
      7 N2        -0.0720    4.5011   12.4061 N.2       1 RES1    0.0000
      8 N3        -0.9834    6.2995    9.9664 N.pl3     1 RES1    0.0000
      9 H1        -1.3934    6.2554    9.1409 H         1 RES1    0.0000
     10 C1         2.4544    5.4941    9.3582 C.2       1 RES1    0.0000
     11 C2         1.1108    5.6436    8.8907 C.2       1 RES1    0.0000
     12 C3         0.3163    6.0294    9.9515 C.2       1 RES1    0.0000
     13 C4         0.5998    5.4164    7.5486 C.2       1 RES1    0.0000
     14 C5         0.9896    4.4201    5.4423 C.3       1 RES1    0.0000
     15 H2         0.6271    5.2176    5.0446 H         1 RES1    0.0000
     16 H3         0.3179    3.7319    5.6087 H         1 RES1    0.0000
     17 C6         2.1478    3.8575    4.6745 C.3       1 RES1    0.0000
     18 H4         2.8617    4.5687    4.4744 H         1 RES1    0.0000
     19 H5         1.8574    3.5296    3.7750 H         1 RES1    0.0000
     20 H6         2.5553    3.1356    5.1799 H         1 RES1    0.0000
     21 C7         0.7963    5.4348   12.2611 C.2       1 RES1    0.0000
     22 C8         1.0873    4.9056   14.3209 C.ar      1 RES1    0.0000
     23 C9         1.5380    4.7776   15.6168 C.ar      1 RES1    0.0000
     24 H7         2.2540    5.3582   15.9839 H         1 RES1    0.0000
     25 C10        0.9001    3.7932   16.3688 C.ar      1 RES1    0.0000
     26 H8         1.1894    3.6479   17.3457 H         1 RES1    0.0000
     27 C11       -0.1197    3.0005   15.8348 C.ar      1 RES1    0.0000
     28 H9        -0.5535    2.3172   16.4173 H         1 RES1    0.0000
     29 C12       -0.5581    3.1583   14.5263 C.ar      1 RES1    0.0000
     30 H10       -1.2700    2.5970   14.1686 H         1 RES1    0.0000
     31 C13        0.0748    4.1326   13.7619 C.ar      1 RES1    0.0000
     32 C14       -1.7399    6.7583   11.0965 C.ar      1 RES1    0.0000
     33 C15       -1.4489    7.9754   11.6972 C.ar      1 RES1    0.0000
     34 H11       -0.7077    8.5253   11.3650 H         1 RES1    0.0000
     35 C16       -2.2369    8.4211   12.7554 C.ar      1 RES1    0.0000
     36 H12       -2.0305    9.3252   13.1480 H         1 RES1    0.0000
     37 C17       -3.3084    7.6679   13.2338 C.ar      1 RES1    0.0000
     38 C18       -3.5875    6.4525   12.6019 C.ar      1 RES1    0.0000
     39 H13       -4.3875    5.9125   12.9036 H         1 RES1    0.0000
     40 C19       -2.8125    5.9991   11.5427 C.ar      1 RES1    0.0000
     41 H14       -3.0259    5.1519   11.0684 H         1 RES1    0.0000
     42 C20       -4.1511    8.1554   14.3855 C.3       1 RES1    0.0000
     43 H15       -3.8187    7.8422   15.2476 H         1 RES1    0.0000
     44 H16       -5.1033    7.8422   14.3361 H         1 RES1    0.0000
     45 H17       -4.1842    9.0901   14.4822 H         1 RES1    0.0000
@<TRIPOS>BOND
     1    1    6 1
     2    2   10 2
     3    3   13 2
     4    4   13 1
     5    5   21 1
     6    6   12 1
     7    7   21 2
     8    8    9 1
     9   10    1 1
    10   11   10 1
    11   12    8 1
    12   13   11 1
    13   14    4 1
    14   15   14 1
    15   16   14 1
    16   17   14 1
    17   18   17 1
    18   19   17 1
    19   20   17 1
    20   21    6 1
    21   22    5 1
    22   23   22 ar
    23   24   23 1
    24   25   23 ar
    25   26   25 1
    26   27   25 ar
    27   28   27 1
    28   29   27 ar
    29   30   29 1
    30   31    7 1
    31   32    8 1
    32   33   32 ar
    33   34   33 1
    34   35   33 ar
    35   36   35 1
    36   37   35 ar
    37   38   37 ar
    38   39   38 1
    39   40   32 ar
    40   41   40 1
    41   42   37 1
    42   43   42 1
    43   44   42 1
    44   45   42 1
    45   11   12 2
    46   22   31 ar
    47   29   31 ar
    48   38   40 ar
@<TRIPOS>SUBSTRUCTURE
     1 RES1 1

@<TRIPOS>CRYSIN
   8.9070   13.1360   15.7800  90.0000 103.0800  90.0000 231 1

