# MOL2 file generated by ConQuest
# Please check atom types

@<TRIPOS>MOLECULE
RICXEI
    33    33     1
SMALL
NO_CHARGES
****
Generated from CSD

@<TRIPOS>ATOM
      1 O1         3.9990    6.0127    5.8599 O.3       1 RES1    0.0000
      2 H1         4.5758    6.5535    6.1431 H         1 RES1    0.0000
      3 O2         2.6558    7.0989    7.2784 O.2       1 RES1    0.0000
      4 O3         0.5226    2.9980    4.6861 O.2       1 RES1    0.0000
      5 O4         0.7785    2.9655    7.8086 O.2       1 RES1    0.0000
      6 O5        -3.6027    1.3812    9.4877 O.2       1 RES1    0.0000
      7 O6        -4.7730    2.6873   10.7771 O.2       1 RES1    0.0000
      8 O7        -3.9932    7.4672   10.4531 O.2       1 RES1    0.0000
      9 O8        -2.0043    8.1471    9.9251 O.2       1 RES1    0.0000
     10 N1        -0.5960    4.6315    3.6165 N.am      1 RES1    0.0000
     11 H2        -1.2086    4.0657    3.3378 H         1 RES1    0.0000
     12 H3        -0.6515    5.4830    3.4013 H         1 RES1    0.0000
     13 N2         0.7651    5.1482    7.1402 N.am      1 RES1    0.0000
     14 H4         0.3701    5.9292    7.2308 H         1 RES1    0.0000
     15 N3        -3.8286    2.4591   10.0203 N.pl3     1 RES1    0.0000
     16 N4        -2.8293    7.2696   10.0814 N.pl3     1 RES1    0.0000
     17 C1         2.8708    6.1760    6.5374 C.2       1 RES1    0.0000
     18 C2         1.8849    5.0610    6.2383 C.3       1 RES1    0.0000
     19 H5         2.3386    4.1779    6.3607 H         1 RES1    0.0000
     20 C3         1.4332    5.2029    4.7835 C.3       1 RES1    0.0000
     21 H6         1.0586    6.1092    4.6544 H         1 RES1    0.0000
     22 H7         2.2251    5.1185    4.1966 H         1 RES1    0.0000
     23 C4         0.4160    4.2002    4.3643 C.2       1 RES1    0.0000
     24 C5         0.2782    4.1009    7.8608 C.2       1 RES1    0.0000
     25 C6        -0.9246    4.3811    8.6946 C.ar      1 RES1    0.0000
     26 C7        -1.7522    3.3394    9.0232 C.ar      1 RES1    0.0000
     27 H8        -1.5136    2.4526    8.7808 H         1 RES1    0.0000
     28 C8        -2.9353    3.5722    9.7075 C.ar      1 RES1    0.0000
     29 C9        -3.3213    4.8634   10.0746 C.ar      1 RES1    0.0000
     30 H9        -4.1394    5.0239   10.5301 H         1 RES1    0.0000
     31 C10       -2.4726    5.8903    9.7506 C.ar      1 RES1    0.0000
     32 C11       -1.2794    5.6843    9.0685 C.ar      1 RES1    0.0000
     33 H10       -0.7121    6.4171    8.8578 H         1 RES1    0.0000
@<TRIPOS>BOND
     1    1    2 1
     2    3   17 2
     3    4   23 2
     4    5   24 2
     5    6   15 2
     6    7   15 2
     7    8   16 2
     8    9   16 2
     9   10   11 1
    10   12   10 1
    11   13   14 1
    12   15   28 1
    13   16   31 1
    14   17    1 1
    15   18   13 1
    16   19   18 1
    17   20   18 1
    18   21   20 1
    19   22   20 1
    20   23   10 1
    21   24   13 1
    22   25   24 1
    23   26   25 ar
    24   27   26 1
    25   28   26 ar
    26   29   28 ar
    27   30   29 1
    28   31   29 ar
    29   32   25 ar
    30   33   32 1
    31   17   18 1
    32   20   23 1
    33   31   32 ar
@<TRIPOS>SUBSTRUCTURE
     1 RES1 1

@<TRIPOS>CRYSIN
   6.3810    9.2760   22.6600  90.0000  90.0000  90.0000  19 1

