# MOL2 file generated by ConQuest
# Please check atom types

@<TRIPOS>MOLECULE
RIDBOW
    73    79     1
SMALL
NO_CHARGES
****
Generated from CSD

@<TRIPOS>ATOM
      1 O1        13.5708   -0.8198    4.4614 O.3       1 RES1    0.0000
      2 O2        13.1992    2.8627    6.4791 O.3       1 RES1    0.0000
      3 O3         8.3252    1.3373    3.2420 O.3       1 RES1    0.0000
      4 O4         7.3039   -0.6115    3.6273 O.2       1 RES1    0.0000
      5 O5         5.4856    0.1411    1.6746 O.3       1 RES1    0.0000
      6 O6         3.3919   -0.0403    0.8357 O.2       1 RES1    0.0000
      7 N1        13.3204    0.3763    5.2890 N.2       1 RES1    0.0000
      8 C1        12.4954   -2.0496    2.5689 C.3       1 RES1    0.0000
      9 C2        12.6163   -0.8803    3.5168 C.2       1 RES1    0.0000
     10 C3        11.7502    0.1142    3.6306 C.2       1 RES1    0.0000
     11 C4        12.2257    0.8736    4.7524 C.2       1 RES1    0.0000
     12 C5        11.4264    2.0362    5.1914 C.ar      1 RES1    0.0000
     13 C6        11.9207    3.0576    6.0190 C.ar      1 RES1    0.0000
     14 C7        11.1088    4.1462    6.3035 C.ar      1 RES1    0.0000
     15 C8         9.8375    4.2269    5.7540 C.ar      1 RES1    0.0000
     16 C9         9.3059    3.2323    4.9524 C.ar      1 RES1    0.0000
     17 C10       10.1230    2.1302    4.6679 C.ar      1 RES1    0.0000
     18 C11        9.5528    0.9005    3.8923 C.3       1 RES1    0.0000
     19 C12       10.5466    0.3629    2.8388 C.3       1 RES1    0.0000
     20 C13       10.1294   -1.0416    2.2600 C.3       1 RES1    0.0000
     21 C14       11.3072   -1.7338    1.5999 C.3       1 RES1    0.0000
     22 C15       13.7023    3.8842    7.3359 C.3       1 RES1    0.0000
     23 C16       15.1313    3.4675    7.6887 C.ar      1 RES1    0.0000
     24 C17       15.8840    4.3882    8.4610 C.ar      1 RES1    0.0000
     25 C18       17.1545    4.0118    8.9000 C.ar      1 RES1    0.0000
     26 C19       17.6709    2.7888    8.5944 C.ar      1 RES1    0.0000
     27 C20       16.9426    1.8883    7.8221 C.ar      1 RES1    0.0000
     28 C21       15.6579    2.2243    7.3847 C.ar      1 RES1    0.0000
     29 C22       10.7143    1.3171    1.6681 C.2       1 RES1    0.0000
     30 C23       11.8766    1.5994    1.0861 C.2       1 RES1    0.0000
     31 C24        7.2958    0.5107    3.1835 C.2       1 RES1    0.0000
     32 C25        6.1394    1.1760    2.4973 C.3       1 RES1    0.0000
     33 C26        6.3654    2.3184    1.5430 C.3       1 RES1    0.0000
     34 C27        4.9126    2.8829    1.3039 C.3       1 RES1    0.0000
     35 C28        4.0560    1.9219    2.1608 C.3       1 RES1    0.0000
     36 C29        4.1672    0.5309    1.4926 C.2       1 RES1    0.0000
     37 C30        4.9772    1.5926    3.4290 C.3       1 RES1    0.0000
     38 C31        4.4321    0.5376    4.3443 C.3       1 RES1    0.0000
     39 C32        5.3161    2.8829    4.2582 C.3       1 RES1    0.0000
     40 C33        2.6183    2.3789    2.4030 C.3       1 RES1    0.0000
     41 H1        13.3819   -2.2223    2.0567 H         1 RES1    0.0000
     42 H2        12.3628   -2.9528    3.0778 H         1 RES1    0.0000
     43 H3        11.4256    4.8229    6.8872 H         1 RES1    0.0000
     44 H4         9.2475    4.9547    5.9930 H         1 RES1    0.0000
     45 H5         8.3728    3.2357    4.5443 H         1 RES1    0.0000
     46 H6         9.3130    0.1122    4.5134 H         1 RES1    0.0000
     47 H7         9.8017   -1.6901    3.0176 H         1 RES1    0.0000
     48 H8         9.3857   -1.0100    1.6112 H         1 RES1    0.0000
     49 H9        11.6538   -1.1955    0.8731 H         1 RES1    0.0000
     50 H10       11.0139   -2.6470    1.1836 H         1 RES1    0.0000
     51 H11       13.7212    4.7040    6.8417 H         1 RES1    0.0000
     52 H12       13.1490    3.9225    8.1359 H         1 RES1    0.0000
     53 H13       15.4582    5.1455    8.8025 H         1 RES1    0.0000
     54 H14       17.7271    4.6019    9.4040 H         1 RES1    0.0000
     55 H15       18.6046    2.4877    8.8919 H         1 RES1    0.0000
     56 H16       17.3088    0.8696    7.6416 H         1 RES1    0.0000
     57 H17       15.1231    1.5315    6.7961 H         1 RES1    0.0000
     58 H18        7.0069    2.9286    1.9039 H         1 RES1    0.0000
     59 H19        6.7659    1.9152    0.6666 H         1 RES1    0.0000
     60 H20        4.8555    3.7686    1.6665 H         1 RES1    0.0000
     61 H21        4.6509    2.8251    0.3707 H         1 RES1    0.0000
     62 H22        3.5743    0.8084    4.7492 H         1 RES1    0.0000
     63 H23        4.2134   -0.3555    3.8273 H         1 RES1    0.0000
     64 H24        5.0577    0.2493    5.0662 H         1 RES1    0.0000
     65 H25        5.9673    2.6148    5.0061 H         1 RES1    0.0000
     66 H26        5.7105    3.5347    3.7021 H         1 RES1    0.0000
     67 H27        4.4838    3.1759    4.6906 H         1 RES1    0.0000
     68 H28        2.6381    3.2068    2.8957 H         1 RES1    0.0000
     69 H29        2.1603    2.4602    1.5430 H         1 RES1    0.0000
     70 H30        2.1434    1.6692    2.9526 H         1 RES1    0.0000
     71 H31        9.8987    1.7015    1.2974 H         1 RES1    0.0000
     72 H32       12.7264    1.1007    1.3917 H         1 RES1    0.0000
     73 H33       11.9350    2.1571    0.2975 H         1 RES1    0.0000
@<TRIPOS>BOND
     1    1    7 1
     2    2   13 1
     3    3   18 1
     4    4   31 2
     5    5   32 1
     6    6   36 2
     7    7   11 2
     8    8    9 1
     9    9    1 1
    10   10    9 2
    11   11   10 1
    12   12   11 1
    13   13   12 ar
    14   14   13 ar
    15   15   14 ar
    16   16   15 ar
    17   17   12 ar
    18   18   17 1
    19   19   10 1
    20   20   19 1
    21   21    8 1
    22   22    2 1
    23   23   22 1
    24   24   23 ar
    25   25   24 ar
    26   26   25 ar
    27   27   26 ar
    28   28   23 ar
    29   29   19 1
    30   30   29 2
    31   31    3 1
    32   32   31 1
    33   33   32 1
    34   34   33 1
    35   35   34 1
    36   36    5 1
    37   37   32 1
    38   38   37 1
    39   39   37 1
    40   40   35 1
    41   41    8 1
    42   42    8 1
    43   43   14 1
    44   44   15 1
    45   45   16 1
    46   46   18 1
    47   47   20 1
    48   48   20 1
    49   49   21 1
    50   50   21 1
    51   51   22 1
    52   52   22 1
    53   53   24 1
    54   54   25 1
    55   55   26 1
    56   56   27 1
    57   57   28 1
    58   58   33 1
    59   59   33 1
    60   60   34 1
    61   61   34 1
    62   62   38 1
    63   63   38 1
    64   64   38 1
    65   65   39 1
    66   66   39 1
    67   67   39 1
    68   68   40 1
    69   69   40 1
    70   70   40 1
    71   71   29 1
    72   72   30 1
    73   73   30 1
    74   16   17 ar
    75   18   19 1
    76   20   21 1
    77   27   28 ar
    78   35   36 1
    79   35   37 1
@<TRIPOS>SUBSTRUCTURE
     1 RES1 1

@<TRIPOS>CRYSIN
  12.8400    6.7200   16.2800  90.0000  92.9300  90.0000   4 1

