# MOL2 file generated by ConQuest
# Please check atom types

@<TRIPOS>MOLECULE
RIFXEJ
    38    39     1
SMALL
NO_CHARGES
****
Generated from CSD

@<TRIPOS>ATOM
      1 O1         0.2672    0.0203    6.2532 O.2       1 RES1    0.0000
      2 O2         0.0761    0.7610    8.2388 O.2       1 RES1    0.0000
      3 O3        -4.0799    1.5995    8.4471 O.2       1 RES1    0.0000
      4 O4        -5.3174    2.7390    7.0404 O.3       1 RES1    0.0000
      5 O5        -3.2412    4.8011    9.0837 O.2       1 RES1    0.0000
      6 N1        -0.3015    0.6815    7.1086 N.pl3     1 RES1    0.0000
      7 C1        -0.5137    3.6615    7.2883 C.ar      1 RES1    0.0000
      8 C2         0.1378    3.8312    6.0684 C.ar      1 RES1    0.0000
      9 C3         1.2463    4.6565    5.9447 C.ar      1 RES1    0.0000
     10 C4         1.7306    5.3106    7.0267 C.ar      1 RES1    0.0000
     11 C5         1.1068    5.1450    8.2445 C.ar      1 RES1    0.0000
     12 C6        -0.0005    4.3334    8.3753 C.ar      1 RES1    0.0000
     13 C7        -1.7047    2.7325    7.4827 C.3       1 RES1    0.0000
     14 C8        -1.5394    1.4070    6.7340 C.3       1 RES1    0.0000
     15 C9        -3.0647    3.3727    7.1140 C.3       1 RES1    0.0000
     16 C10       -3.2619    4.7163    7.8908 C.2       1 RES1    0.0000
     17 C11       -3.4833    5.8313    6.9286 C.3       1 RES1    0.0000
     18 C12       -3.9282    5.1539    5.6711 C.3       1 RES1    0.0000
     19 C13       -3.2092    3.7949    5.6580 C.3       1 RES1    0.0000
     20 C14       -4.1864    2.4493    7.6236 C.2       1 RES1    0.0000
     21 C15       -6.4605    1.9077    7.4326 C.3       1 RES1    0.0000
     22 H1        -0.1754    3.3602    5.3242 H         1 RES1    0.0000
     23 H2         1.6650    4.7286    5.0984 H         1 RES1    0.0000
     24 H3         2.4794    5.8473    6.9446 H         1 RES1    0.0000
     25 H4         1.4478    5.5616    8.9835 H         1 RES1    0.0000
     26 H5        -0.4424    4.1799    9.2469 H         1 RES1    0.0000
     27 H6        -1.7637    2.5071    8.4167 H         1 RES1    0.0000
     28 H7        -1.4607    1.4952    5.7986 H         1 RES1    0.0000
     29 H8        -2.2679    0.7957    6.9662 H         1 RES1    0.0000
     30 H9        -4.0314    6.4481    7.2525 H         1 RES1    0.0000
     31 H10       -2.5753    6.1891    6.7735 H         1 RES1    0.0000
     32 H11       -3.7202    5.6711    4.8829 H         1 RES1    0.0000
     33 H12       -4.9160    4.9796    5.7438 H         1 RES1    0.0000
     34 H13       -3.6139    3.1319    5.1007 H         1 RES1    0.0000
     35 H14       -2.3479    3.8902    5.2740 H         1 RES1    0.0000
     36 H15       -6.1496    0.9879    7.3437 H         1 RES1    0.0000
     37 H16       -6.5837    1.9491    8.3358 H         1 RES1    0.0000
     38 H17       -7.0304    2.1761    6.9218 H         1 RES1    0.0000
@<TRIPOS>BOND
     1    1    6 2
     2    2    6 2
     3    3   20 2
     4    4   20 1
     5    5   16 2
     6    6   14 1
     7    7    8 ar
     8    8    9 ar
     9    9   10 ar
    10   10   11 ar
    11   11   12 ar
    12   12    7 ar
    13   13    7 1
    14   14   13 1
    15   15   13 1
    16   16   15 1
    17   17   16 1
    18   18   17 1
    19   19   15 1
    20   20   15 1
    21   21    4 1
    22   22    8 1
    23   23    9 1
    24   24   10 1
    25   25   11 1
    26   26   12 1
    27   27   13 1
    28   28   14 1
    29   29   14 1
    30   30   17 1
    31   31   17 1
    32   32   18 1
    33   33   18 1
    34   34   19 1
    35   35   19 1
    36   36   21 1
    37   37   21 1
    38   38   21 1
    39   18   19 1
@<TRIPOS>SUBSTRUCTURE
     1 RES1 1

@<TRIPOS>CRYSIN
   9.6140   13.3500   12.0830  90.0000 109.3100  90.0000  14 1

