# MOL2 file generated by ConQuest
# Please check atom types

@<TRIPOS>MOLECULE
RIGHUK
    31    32     1
SMALL
NO_CHARGES
****
Generated from CSD

@<TRIPOS>ATOM
      1 C1         2.7883    1.4019    3.9125 C.ar      1 RES1    0.0000
      2 C2         2.5466    2.7025    3.4945 C.ar      1 RES1    0.0000
      3 C3         3.3129    3.7697    3.8817 C.ar      1 RES1    0.0000
      4 C4         4.3615    3.5301    4.7155 C.ar      1 RES1    0.0000
      5 C5         4.6746    2.2741    5.1474 C.ar      1 RES1    0.0000
      6 C6         3.8916    1.2284    4.7375 C.ar      1 RES1    0.0000
      7 C7         1.9539    0.2012    3.5482 C.3       1 RES1    0.0000
      8 C8         1.9382   -0.1628    2.0687 C.ar      1 RES1    0.0000
      9 C9         1.1458   -1.2146    1.6183 C.ar      1 RES1    0.0000
     10 C10        1.1987   -1.5370    0.2968 C.ar      1 RES1    0.0000
     11 C11        2.0338   -0.8476   -0.5429 C.ar      1 RES1    0.0000
     12 C12        2.7656    0.1735   -0.0147 C.ar      1 RES1    0.0000
     13 H1        -0.3377   -2.5535    2.2031 H         1 RES1    0.0000
     14 H2        -0.3448   -1.3558    3.0192 H         1 RES1    0.0000
     15 H3         0.6156   -2.1482    3.4306 H         1 RES1    0.0000
     16 C13        0.2889   -1.9854    2.5586 C.3       1 RES1    0.0000
     17 N1         1.4004    3.0249    2.6204 N.pl3     1 RES1    0.0000
     18 N2         5.1836    4.6695    5.1915 N.pl3     1 RES1    0.0000
     19 N3         2.7461    0.5144    1.2753 N.ar      1 RES1    0.0000
     20 O1         5.9988    4.4637    6.0451 O.2       1 RES1    0.0000
     21 O2         4.9599    5.7658    4.6986 O.2       1 RES1    0.0000
     22 O3         0.4149    2.3386    2.6828 O.2       1 RES1    0.0000
     23 O4         1.5072    3.9769    1.8902 O.2       1 RES1    0.0000
     24 H4         3.1520    4.5743    3.4982 H         1 RES1    0.0000
     25 H5         5.3686    2.1144    5.6940 H         1 RES1    0.0000
     26 H6         4.0707    0.3470    5.1144 H         1 RES1    0.0000
     27 H7         2.3313   -0.6173    3.9669 H         1 RES1    0.0000
     28 H8         0.9794    0.3608    3.8560 H         1 RES1    0.0000
     29 H9         0.7251   -2.3370   -0.1102 H         1 RES1    0.0000
     30 H10        2.0325   -1.0487   -1.5206 H         1 RES1    0.0000
     31 H11        3.4629    0.6449   -0.5436 H         1 RES1    0.0000
@<TRIPOS>BOND
     1    1    2 ar
     2    2    3 ar
     3    3    4 ar
     4    4    5 ar
     5    5    6 ar
     6    6    1 ar
     7    7    1 1
     8    8    7 1
     9    9    8 ar
    10   10    9 ar
    11   11   10 ar
    12   12   11 ar
    13   13   16 1
    14   14   16 1
    15   15   16 1
    16   16    9 1
    17   17    2 1
    18   18    4 1
    19   19    8 ar
    20   20   18 2
    21   21   18 2
    22   22   17 2
    23   23   17 2
    24   24    3 1
    25   25    5 1
    26   26    6 1
    27   27    7 1
    28   28    7 1
    29   29   10 1
    30   30   11 1
    31   31   12 1
    32   12   19 ar
@<TRIPOS>SUBSTRUCTURE
     1 RES1 1

@<TRIPOS>CRYSIN
  11.6170   15.3550    7.6410  90.0000 105.9700  90.0000  14 1

