# MOL2 file generated by ConQuest
# Please check atom types

@<TRIPOS>MOLECULE
RIGHUK09
    31    32     1
SMALL
NO_CHARGES
****
Generated from CSD

@<TRIPOS>ATOM
      1 C1         1.9702    1.4034   -0.2381 C.ar      1 RES1    0.0000
      2 C2         2.8195   -0.1667    1.6065 C.ar      1 RES1    0.0000
      3 N1         2.0111    0.5198    2.4087 N.ar      1 RES1    0.0000
      4 O1        -0.2111    5.7744   -1.0381 O.2       1 RES1    0.0000
      5 C3         2.2117    2.7103    0.1799 C.ar      1 RES1    0.0000
      6 C4         3.6161   -1.2199    2.0415 C.ar      1 RES1    0.0000
      7 O2         4.3530    2.3404    1.0049 O.2       1 RES1    0.0000
      8 C5         1.4364    3.7783   -0.2079 C.ar      1 RES1    0.0000
      9 H1         1.6192    4.6386    0.0958 H         1 RES1    0.0000
     10 C6         2.8058    0.1981    0.1305 C.3       1 RES1    0.0000
     11 H2         3.7190    0.3614   -0.1526 H         1 RES1    0.0000
     12 H3         2.4786   -0.5660   -0.3701 H         1 RES1    0.0000
     13 C7         0.0733    2.2744   -1.4952 C.ar      1 RES1    0.0000
     14 H4        -0.6496    2.1286   -2.0615 H         1 RES1    0.0000
     15 N2        -0.4199    4.6768   -1.5232 N.pl3     1 RES1    0.0000
     16 N3         3.3613    3.0280    1.0610 N.pl3     1 RES1    0.0000
     17 C8         0.3816    3.5352   -1.0587 C.ar      1 RES1    0.0000
     18 C9         0.8625    1.2273   -1.0742 C.ar      1 RES1    0.0000
     19 H5         0.6505    0.3676   -1.3573 H         1 RES1    0.0000
     20 C10        3.5542   -1.5386    3.3886 C.ar      1 RES1    0.0000
     21 H6         4.0807   -2.2270    3.7255 H         1 RES1    0.0000
     22 O3         3.2360    3.9754    1.8005 O.2       1 RES1    0.0000
     23 O4        -1.2393    4.4745   -2.3888 O.2       1 RES1    0.0000
     24 C11        1.9771    0.1667    3.7027 C.ar      1 RES1    0.0000
     25 H7         1.4138    0.6367    4.2748 H         1 RES1    0.0000
     26 C12        4.5154   -1.9794    1.0860 C.3       1 RES1    0.0000
     27 H8         4.9785   -2.6715    1.5638 H         1 RES1    0.0000
     28 H9         5.1536   -1.3765    0.6989 H         1 RES1    0.0000
     29 H10        3.9834   -2.3731    0.3900 H         1 RES1    0.0000
     30 C13        2.7281   -0.8485    4.2217 C.ar      1 RES1    0.0000
     31 H11        2.6769   -1.0643    5.1249 H         1 RES1    0.0000
@<TRIPOS>BOND
     1    1    5 ar
     2    2    3 ar
     3    3   24 ar
     4    4   15 2
     5    5    8 ar
     6    6    2 ar
     7    7   16 2
     8    8    9 1
     9   10    1 1
    10   11   10 1
    11   12   10 1
    12   13   14 1
    13   15   17 1
    14   16    5 1
    15   17    8 ar
    16   18    1 ar
    17   19   18 1
    18   20    6 ar
    19   21   20 1
    20   22   16 2
    21   23   15 2
    22   24   25 1
    23   26    6 1
    24   27   26 1
    25   28   26 1
    26   29   26 1
    27   30   20 ar
    28   31   30 1
    29    2   10 1
    30   13   17 ar
    31   13   18 ar
    32   24   30 ar
@<TRIPOS>SUBSTRUCTURE
     1 RES1 1

@<TRIPOS>CRYSIN
  11.6200   15.3800    7.6680  90.0000 105.9480  90.0000  14 1

