# MOL2 file generated by ConQuest
# Please check atom types

@<TRIPOS>MOLECULE
RIGHUK01
    31    32     1
SMALL
NO_CHARGES
****
Generated from CSD

@<TRIPOS>ATOM
      1 C1         2.4067    0.4986    4.3235 C.ar      1 RES1    0.0000
      2 C2         1.9372    1.8222    4.3279 C.ar      1 RES1    0.0000
      3 C3         2.4745    2.8164    5.1171 C.ar      1 RES1    0.0000
      4 C4         3.5033    2.4716    5.9555 C.ar      1 RES1    0.0000
      5 C5         4.0277    1.1881    6.0047 C.ar      1 RES1    0.0000
      6 C6         3.4760    0.2432    5.1788 C.ar      1 RES1    0.0000
      7 N1         0.8041    2.2162    3.4931 N.pl3     1 RES1    0.0000
      8 O1        -0.1424    1.4559    3.3940 O.2       1 RES1    0.0000
      9 O2         0.8673    3.3119    2.9462 O.2       1 RES1    0.0000
     10 N2         4.0655    3.5058    6.8196 N.pl3     1 RES1    0.0000
     11 O3         3.7779    4.6662    6.6052 O.2       1 RES1    0.0000
     12 O4         4.7827    3.1673    7.7403 O.2       1 RES1    0.0000
     13 C7         1.8336   -0.6202    3.5049 C.3       1 RES1    0.0000
     14 C8         1.8319   -0.4355    2.0123 C.ar      1 RES1    0.0000
     15 C9         1.3817   -1.4605    1.1805 C.ar      1 RES1    0.0000
     16 C10        1.3861   -1.2266   -0.1755 C.ar      1 RES1    0.0000
     17 C11        1.8270   -0.0108   -0.6798 C.ar      1 RES1    0.0000
     18 C12        2.2542    0.9142    0.2202 C.ar      1 RES1    0.0000
     19 N3         2.2796    0.7387    1.5359 N.ar      1 RES1    0.0000
     20 C13        0.8605   -2.7517    1.7356 C.3       1 RES1    0.0000
     21 H1         2.1437    3.7059    5.0804 H         1 RES1    0.0000
     22 H2         4.7440    0.9711    6.5891 H         1 RES1    0.0000
     23 H3         3.8413   -0.6325    5.1898 H         1 RES1    0.0000
     24 H4         1.0844   -1.9007   -0.7709 H         1 RES1    0.0000
     25 H5         1.8300    0.1662   -1.6130 H         1 RES1    0.0000
     26 H6         2.5565    1.7483   -0.1175 H         1 RES1    0.0000
     27 H7         0.9331   -2.7394    2.6819 H         1 RES1    0.0000
     28 H8        -0.0503   -2.8564    1.4881 H         1 RES1    0.0000
     29 H9         1.3689   -3.4735    1.3868 H         1 RES1    0.0000
     30 H10        2.3998   -1.4728    3.7244 H         1 RES1    0.0000
     31 H11        0.7752   -0.7618    3.7516 H         1 RES1    0.0000
@<TRIPOS>BOND
     1    1    2 ar
     2    2    3 ar
     3    3    4 ar
     4    4    5 ar
     5    5    6 ar
     6    6    1 ar
     7    7    2 1
     8    8    7 2
     9    9    7 2
    10   10    4 1
    11   11   10 2
    12   12   10 2
    13   13    1 1
    14   14   13 1
    15   15   14 ar
    16   16   15 ar
    17   17   16 ar
    18   18   17 ar
    19   19   14 ar
    20   20   15 1
    21   21    3 1
    22   22    5 1
    23   23    6 1
    24   24   16 1
    25   25   17 1
    26   26   18 1
    27   27   20 1
    28   28   20 1
    29   29   20 1
    30   30   13 1
    31   31   13 1
    32   18   19 ar
@<TRIPOS>SUBSTRUCTURE
     1 RES1 1

@<TRIPOS>CRYSIN
  11.3380   15.3900    7.6390  90.0000 106.0400  90.0000  14 1

