# MOL2 file generated by ConQuest
# Please check atom types

@<TRIPOS>MOLECULE
RIGJOI
    47    49     1
SMALL
NO_CHARGES
****
Generated from CSD

@<TRIPOS>ATOM
      1 O1         9.3736   -0.3625    0.5196 O.2       1 RES1    0.0000
      2 O2        11.8251    0.6868    2.0340 O.3       1 RES1    0.0000
      3 H1        12.1726    0.6436    1.3594 H         1 RES1    0.0000
      4 O3         7.7751    5.3609    3.2651 O.2       1 RES1    0.0000
      5 O4         6.5117    4.3200    1.7496 O.3       1 RES1    0.0000
      6 O5         2.8227    2.1630    6.9481 O.2       1 RES1    0.0000
      7 O6         1.9874    0.7817    5.5231 O.2       1 RES1    0.0000
      8 N1         2.8658    1.5515    5.8893 N.pl3     1 RES1    0.0000
      9 C1         9.9889    1.9157    0.9862 C.3       1 RES1    0.0000
     10 H2        10.3823    1.9157    0.0894 H         1 RES1    0.0000
     11 C2         9.1548    0.6716    1.1448 C.2       1 RES1    0.0000
     12 C3         8.0111    0.7343    2.0671 C.2       1 RES1    0.0000
     13 H3         7.5465   -0.0517    2.2435 H         1 RES1    0.0000
     14 C4         7.5968    1.8700    2.6715 C.2       1 RES1    0.0000
     15 C5         8.4081    3.1471    2.5213 C.3       1 RES1    0.0000
     16 C6         9.5519    3.2233    3.5784 C.3       1 RES1    0.0000
     17 H4        10.0122    4.0719    3.4832 H         1 RES1    0.0000
     18 H5         9.1622    3.1954    4.4662 H         1 RES1    0.0000
     19 C7        10.5700    2.0876    3.4457 C.3       1 RES1    0.0000
     20 H6        11.2981    2.2460    4.0669 H         1 RES1    0.0000
     21 H7        10.1428    1.2543    3.6980 H         1 RES1    0.0000
     22 C8        11.1452    1.9402    2.0384 C.3       1 RES1    0.0000
     23 C9         9.0861    3.1462    1.1229 C.3       1 RES1    0.0000
     24 H8         8.4069    3.1327    0.4297 H         1 RES1    0.0000
     25 H9         9.6132    3.9533    1.0134 H         1 RES1    0.0000
     26 C10       12.1485    3.0421    1.7150 C.3       1 RES1    0.0000
     27 H10       12.4932    2.9116    0.8290 H         1 RES1    0.0000
     28 H11       12.8716    3.0124    2.3462 H         1 RES1    0.0000
     29 H12       11.7146    3.8966    1.7663 H         1 RES1    0.0000
     30 C11        7.5416    4.4047    2.5930 C.2       1 RES1    0.0000
     31 C12        5.6231    5.4727    1.6414 C.3       1 RES1    0.0000
     32 H13        5.6566    5.9850    2.4641 H         1 RES1    0.0000
     33 H14        4.7117    5.1669    1.5134 H         1 RES1    0.0000
     34 C13        6.0215    6.3365    0.5033 C.3       1 RES1    0.0000
     35 H15        6.0890    5.8055   -0.2928 H         1 RES1    0.0000
     36 H16        6.8711    6.7422    0.6902 H         1 RES1    0.0000
     37 H17        5.3603    7.0216    0.3765 H         1 RES1    0.0000
     38 C14        6.3546    1.8268    3.5043 C.ar      1 RES1    0.0000
     39 C15        6.2358    2.5619    4.6905 C.ar      1 RES1    0.0000
     40 H18        6.9320    3.1191    4.9548 H         1 RES1    0.0000
     41 C16        5.0976    2.4721    5.4754 C.ar      1 RES1    0.0000
     42 H19        5.0302    2.9481    6.2705 H         1 RES1    0.0000
     43 C17        4.0701    1.6625    5.0508 C.ar      1 RES1    0.0000
     44 C18        4.1205    0.9570    3.8644 C.ar      1 RES1    0.0000
     45 H20        3.4003    0.4387    3.5840 H         1 RES1    0.0000
     46 C19        5.2698    1.0434    3.1103 C.ar      1 RES1    0.0000
     47 H21        5.3238    0.5649    2.3139 H         1 RES1    0.0000
@<TRIPOS>BOND
     1    1   11 2
     2    2    3 1
     3    4   30 2
     4    5   30 1
     5    6    8 2
     6    7    8 2
     7    8   43 1
     8    9   10 1
     9   11    9 1
    10   12   11 1
    11   13   12 1
    12   14   12 2
    13   15   14 1
    14   16   15 1
    15   17   16 1
    16   18   16 1
    17   19   16 1
    18   20   19 1
    19   21   19 1
    20   22    2 1
    21   23    9 1
    22   24   23 1
    23   25   23 1
    24   26   22 1
    25   27   26 1
    26   28   26 1
    27   29   26 1
    28   30   15 1
    29   31    5 1
    30   32   31 1
    31   33   31 1
    32   34   31 1
    33   35   34 1
    34   36   34 1
    35   37   34 1
    36   38   14 1
    37   39   38 ar
    38   40   39 1
    39   41   39 ar
    40   42   41 1
    41   43   41 ar
    42   44   43 ar
    43   45   44 1
    44   46   38 ar
    45   47   46 1
    46    9   22 1
    47   15   23 1
    48   19   22 1
    49   44   46 ar
@<TRIPOS>SUBSTRUCTURE
     1 RES1 1

@<TRIPOS>CRYSIN
  11.2170    8.4690   19.0280  90.0000  92.2700  90.0000 231 1

