# MOL2 file generated by ConQuest
# Please check atom types

@<TRIPOS>MOLECULE
RIGJUM
    33    32     2
SMALL
NO_CHARGES
****
Generated from CSD

@<TRIPOS>ATOM
      1 C1         5.2455    2.7070    9.8819 C.3       1 RES1    0.0000
      2 C2         5.5690    1.7704    8.6733 C.3       1 RES1    0.0000
      3 C3         6.8187    2.6008    8.4018 C.3       1 RES1    0.0000
      4 C4         6.2820    3.7299    9.3226 C.3       1 RES1    0.0000
      5 C5         4.7608    2.6042   12.3553 C.3       1 RES1    0.0000
      6 C6         6.9691   -0.4246    8.7527 C.3       1 RES1    0.0000
      7 C7         6.6026    2.1895    5.8530 C.3       1 RES1    0.0000
      8 C8         6.1925    6.2699    9.0430 C.3       1 RES1    0.0000
      9 N1         5.5481    2.2193   11.2019 N.pl3     1 RES1    0.0000
     10 N2         6.6579    1.5360   11.3001 N.2       1 RES1    0.0000
     11 N3         5.7495    0.3472    8.9005 N.pl3     1 RES1    0.0000
     12 N4         4.6548   -0.3129    9.3038 N.pl3     1 RES1    0.0000
     13 N5         7.1436    2.9060    7.0091 N.pl3     1 RES1    0.0000
     14 N6         8.2944    3.6093    6.8438 N.pl3     1 RES1    0.0000
     15 N7         5.7322    4.9153    8.6693 N.pl3     1 RES1    0.0000
     16 N8         4.7110    4.5758    7.7431 N.2       1 RES1    0.0000
     17 O1         6.9409    1.1644   12.4575 O.2       1 RES1    0.0000
     18 O2         3.6137    0.3461    9.4382 O.2       1 RES1    0.0000
     19 O3         4.7608   -1.5315    9.4987 O.2       1 RES1    0.0000
     20 O4         8.8045    4.1103    7.8332 O.2       1 RES1    0.0000
     21 O5         8.7394    3.6867    5.6984 O.2       1 RES1    0.0000
     22 O6         4.2585    5.5710    7.1825 O.2       1 RES1    0.0000
     23 O7         4.7353    6.2257    7.5925 Du        2 SUP2    0.0000
     24 H1         4.4148    3.0476    9.9208 H         1 RES1    0.0000
     25 H2         4.9138    1.8301    8.0482 H         1 RES1    0.0000
     26 H3         7.5539    2.1817    8.7809 H         1 RES1    0.0000
     27 H4         7.0343    4.0417   10.1494 H         1 RES1    0.0000
     28 H5         4.0310    3.1615   12.0744 H         1 RES1    0.0000
     29 H6         5.3119    3.0885   12.9737 H         1 RES1    0.0000
     30 H7         4.4159    1.8168   12.7842 H         1 RES1    0.0000
     31 H8         7.5987    0.0697    8.2230 H         1 RES1    0.0000
     32 H9         6.7716   -1.2573    8.3185 H         1 RES1    0.0000
     33 H10        7.3446   -0.5971    9.6197 H         1 RES1    0.0000
@<TRIPOS>BOND
     1    1    2 1
     2    2    3 1
     3    3    4 1
     4    4    1 1
     5    5    9 1
     6    6   11 1
     7    7   13 1
     8    8   15 1
     9    9    1 1
    10   10    9 1
    11   11    2 1
    12   12   11 1
    13   13    3 1
    14   14   13 1
    15   15    4 1
    16   16   15 1
    17   17   10 2
    18   18   12 2
    19   19   12 2
    20   20   14 2
    21   21   14 2
    22   22   16 2
    23   24    1 1
    24   25    2 1
    25   26    3 1
    26   27    4 1
    27   28    5 1
    28   29    5 1
    29   30    5 1
    30   31    6 1
    31   32    6 1
    32   33    6 1
@<TRIPOS>SUBSTRUCTURE
     1 RES1 1
     2 SUP2 23

@<TRIPOS>CRYSIN
  19.8300   11.0580   13.5890  90.0000  98.4100  90.0000  15 1

