# MOL2 file generated by ConQuest
# Please check atom types

@<TRIPOS>MOLECULE
RIHCIV
    22    22     1
SMALL
NO_CHARGES
****
Generated from CSD

@<TRIPOS>ATOM
      1 N1         0.4691    1.6770    7.5101 N.pl3     1 RES1    0.0000
      2 O1         0.8130    0.5504    7.1951 O.2       1 RES1    0.0000
      3 O2        -0.2224    1.8839    8.5208 O.2       1 RES1    0.0000
      4 O3        -0.1216    4.4197    8.1590 O.3       1 RES1    0.0000
      5 H1        -0.3313    3.7233    8.5572 H         1 RES1    0.0000
      6 O4         2.1895    5.7679    4.2221 O.3       1 RES1    0.0000
      7 H2         2.0279    6.5195    4.5363 H         1 RES1    0.0000
      8 O5         1.2660    7.4804    5.7965 O.2       1 RES1    0.0000
      9 O6         0.2402    6.8793    7.6786 O.3       1 RES1    0.0000
     10 C1         0.8722    2.7844    6.6921 C.ar      1 RES1    0.0000
     11 C2         0.5754    4.1138    7.0679 C.ar      1 RES1    0.0000
     12 C3         1.0346    5.1561    6.2359 C.ar      1 RES1    0.0000
     13 C4         1.7236    4.8311    5.0472 C.ar      1 RES1    0.0000
     14 C5         1.9608    3.5036    4.6863 C.ar      1 RES1    0.0000
     15 H3         2.4007    3.3047    3.8791 H         1 RES1    0.0000
     16 C6         1.5539    2.5026    5.5033 C.ar      1 RES1    0.0000
     17 H4         1.7310    1.6101    5.2691 H         1 RES1    0.0000
     18 C7         0.8549    6.5962    6.5435 C.2       1 RES1    0.0000
     19 C8         0.0892    8.2928    7.9866 C.3       1 RES1    0.0000
     20 H5         0.9592    8.7208    7.9721 H         1 RES1    0.0000
     21 H6        -0.3060    8.3922    8.8671 H         1 RES1    0.0000
     22 H7        -0.4867    8.7080    7.3258 H         1 RES1    0.0000
@<TRIPOS>BOND
     1    1    2 2
     2    3    1 2
     3    4    5 1
     4    6    7 1
     5    8   18 2
     6    9   18 1
     7   10    1 1
     8   11    4 1
     9   12   11 ar
    10   13    6 1
    11   14   13 ar
    12   15   14 1
    13   16   10 ar
    14   17   16 1
    15   18   12 1
    16   19    9 1
    17   20   19 1
    18   21   19 1
    19   22   19 1
    20   10   11 ar
    21   12   13 ar
    22   14   16 ar
@<TRIPOS>SUBSTRUCTURE
     1 RES1 1

@<TRIPOS>CRYSIN
   3.8681   18.3596   12.0186  90.0000  91.6820  90.0000  14 1

