# MOL2 file generated by ConQuest
# Please check atom types

@<TRIPOS>MOLECULE
RIHHOF
    41    43     1
SMALL
NO_CHARGES
****
Generated from CSD

@<TRIPOS>ATOM
      1 O1         4.2533    1.5782    0.0960 O.2       1 RES1    0.0000
      2 O2         5.5372    8.4998    7.0426 O.2       1 RES1    0.0000
      3 O3         6.1476    7.7061    5.1253 O.2       1 RES1    0.0000
      4 N1         4.6062    2.2274    2.0832 N.am      1 RES1    0.0000
      5 N2         5.0492    4.5041    3.4354 N.2       1 RES1    0.0000
      6 N3         5.4219    7.7208    6.1100 N.pl3     1 RES1    0.0000
      7 C1         3.8913    1.6824    1.0530 C.2       1 RES1    0.0000
      8 C2         2.5048    1.2179    1.5013 C.ar      1 RES1    0.0000
      9 C3         1.8889    0.2450    0.6668 C.ar      1 RES1    0.0000
     10 C4         0.6410    0.2103    0.8846 C.ar      1 RES1    0.0000
     11 C5         0.0684    0.3036    1.9502 C.ar      1 RES1    0.0000
     12 C6         0.4808    1.2691    2.7388 C.ar      1 RES1    0.0000
     13 C7         1.7791    1.7318    2.5275 C.ar      1 RES1    0.0000
     14 C8         5.8433    2.9259    1.8395 C.ar      1 RES1    0.0000
     15 C9         6.7796    2.4815    0.8831 C.ar      1 RES1    0.0000
     16 C10        7.9627    3.2130    0.7390 C.ar      1 RES1    0.0000
     17 C11        8.2040    4.3779    1.4543 C.ar      1 RES1    0.0000
     18 C12        7.2766    4.7802    2.3723 C.ar      1 RES1    0.0000
     19 C13        6.0882    4.0689    2.5593 C.ar      1 RES1    0.0000
     20 C14        5.2869    5.2703    4.4085 C.2       1 RES1    0.0000
     21 C15        4.1974    5.6891    5.2648 C.ar      1 RES1    0.0000
     22 C16        3.0450    4.9064    5.3709 C.ar      1 RES1    0.0000
     23 C17        1.9934    5.2081    6.2470 C.ar      1 RES1    0.0000
     24 C18        2.1140    6.3145    7.0922 C.ar      1 RES1    0.0000
     25 C19        3.2016    7.1118    7.0168 C.ar      1 RES1    0.0000
     26 C20        4.2208    6.7772    6.1545 C.ar      1 RES1    0.0000
     27 H1         3.7995    2.2676    3.1594 H         1 RES1    0.0000
     28 H2         2.3949    0.0183    0.0657 H         1 RES1    0.0000
     29 H3         0.1260    0.8046    0.1466 H         1 RES1    0.0000
     30 H4        -1.0444    0.1646    2.0675 H         1 RES1    0.0000
     31 H5         0.0540    1.6093    3.5385 H         1 RES1    0.0000
     32 H6         2.2149    2.3590    3.0886 H         1 RES1    0.0000
     33 H7         6.4825    1.6824    0.3488 H         1 RES1    0.0000
     34 H8         8.6073    2.9076    0.0404 H         1 RES1    0.0000
     35 H9         9.0395    5.0106    1.1273 H         1 RES1    0.0000
     36 H10        7.3469    5.7238    2.8055 H         1 RES1    0.0000
     37 H11        6.1224    5.6690    4.1451 H         1 RES1    0.0000
     38 H12        3.0432    3.9134    4.8073 H         1 RES1    0.0000
     39 H13        1.0444    4.6632    6.4755 H         1 RES1    0.0000
     40 H14        1.5306    6.4187    7.7493 H         1 RES1    0.0000
     41 H15        3.4393    7.8268    7.7594 H         1 RES1    0.0000
@<TRIPOS>BOND
     1    1    7 2
     2    2    6 2
     3    3    6 2
     4    4    7 1
     5    5   19 1
     6    6   26 1
     7    7    8 1
     8    8    9 ar
     9    9   10 ar
    10   10   11 ar
    11   11   12 ar
    12   12   13 ar
    13   13    8 ar
    14   14    4 1
    15   15   14 ar
    16   16   15 ar
    17   17   16 ar
    18   18   17 ar
    19   19   14 ar
    20   20    5 2
    21   21   20 1
    22   22   21 ar
    23   23   22 ar
    24   24   23 ar
    25   25   24 ar
    26   26   21 ar
    27   27    4 1
    28   28    9 1
    29   29   10 1
    30   30   11 1
    31   31   12 1
    32   32   13 1
    33   33   15 1
    34   34   16 1
    35   35   17 1
    36   36   18 1
    37   37   20 1
    38   38   22 1
    39   39   23 1
    40   40   24 1
    41   41   25 1
    42   18   19 ar
    43   25   26 ar
@<TRIPOS>SUBSTRUCTURE
     1 RES1 1

@<TRIPOS>CRYSIN
  18.0070   18.2870    5.0550  90.0000  90.0000  90.0000  19 1

