# MOL2 file generated by ConQuest
# Please check atom types

@<TRIPOS>MOLECULE
RIJXAM
    28    28     1
SMALL
NO_CHARGES
****
Generated from CSD

@<TRIPOS>ATOM
      1 C1         1.0076    3.6950    5.6165 C.ar      1 RES1    0.0000
      2 C2         2.3248    3.3380    5.2433 C.ar      1 RES1    0.0000
      3 C3         2.6385    3.6454    3.8968 C.ar      1 RES1    0.0000
      4 C4         1.7335    4.2361    3.0200 C.ar      1 RES1    0.0000
      5 H1         1.9902    4.4209    2.1245 H         1 RES1    0.0000
      6 C5         0.4633    4.5546    3.4527 C.ar      1 RES1    0.0000
      7 C6         0.1031    4.2751    4.7594 C.ar      1 RES1    0.0000
      8 H2        -0.7715    4.4846    5.0652 H         1 RES1    0.0000
      9 C7         3.3407    2.1911    8.3438 C.3       1 RES1    0.0000
     10 H3         4.2836    1.9637    8.2027 H         1 RES1    0.0000
     11 H4         2.9679    1.6164    9.0443 H         1 RES1    0.0000
     12 H5         3.2679    3.1288    8.6176 H         1 RES1    0.0000
     13 C8        -0.5512    5.1845    2.5677 C.2       1 RES1    0.0000
     14 C9        -1.2073    5.6785    0.3760 C.3       1 RES1    0.0000
     15 H6        -2.0365    5.1621    0.4559 H         1 RES1    0.0000
     16 H7        -0.8742    5.6217   -0.5435 H         1 RES1    0.0000
     17 H8        -1.3827    6.6164    0.6030 H         1 RES1    0.0000
     18 N1         0.5268    3.5383    7.0003 N.pl3     1 RES1    0.0000
     19 N2         3.9383    3.3175    3.3258 N.pl3     1 RES1    0.0000
     20 N3         3.2036    2.7756    6.1202 N.3       1 RES1    0.0000
     21 O1         1.0682    4.2033    7.8695 O.2       1 RES1    0.0000
     22 O2        -0.4275    2.7977    7.1804 O.2       1 RES1    0.0000
     23 O3         4.8245    2.9066    4.0932 O.2       1 RES1    0.0000
     24 O4         4.1071    3.4459    2.1279 O.2       1 RES1    0.0000
     25 O5         2.6118    1.9909    7.1233 O.3       1 RES1    0.0000
     26 O6        -1.5792    5.6566    2.9778 O.2       1 RES1    0.0000
     27 O7        -0.2142    5.1413    1.2832 O.3       1 RES1    0.0000
     28 H9         3.8932    2.3977    5.7957 H         1 RES1    0.0000
@<TRIPOS>BOND
     1    1    2 ar
     2    2    3 ar
     3    3    4 ar
     4    4    5 1
     5    6    4 ar
     6    7    1 ar
     7    8    7 1
     8    9   10 1
     9   11    9 1
    10   12    9 1
    11   13    6 1
    12   14   15 1
    13   16   14 1
    14   17   14 1
    15   18    1 1
    16   19    3 1
    17   20    2 1
    18   21   18 2
    19   22   18 2
    20   23   19 2
    21   24   19 2
    22   25    9 1
    23   26   13 2
    24   27   13 1
    25   28   20 1
    26    6    7 ar
    27   14   27 1
    28   20   25 1
@<TRIPOS>SUBSTRUCTURE
     1 RES1 1

@<TRIPOS>CRYSIN
   7.5149    7.7919   10.6647  68.6190  75.8770  79.6170   2 1

