# MOL2 file generated by ConQuest
# Please check atom types

@<TRIPOS>MOLECULE
RIKZOD
    26    27     1
SMALL
NO_CHARGES
****
Generated from CSD

@<TRIPOS>ATOM
      1 O1         6.4571    1.2652    2.9769 O.2       1 RES1    0.0000
      2 O2         4.4493    4.8869    5.8432 O.2       1 RES1    0.0000
      3 O3         2.5991    5.9449    6.1822 O.2       1 RES1    0.0000
      4 O4        -0.0589    7.0774    2.4587 O.2       1 RES1    0.0000
      5 O5        -0.1193    5.7797    0.7294 O.2       1 RES1    0.0000
      6 O6         2.6462    1.5742    0.9885 O.2       1 RES1    0.0000
      7 O7         4.5721    2.5149    1.1289 O.2       1 RES1    0.0000
      8 N1         4.3181    1.5802    3.8376 N.am      1 RES1    0.0000
      9 N2         3.2916    0.7653    4.2177 N.2       1 RES1    0.0000
     10 N3         3.6271   -0.4152    3.9438 N.2       1 RES1    0.0000
     11 N4         4.8673   -0.3980    3.4244 N.am      1 RES1    0.0000
     12 H1         5.2918   -1.1025    3.1721 H         1 RES1    0.0000
     13 N5         4.3506    2.9172    4.0922 N.pl3     1 RES1    0.0000
     14 H2         4.9726    3.2622    4.5750 H         1 RES1    0.0000
     15 N6         3.3283    5.2430    5.5224 N.pl3     1 RES1    0.0000
     16 N7         0.2799    6.1076    1.8754 N.pl3     1 RES1    0.0000
     17 N8         3.3994    2.4233    1.3983 N.pl3     1 RES1    0.0000
     18 C1         5.3919    0.8440    3.3616 C.2       1 RES1    0.0000
     19 C2         3.3567    3.7142    3.5214 C.ar      1 RES1    0.0000
     20 C3         2.7988    4.8124    4.2120 C.ar      1 RES1    0.0000
     21 C4         1.7961    5.6042    3.6801 C.ar      1 RES1    0.0000
     22 H3         1.4558    6.3276    4.1561 H         1 RES1    0.0000
     23 C5         1.3175    5.2969    2.4416 C.ar      1 RES1    0.0000
     24 C6         1.8316    4.2072    1.7008 C.ar      1 RES1    0.0000
     25 H4         1.5078    3.9992    0.8538 H         1 RES1    0.0000
     26 C7         2.8177    3.4805    2.2784 C.ar      1 RES1    0.0000
@<TRIPOS>BOND
     1    1   18 2
     2    2   15 2
     3    3   15 2
     4    4   16 2
     5    5   16 2
     6    6   17 2
     7    7   17 2
     8    8    9 1
     9    9   10 2
    10   10   11 1
    11   11   12 1
    12   13    8 1
    13   14   13 1
    14   15   20 1
    15   16   23 1
    16   17   26 1
    17   18    8 1
    18   19   13 1
    19   20   19 ar
    20   21   20 ar
    21   22   21 1
    22   23   21 ar
    23   24   23 ar
    24   25   24 1
    25   26   19 ar
    26   11   18 1
    27   24   26 ar
@<TRIPOS>SUBSTRUCTURE
     1 RES1 1

@<TRIPOS>CRYSIN
  12.3900    8.5600   11.4401  90.0000  93.8210  90.0000  14 1

