# MOL2 file generated by ConQuest
# Please check atom types

@<TRIPOS>MOLECULE
RILTEL
    62    66     1
SMALL
NO_CHARGES
****
Generated from CSD

@<TRIPOS>ATOM
      1 O1         1.3081   -1.2562    0.2638 O.3       1 RES1    0.0000
      2 H1         1.1521   -2.0484    0.4897 H         1 RES1    0.0000
      3 O2        -2.5980   -0.2814    1.6401 O.3       1 RES1    0.0000
      4 O3         0.9821    0.6466   -1.9254 O.3       1 RES1    0.0000
      5 O4        -2.1433    0.7355   -1.1006 O.3       1 RES1    0.0000
      6 O5        -3.1139   -0.5849   -2.7431 O.3       1 RES1    0.0000
      7 O6        -3.3598   -2.3175   -1.2741 O.3       1 RES1    0.0000
      8 N1         0.5876   -0.3455    1.1505 N.3       1 RES1    0.0000
      9 C1         0.9937    1.2871    2.9451 C.ar      1 RES1    0.0000
     10 C2         0.6008    1.3525   -0.7630 C.2       1 RES1    0.0000
     11 C3         1.3807    2.6099    2.9879 C.ar      1 RES1    0.0000
     12 H2         2.0195    2.9320    2.3627 H         1 RES1    0.0000
     13 C4         1.6366    0.3887    1.8921 C.3       1 RES1    0.0000
     14 H3         2.1648    0.9391    1.2598 H         1 RES1    0.0000
     15 H4         2.2498   -0.2554    2.3271 H         1 RES1    0.0000
     16 C5        -0.1873    0.5442    0.2353 C.3       1 RES1    0.0000
     17 H5        -0.6371    1.2155    0.8296 H         1 RES1    0.0000
     18 C6         0.1023    0.8206    3.8983 C.ar      1 RES1    0.0000
     19 H6        -0.1618   -0.0901    3.8840 H         1 RES1    0.0000
     20 C7         1.6861    1.5314   -2.7026 C.2       1 RES1    0.0000
     21 H7         2.0344    1.3401   -3.5679 H         1 RES1    0.0000
     22 C8         0.8270    3.4947    3.9648 C.ar      1 RES1    0.0000
     23 H8         1.0597    4.4140    3.9696 H         1 RES1    0.0000
     24 C9        -0.0602    2.9887    4.9109 C.ar      1 RES1    0.0000
     25 H9        -0.4242    3.5552    5.5836 H         1 RES1    0.0000
     26 C10       -1.3147   -0.2209   -0.4302 C.3       1 RES1    0.0000
     27 H10       -0.9144   -0.8305   -1.1196 H         1 RES1    0.0000
     28 C11       -3.4588   -1.9460   -2.7074 C.3       1 RES1    0.0000
     29 C12       -2.2630   -1.0366    0.4421 C.3       1 RES1    0.0000
     30 H11       -1.8842   -1.9374    0.6608 H         1 RES1    0.0000
     31 C13       -3.5306   -1.1390   -0.4849 C.3       1 RES1    0.0000
     32 H12       -4.3972   -1.1094    0.0166 H         1 RES1    0.0000
     33 C14       -3.3433    0.0629   -1.4809 C.3       1 RES1    0.0000
     34 H13       -4.1372    0.6738   -1.4975 H         1 RES1    0.0000
     35 C15       -3.4935   -0.4146    3.9078 C.ar      1 RES1    0.0000
     36 C16       -4.2833    1.4648    5.1724 C.ar      1 RES1    0.0000
     37 H14       -4.6209    2.3545    5.1937 H         1 RES1    0.0000
     38 C17       -3.9425    0.8391    3.9411 C.ar      1 RES1    0.0000
     39 H15       -4.0374    1.3241    3.1305 H         1 RES1    0.0000
     40 C18        1.8115    2.7000   -2.0656 C.2       1 RES1    0.0000
     41 H16        2.2902    3.4589   -2.3746 H         1 RES1    0.0000
     42 C19       -4.1100    0.7342    6.3680 C.ar      1 RES1    0.0000
     43 H17       -4.3279    1.1439    7.1999 H         1 RES1    0.0000
     44 C20        1.0877    2.5939   -0.8296 C.2       1 RES1    0.0000
     45 H18        0.9755    3.2787   -0.1783 H         1 RES1    0.0000
     46 C21       -0.4027    1.6597    4.8586 C.ar      1 RES1    0.0000
     47 H19       -1.0060    1.3142    5.5051 H         1 RES1    0.0000
     48 C22       -3.1824   -1.1427    2.6195 C.3       1 RES1    0.0000
     49 H20       -2.5593   -1.8905    2.8072 H         1 RES1    0.0000
     50 H21       -4.0176   -1.5252    2.2582 H         1 RES1    0.0000
     51 C23       -2.4371   -2.7456   -3.4704 C.3       1 RES1    0.0000
     52 H22       -2.6789   -3.6934   -3.4490 H         1 RES1    0.0000
     53 H23       -1.5565   -2.6272   -3.0616 H         1 RES1    0.0000
     54 H24       -2.4091   -2.4372   -4.3998 H         1 RES1    0.0000
     55 C24       -3.6462   -0.5183    6.3513 C.ar      1 RES1    0.0000
     56 H25       -3.5694   -1.0156    7.1571 H         1 RES1    0.0000
     57 C25       -4.8618   -2.1583   -3.1852 C.3       1 RES1    0.0000
     58 H26       -5.0698   -3.1146   -3.1614 H         1 RES1    0.0000
     59 H27       -4.9452   -1.8288   -4.1051 H         1 RES1    0.0000
     60 H28       -5.4866   -1.6708   -2.6052 H         1 RES1    0.0000
     61 C26       -3.2707   -1.0921    5.1177 C.ar      1 RES1    0.0000
     62 H29       -2.8597   -1.9510    5.1058 H         1 RES1    0.0000
@<TRIPOS>BOND
     1    1    2 1
     2    3   29 1
     3    4   10 1
     4    5   26 1
     5    6   28 1
     6    7   28 1
     7    8    1 1
     8    9   11 ar
     9   10   16 1
    10   11   12 1
    11   13    8 1
    12   14   13 1
    13   15   13 1
    14   16    8 1
    15   17   16 1
    16   18    9 ar
    17   19   18 1
    18   20    4 1
    19   21   20 1
    20   22   11 ar
    21   23   22 1
    22   24   22 ar
    23   25   24 1
    24   26   16 1
    25   27   26 1
    26   28   51 1
    27   29   26 1
    28   30   29 1
    29   31    7 1
    30   32   31 1
    31   33    5 1
    32   34   33 1
    33   35   38 ar
    34   36   37 1
    35   38   36 ar
    36   39   38 1
    37   40   20 2
    38   41   40 1
    39   42   36 ar
    40   43   42 1
    41   44   10 2
    42   45   44 1
    43   46   18 ar
    44   47   46 1
    45   48    3 1
    46   49   48 1
    47   50   48 1
    48   51   52 1
    49   53   51 1
    50   54   51 1
    51   55   42 ar
    52   56   55 1
    53   57   28 1
    54   58   57 1
    55   59   57 1
    56   60   57 1
    57   61   35 ar
    58   62   61 1
    59    6   33 1
    60    9   13 1
    61   24   46 ar
    62   29   31 1
    63   31   33 1
    64   35   48 1
    65   40   44 1
    66   55   61 ar
@<TRIPOS>SUBSTRUCTURE
     1 RES1 1

@<TRIPOS>CRYSIN
   8.2530   12.3400   23.7700  90.0000  90.0000  90.0000  19 1

