# MOL2 file generated by ConQuest
# Please check atom types

@<TRIPOS>MOLECULE
RIMSAJ
    70    75     1
SMALL
NO_CHARGES
****
Generated from CSD

@<TRIPOS>ATOM
      1 O1         6.1923    0.1905   16.1762 O.3       1 RES1    0.0000
      2 O2        -0.2614    3.3514   20.4356 O.3       1 RES1    0.0000
      3 H1         0.2865    3.6647   19.9119 H         1 RES1    0.0000
      4 O3         3.0447    2.9836   21.2159 O.3       1 RES1    0.0000
      5 O4         4.4111    4.0945   19.8389 O.2       1 RES1    0.0000
      6 N1         3.5539    2.1240   17.8635 N.am      1 RES1    0.0000
      7 N2         0.3645    3.1309   21.7103 N.3       1 RES1    0.0000
      8 O5         1.7923    3.4163   18.4866 O.2       1 RES1    0.0000
      9 O6         4.4410   -1.1932   16.2385 O.2       1 RES1    0.0000
     10 N3         4.2111    1.8740   15.6066 N.2       1 RES1    0.0000
     11 N4         0.9098    1.4769   23.1636 N.am      1 RES1    0.0000
     12 O7        -0.0541    2.3983   25.0313 O.2       1 RES1    0.0000
     13 C1         6.7569    1.7779   17.8582 C.3       1 RES1    0.0000
     14 H2         6.3551    2.3666   18.5296 H         1 RES1    0.0000
     15 C2         0.9394    1.7889   21.7417 C.3       1 RES1    0.0000
     16 H3         0.3804    1.1614   21.2389 H         1 RES1    0.0000
     17 C3         2.2362    3.1913   16.1598 C.ar      1 RES1    0.0000
     18 C4         3.7785    3.1115   20.0971 C.2       1 RES1    0.0000
     19 C5         3.1006    2.6141   15.2302 C.ar      1 RES1    0.0000
     20 C6         4.4089    1.6591   16.8571 C.2       1 RES1    0.0000
     21 C7         5.4760   -0.8729   15.7433 C.2       1 RES1    0.0000
     22 C8         3.7336    1.8216   19.2912 C.3       1 RES1    0.0000
     23 H4         4.5855    1.3517   19.4054 H         1 RES1    0.0000
     24 C9         2.6328    0.9956   19.9378 C.3       1 RES1    0.0000
     25 H5         2.9040    0.0689   20.0333 H         1 RES1    0.0000
     26 H6         1.8166    1.0335   19.4133 H         1 RES1    0.0000
     27 C10       -0.6883    3.1327   22.7668 C.3       1 RES1    0.0000
     28 C11        3.8065    0.0906   25.0258 C.ar      1 RES1    0.0000
     29 H7         4.0767   -0.2111   25.8633 H         1 RES1    0.0000
     30 C12        5.6407    0.8881   17.2966 C.3       1 RES1    0.0000
     31 H8         5.3797    0.2362   17.9809 H         1 RES1    0.0000
     32 C13        2.4669    2.9523   17.5720 C.2       1 RES1    0.0000
     33 C14        4.3478    0.5537   22.7183 C.ar      1 RES1    0.0000
     34 H9         4.9572    0.5577   22.0171 H         1 RES1    0.0000
     35 C15        3.0490    0.9786   22.5249 C.ar      1 RES1    0.0000
     36 C16        0.0600    2.3336   23.8339 C.2       1 RES1    0.0000
     37 C17        2.8615    2.8300   13.8608 C.ar      1 RES1    0.0000
     38 H10        3.4156    2.4376   13.2245 H         1 RES1    0.0000
     39 C18        7.7869    0.9055   18.5681 C.3       1 RES1    0.0000
     40 H11        7.3687    0.4506   19.3025 H         1 RES1    0.0000
     41 H12        8.5003    1.4567   18.8963 H         1 RES1    0.0000
     42 H13        8.1391    0.2603   17.9519 H         1 RES1    0.0000
     43 C19        4.7284    0.1187   23.9837 C.ar      1 RES1    0.0000
     44 H14        5.6039   -0.1553   24.1354 H         1 RES1    0.0000
     45 C20        2.1454    0.9506   23.5799 C.ar      1 RES1    0.0000
     46 C21        7.3941    2.6580   16.8048 C.3       1 RES1    0.0000
     47 H15        7.8765    2.1117   16.1791 H         1 RES1    0.0000
     48 H16        7.9992    3.2731   17.2264 H         1 RES1    0.0000
     49 H17        6.7105    3.1474   16.3400 H         1 RES1    0.0000
     50 C22        1.1744    4.0074   15.7401 C.ar      1 RES1    0.0000
     51 H18        0.6094    4.3985   16.3664 H         1 RES1    0.0000
     52 C23        2.4342    1.6569   21.3196 C.3       1 RES1    0.0000
     53 C24        1.8119    3.6180   13.4627 C.ar      1 RES1    0.0000
     54 H19        1.6537    3.7521   12.5571 H         1 RES1    0.0000
     55 C25        2.5008    0.5007   24.8432 C.ar      1 RES1    0.0000
     56 H20        1.8846    0.4757   25.5389 H         1 RES1    0.0000
     57 C26        0.9763    4.2229   14.4092 C.ar      1 RES1    0.0000
     58 H21        0.2826    4.7747   14.1293 H         1 RES1    0.0000
     59 C27       -1.9725    2.3855   22.3848 C.3       1 RES1    0.0000
     60 H22       -2.4029    2.8401   21.6583 H         1 RES1    0.0000
     61 H23       -2.5639    2.3589   23.1409 H         1 RES1    0.0000
     62 H24       -1.7543    1.4895   22.1173 H         1 RES1    0.0000
     63 C28        6.1730   -1.5342   14.5997 C.3       1 RES1    0.0000
     64 H25        5.8070   -2.4114   14.4670 H         1 RES1    0.0000
     65 H26        7.1101   -1.6054   14.7941 H         1 RES1    0.0000
     66 H27        6.0504   -1.0105   13.8049 H         1 RES1    0.0000
     67 C29       -0.9753    4.5510   23.2200 C.3       1 RES1    0.0000
     68 H28       -0.1590    4.9682   23.5049 H         1 RES1    0.0000
     69 H29       -1.5981    4.5330   23.9508 H         1 RES1    0.0000
     70 H30       -1.3528    5.0502   22.4919 H         1 RES1    0.0000
@<TRIPOS>BOND
     1    1   21 1
     2    2    3 1
     3    4   18 1
     4    5   18 2
     5    6   20 1
     6    7    2 1
     7    8   32 2
     8    9   21 2
     9   10   19 1
    10   11   15 1
    11   12   36 2
    12   13   14 1
    13   15    7 1
    14   16   15 1
    15   17   19 ar
    16   18   22 1
    17   19   37 ar
    18   20   10 2
    19   21   63 1
    20   22    6 1
    21   23   22 1
    22   24   22 1
    23   25   24 1
    24   26   24 1
    25   27    7 1
    26   28   29 1
    27   30    1 1
    28   31   30 1
    29   32    6 1
    30   33   34 1
    31   35   33 ar
    32   36   11 1
    33   37   38 1
    34   39   13 1
    35   40   39 1
    36   41   39 1
    37   42   39 1
    38   43   28 ar
    39   44   43 1
    40   45   11 1
    41   46   13 1
    42   47   46 1
    43   48   46 1
    44   49   46 1
    45   50   17 ar
    46   51   50 1
    47   52    4 1
    48   53   37 ar
    49   54   53 1
    50   55   28 ar
    51   56   55 1
    52   57   50 ar
    53   58   57 1
    54   59   27 1
    55   60   59 1
    56   61   59 1
    57   62   59 1
    58   63   64 1
    59   65   63 1
    60   66   63 1
    61   67   27 1
    62   68   67 1
    63   69   67 1
    64   70   67 1
    65   13   30 1
    66   15   52 1
    67   17   32 1
    68   20   30 1
    69   24   52 1
    70   27   36 1
    71   33   43 ar
    72   35   45 ar
    73   35   52 1
    74   45   55 ar
    75   53   57 ar
@<TRIPOS>SUBSTRUCTURE
     1 RES1 1

@<TRIPOS>CRYSIN
   9.5810   10.9360   26.3804  90.0000  90.0000  90.0000  19 1

