# MOL2 file generated by ConQuest
# Please check atom types

@<TRIPOS>MOLECULE
RIMYUH
    15    14     1
SMALL
NO_CHARGES
****
Generated from CSD

@<TRIPOS>ATOM
      1 O1        -0.7295    9.2565    0.5536 O.2       1 RES1    0.0000
      2 N1         0.0122   10.7103    2.1009 N.am      1 RES1    0.0000
      3 O2        -0.2385   11.8083    1.2860 O.3       1 RES1    0.0000
      4 C1        -0.2134    9.4903    1.6535 C.2       1 RES1    0.0000
      5 C2         1.1624    7.4278    1.9504 C.2       1 RES1    0.0000
      6 C3         0.2091    8.3873    2.6135 C.3       1 RES1    0.0000
      7 O3         1.6534    5.5902    0.8023 O.3       1 RES1    0.0000
      8 O4         2.4960    7.7684    1.8541 O.3       1 RES1    0.0000
      9 N2         0.6497    6.3743    1.4338 N.2       1 RES1    0.0000
     10 H1         2.9004    8.4889    2.5733 H         1 RES1    0.0000
     11 H2         0.4014   10.8653    2.8438 H         1 RES1    0.0000
     12 H3        -0.6736    7.9298    2.9692 H         1 RES1    0.0000
     13 H4         0.5267    8.7304    3.3519 H         1 RES1    0.0000
     14 H5        -1.0145   12.0980    1.4912 H         1 RES1    0.0000
     15 H6         1.2939    5.1849    0.3959 H         1 RES1    0.0000
@<TRIPOS>BOND
     1    1    4 2
     2    2    3 1
     3    3   14 1
     4    4    2 1
     5    5    6 1
     6    6    4 1
     7    7    9 1
     8    8    5 1
     9    9    5 2
    10   10    8 1
    11   11    2 1
    12   12    6 1
    13   13    6 1
    14   15    7 1
@<TRIPOS>SUBSTRUCTURE
     1 RES1 1

@<TRIPOS>CRYSIN
   6.3550   12.7080    7.7510  90.0000 121.6500  90.0000  14 1

