# MOL2 file generated by ConQuest
# Please check atom types

@<TRIPOS>MOLECULE
RIPNAF
    45    47     1
SMALL
NO_CHARGES
****
Generated from CSD

@<TRIPOS>ATOM
      1 O1         7.3218   11.0613    7.2417 O.3       1 RES1    0.0000
      2 O2        13.1014   13.1661    8.9582 O.2       1 RES1    0.0000
      3 O3        14.5605   13.1590   10.5444 O.2       1 RES1    0.0000
      4 O4        13.5907   11.5988   14.8750 O.2       1 RES1    0.0000
      5 O5        11.5528   11.5565   15.5580 O.2       1 RES1    0.0000
      6 N1         9.2527   12.4974    9.1940 N.2       1 RES1    0.0000
      7 N2        10.6070   12.6610    9.4676 N.3       1 RES1    0.0000
      8 N3        13.4182   12.9996   10.1351 N.pl3     1 RES1    0.0000
      9 N4        12.3893   11.6778   14.6826 N.pl3     1 RES1    0.0000
     10 C1         7.4703   12.4720    7.5643 C.3       1 RES1    0.0000
     11 C2         6.4131   12.7725    8.6055 C.3       1 RES1    0.0000
     12 C3         6.0243   11.4224    9.1339 C.3       1 RES1    0.0000
     13 C4         6.1816   10.5732    7.9581 C.3       1 RES1    0.0000
     14 C5         7.4113   13.2747    6.2739 C.3       1 RES1    0.0000
     15 C6         8.7853   13.0490    5.6154 C.3       1 RES1    0.0000
     16 C7         9.7638   13.0137    6.7856 C.3       1 RES1    0.0000
     17 C8         8.9272   12.6455    7.9770 C.2       1 RES1    0.0000
     18 C9         4.7465   11.3646    9.8937 C.3       1 RES1    0.0000
     19 C10        6.3083    9.0906    8.1305 C.3       1 RES1    0.0000
     20 C11       11.0438   12.4537   10.7213 C.ar      1 RES1    0.0000
     21 C12       12.3893   12.5877   11.0984 C.ar      1 RES1    0.0000
     22 C13       12.8284   12.3338   12.3788 C.ar      1 RES1    0.0000
     23 C14       11.9175   11.9599   13.3221 C.ar      1 RES1    0.0000
     24 C15       10.5764   11.8245   13.0173 C.ar      1 RES1    0.0000
     25 C16       10.1483   12.0629   11.7392 C.ar      1 RES1    0.0000
     26 H1        13.7720   12.4015   12.6235 H         1 RES1    0.0000
     27 H2         9.9517   11.5607   13.7315 H         1 RES1    0.0000
     28 H3         9.2090   11.9430   11.5311 H         1 RES1    0.0000
     29 H4         6.6796   11.1248    9.7936 H         1 RES1    0.0000
     30 H5         5.3909   10.6592    7.3919 H         1 RES1    0.0000
     31 H6         5.6530   13.2225    8.2240 H         1 RES1    0.0000
     32 H7         6.8019   13.2958    9.3353 H         1 RES1    0.0000
     33 H8         7.2715   14.2156    6.4708 H         1 RES1    0.0000
     34 H9         6.6949   12.9432    5.6910 H         1 RES1    0.0000
     35 H10        8.9949   13.7896    5.0025 H         1 RES1    0.0000
     36 H11        8.8027   12.2054    5.1193 H         1 RES1    0.0000
     37 H12       10.2007   13.8954    6.8958 H         1 RES1    0.0000
     38 H13       10.4781   12.3464    6.6110 H         1 RES1    0.0000
     39 H14       11.1618   12.8092    8.8213 H         1 RES1    0.0000
     40 H15        4.7945   11.9726   10.6601 H         1 RES1    0.0000
     41 H16        4.0060   11.6312    9.3108 H         1 RES1    0.0000
     42 H17        4.5980   10.4491   10.2129 H         1 RES1    0.0000
     43 H18        5.4913    8.7379    8.5410 H         1 RES1    0.0000
     44 H19        6.4415    8.6702    7.2551 H         1 RES1    0.0000
     45 H20        7.0771    8.8931    8.7068 H         1 RES1    0.0000
@<TRIPOS>BOND
     1    1   10 1
     2    2    8 2
     3    3    8 2
     4    4    9 2
     5    5    9 2
     6    6    7 1
     7    7   20 1
     8    8   21 1
     9    9   23 1
    10   10   11 1
    11   11   12 1
    12   12   13 1
    13   13    1 1
    14   14   10 1
    15   15   14 1
    16   16   15 1
    17   17    6 2
    18   18   12 1
    19   19   13 1
    20   20   21 ar
    21   21   22 ar
    22   22   23 ar
    23   23   24 ar
    24   24   25 ar
    25   25   20 ar
    26   26   22 1
    27   27   24 1
    28   28   25 1
    29   29   12 1
    30   30   13 1
    31   31   11 1
    32   32   11 1
    33   33   14 1
    34   34   14 1
    35   35   15 1
    36   36   15 1
    37   37   16 1
    38   38   16 1
    39   39    7 1
    40   40   18 1
    41   41   18 1
    42   42   18 1
    43   43   19 1
    44   44   19 1
    45   45   19 1
    46   10   17 1
    47   16   17 1
@<TRIPOS>SUBSTRUCTURE
     1 RES1 1

@<TRIPOS>CRYSIN
  21.8430   14.1070   11.1240  90.0000  90.0000  90.0000  61 1

