# MOL2 file generated by ConQuest
# Please check atom types

@<TRIPOS>MOLECULE
RIPWOD
    31    32     1
SMALL
NO_CHARGES
****
Generated from CSD

@<TRIPOS>ATOM
      1 O1         9.8182    8.0067   14.1749 O.2       1 RES1    0.0000
      2 O2         8.2358    7.2134   12.9713 O.2       1 RES1    0.0000
      3 O3         9.3936    9.6690    9.3459 O.2       1 RES1    0.0000
      4 N1         8.8304    8.1553   13.4577 N.pl3     1 RES1    0.0000
      5 C1         7.5533    9.8494   12.1266 C.ar      1 RES1    0.0000
      6 C2         7.1068   11.1568   12.0894 C.ar      1 RES1    0.0000
      7 H1         6.5672   11.4223   11.3797 H         1 RES1    0.0000
      8 C3         7.4248   12.0851   13.0584 C.ar      1 RES1    0.0000
      9 H2         7.0763   12.9450   13.0100 H         1 RES1    0.0000
     10 C4         8.2536   11.7423   14.0931 C.ar      1 RES1    0.0000
     11 H3         8.4988   12.3748   14.7293 H         1 RES1    0.0000
     12 C5         8.7137   10.4622   14.1782 C.ar      1 RES1    0.0000
     13 H4         9.2744   10.2165   14.8802 H         1 RES1    0.0000
     14 C6         8.3500    9.5294   13.2280 C.ar      1 RES1    0.0000
     15 C7         7.1668    8.8772   11.0124 C.3       1 RES1    0.0000
     16 H5         7.8781    8.2069   10.9445 H         1 RES1    0.0000
     17 C8         5.8593    8.1341   11.3448 C.3       1 RES1    0.0000
     18 H6         5.8804    7.2650   10.9155 H         1 RES1    0.0000
     19 H7         5.8212    7.9885   12.3022 H         1 RES1    0.0000
     20 C9         4.6084    8.8439   10.9194 C.2       1 RES1    0.0000
     21 C10        4.6448    9.6538    9.8692 C.2       1 RES1    0.0000
     22 H8         3.8591   10.0542    9.5752 H         1 RES1    0.0000
     23 C11        5.8686    9.9177    9.1826 C.2       1 RES1    0.0000
     24 H9         5.8373   10.3545    8.3626 H         1 RES1    0.0000
     25 C12        7.0594    9.5598    9.6770 C.2       1 RES1    0.0000
     26 C13        3.3618    8.5148   11.6736 C.3       1 RES1    0.0000
     27 H10        2.5973    8.8044   11.1708 H         1 RES1    0.0000
     28 H11        3.3737    8.9622   12.5227 H         1 RES1    0.0000
     29 H12        3.3128    7.5668   11.8129 H         1 RES1    0.0000
     30 C14        8.2671    9.8950    8.9486 C.2       1 RES1    0.0000
     31 H13        8.1741   10.3105    8.1228 H         1 RES1    0.0000
@<TRIPOS>BOND
     1    1    4 2
     2    2    4 2
     3    3   30 2
     4    4   14 1
     5    5    6 ar
     6    6    7 1
     7    8    6 ar
     8    9    8 1
     9   10    8 ar
    10   11   10 1
    11   12   10 ar
    12   13   12 1
    13   14    5 ar
    14   15    5 1
    15   16   15 1
    16   17   15 1
    17   18   17 1
    18   19   17 1
    19   20   17 1
    20   21   20 2
    21   22   21 1
    22   23   21 1
    23   24   23 1
    24   25   15 1
    25   26   20 1
    26   27   26 1
    27   28   26 1
    28   29   26 1
    29   30   25 1
    30   31   30 1
    31   12   14 ar
    32   23   25 2
@<TRIPOS>SUBSTRUCTURE
     1 RES1 1

@<TRIPOS>CRYSIN
   8.4574   15.1670   19.3400  90.0000  90.0000  90.0000  61 1

