# MOL2 file generated by ConQuest
# Please check atom types

@<TRIPOS>MOLECULE
RIRGAA
    12    14     1
SMALL
NO_CHARGES
****
Generated from CSD

@<TRIPOS>ATOM
      1 N1         3.1138    3.8579    4.8987 N.pl3     1 RES1    0.0000
      2 C1         2.2742    2.9531    4.4543 C.2       1 RES1    0.0000
      3 N2         2.3114    2.2720    3.2552 N.2       1 RES1    0.0000
      4 O1         1.2616    1.3128    3.3775 O.3       1 RES1    0.0000
      5 N3         0.5547    1.4600    4.5954 N.2       1 RES1    0.0000
      6 C2         1.1627    2.3729    5.1456 C.2       1 RES1    0.0000
      7 N4         0.8391    2.8932    6.5010 N.pl3     1 RES1    0.0000
      8 C3         1.7001    3.9446    6.9031 C.2       1 RES1    0.0000
      9 N5         1.6133    4.5817    7.9482 N.2       1 RES1    0.0000
     10 O2         2.7192    5.4324    7.9670 O.3       1 RES1    0.0000
     11 N6         3.4677    5.3292    6.7890 N.2       1 RES1    0.0000
     12 C4         2.8482    4.3327    6.0425 C.2       1 RES1    0.0000
@<TRIPOS>BOND
     1    1    2 1
     2    2    3 2
     3    3    4 1
     4    4    5 1
     5    5    6 2
     6    6    2 1
     7    7    6 1
     8    8    7 1
     9    9    8 2
    10   10    9 1
    11   11   10 1
    12   12    1 1
    13    8   12 1
    14   11   12 2
@<TRIPOS>SUBSTRUCTURE
     1 RES1 1

@<TRIPOS>CRYSIN
   5.1780    4.5440   12.7570  90.0000 112.8500  90.0000   7 1

