# MOL2 file generated by ConQuest
# Please check atom types

@<TRIPOS>MOLECULE
RIRMAH
    18    18     1
SMALL
USER_CHARGES
****
Generated from CSD

@<TRIPOS>ATOM
      1 C1         1.4382    5.0875    0.1293 C.2       1 RES1    0.0000
      2 N1         1.3074    4.7196   -1.2578 N.pl3     1 RES1    1.0000
      3 O1         0.7744    3.6415   -1.5502 O.2       1 RES1   -1.0000
      4 O2         1.7216    5.5070   -2.1301 O.2       1 RES1   -1.0000
      5 C2         0.9367    4.2269    1.1081 C.2       1 RES1    0.0000
      6 H1         0.5601    3.4126    0.8628 H         1 RES1    0.0000
      7 C3         1.0003    4.5846    2.4379 C.2       1 RES1    0.0000
      8 N2         0.5233    3.7146    3.4564 N.3       1 RES1    0.0000
      9 H2         0.1880    2.9509    3.2471 H         1 RES1    0.0000
     10 H3         0.5699    3.9527    4.2810 H         1 RES1    0.0000
     11 C4         1.5991    5.8307    2.7941 C.2       1 RES1    0.0000
     12 N3         1.6859    6.2058    4.1057 N.pl3     1 RES1    1.0000
     13 H4         2.0464    6.9583    4.3156 H         1 RES1    0.0000
     14 H5         1.3803    5.6895    4.7219 H         1 RES1    0.0000
     15 C5         2.0971    6.6717    1.7845 C.2       1 RES1    0.0000
     16 H6         2.4791    7.4880    2.0143 H         1 RES1    0.0000
     17 C6         2.0269    6.3007    0.4542 C.2       1 RES1    0.0000
     18 H7         2.3678    6.8552   -0.2109 H         1 RES1    0.0000
@<TRIPOS>BOND
     1    1    2 2
     2    2    3 1
     3    4    2 1
     4    5    1 1
     5    6    5 1
     6    7    5 2
     7    8    7 1
     8    9    8 1
     9   10    8 1
    10   11    7 1
    11   12   11 2
    12   13   12 1
    13   14   12 1
    14   15   11 1
    15   16   15 1
    16   17    1 1
    17   18   17 1
    18   15   17 2
@<TRIPOS>SUBSTRUCTURE
     1 RES1 1

@<TRIPOS>CRYSIN
   3.7590   10.3070   17.2900  90.0000  90.0000  90.0000  19 1

