# MOL2 file generated by ConQuest
# Please check atom types

@<TRIPOS>MOLECULE
RIRMAH01
    18    18     1
SMALL
NO_CHARGES
****
Generated from CSD

@<TRIPOS>ATOM
      1 O1         3.5962   10.6382   19.3595 O.2       1 RES1    0.0000
      2 O2         2.6507    8.7733   18.7830 O.2       1 RES1    0.0000
      3 N1         3.5524   11.3418   13.1473 N.pl3     1 RES1    0.0000
      4 H1         3.9742   12.0762   12.8906 H         1 RES1    0.0000
      5 H2         3.1868   10.8522   12.5131 H         1 RES1    0.0000
      6 N2         2.4115    8.8514   13.7878 N.pl3     1 RES1    0.0000
      7 H3         2.0358    9.2783   13.0905 H         1 RES1    0.0000
      8 H4         1.9683    8.2703   14.1076 H         1 RES1    0.0000
      9 N3         3.1816    9.8576   18.4879 N.pl3     1 RES1    0.0000
     10 C1         3.4676   10.9653   14.4475 C.ar      1 RES1    0.0000
     11 C2         2.8741    9.7196   14.8047 C.ar      1 RES1    0.0000
     12 C3         2.8089    9.3598   16.1306 C.ar      1 RES1    0.0000
     13 H5         2.4224    8.5285   16.3795 H         1 RES1    0.0000
     14 C4         3.3098   10.2154   17.1065 C.ar      1 RES1    0.0000
     15 C5         3.8917   11.4348   16.7836 C.ar      1 RES1    0.0000
     16 H6         4.2336   12.0053   17.4621 H         1 RES1    0.0000
     17 C6         3.9618   11.7954   15.4606 C.ar      1 RES1    0.0000
     18 H7         4.3547   12.6276   15.2263 H         1 RES1    0.0000
@<TRIPOS>BOND
     1    1    9 2
     2    2    9 2
     3    3    4 1
     4    5    3 1
     5    6    7 1
     6    8    6 1
     7    9   14 1
     8   10    3 1
     9   11    6 1
    10   12   11 ar
    11   13   12 1
    12   14   12 ar
    13   15   14 ar
    14   16   15 1
    15   17   10 ar
    16   18   17 1
    17   10   11 ar
    18   15   17 ar
@<TRIPOS>SUBSTRUCTURE
     1 RES1 1

@<TRIPOS>CRYSIN
   3.7492   10.2864   17.2380  90.0000  90.0000  90.0000  19 1

