# MOL2 file generated by ConQuest
# Please check atom types

@<TRIPOS>MOLECULE
RIRPAJ
    53    55     1
SMALL
NO_CHARGES
****
Generated from CSD

@<TRIPOS>ATOM
      1 O1         8.9853    1.9174    6.0587 O.3       1 RES1    0.0000
      2 O2         7.3237    0.7671    5.1213 O.2       1 RES1    0.0000
      3 O3        12.6326    4.2589    2.6180 O.3       1 RES1    0.0000
      4 O4        10.5432    4.8746    2.2001 O.2       1 RES1    0.0000
      5 O5        13.2187   -1.4260    2.9786 O.2       1 RES1    0.0000
      6 O6        13.4000   -0.2467    4.7652 O.2       1 RES1    0.0000
      7 N1         8.7022    3.2260    3.2273 N.3       1 RES1    0.0000
      8 N2        12.8613   -0.5425    3.7174 N.pl3     1 RES1    0.0000
      9 N3         8.2439   -0.3500    2.0588 N.1       1 RES1    0.0000
     10 C1         9.4096    1.0399    3.9352 C.3       1 RES1    0.0000
     11 C2        10.6752    0.3069    4.4650 C.3       1 RES1    0.0000
     12 C3        11.6664    0.2758    3.3068 C.3       1 RES1    0.0000
     13 C4        12.1437    1.6586    2.9138 C.3       1 RES1    0.0000
     14 C5        11.0177    2.6594    2.9389 C.2       1 RES1    0.0000
     15 C6         9.7519    2.3867    3.3333 C.2       1 RES1    0.0000
     16 C7        10.3502   -1.0198    5.0860 C.ar      1 RES1    0.0000
     17 C8        10.2844   -1.0931    6.4840 C.ar      1 RES1    0.0000
     18 C9         9.9166   -2.2653    7.0889 C.ar      1 RES1    0.0000
     19 C10        9.6374   -3.3814    6.3737 C.ar      1 RES1    0.0000
     20 C11        9.7146   -3.3243    4.9903 C.ar      1 RES1    0.0000
     21 C12       10.0812   -2.1620    4.3767 C.ar      1 RES1    0.0000
     22 C13       12.8162    1.6145    1.5364 C.ar      1 RES1    0.0000
     23 C14       12.0740    1.3588    0.4047 C.ar      1 RES1    0.0000
     24 C15       12.6584    1.3187   -0.8462 C.ar      1 RES1    0.0000
     25 C16       13.9482    1.5493   -0.9786 C.ar      1 RES1    0.0000
     26 C17       14.7207    1.7970    0.0986 C.ar      1 RES1    0.0000
     27 C18       14.1633    1.8492    1.3922 C.ar      1 RES1    0.0000
     28 C19        8.4179    1.2094    5.1081 C.2       1 RES1    0.0000
     29 C20        8.1789    2.1560    7.2375 C.3       1 RES1    0.0000
     30 C21       11.3291    4.0142    2.5386 C.2       1 RES1    0.0000
     31 C22       13.0786    5.5455    2.2207 C.3       1 RES1    0.0000
     32 C23        8.7285    0.2367    2.8962 C.1       1 RES1    0.0000
     33 H1        11.0622    0.9226    5.0919 H         1 RES1    0.0000
     34 H2        11.3119   -0.1805    2.6048 H         1 RES1    0.0000
     35 H3        12.8198    1.9655    3.5761 H         1 RES1    0.0000
     36 H4        10.5050   -0.2106    6.9461 H         1 RES1    0.0000
     37 H5         9.8987   -2.2663    8.0499 H         1 RES1    0.0000
     38 H6         9.3291   -4.3020    6.7695 H         1 RES1    0.0000
     39 H7         9.5118   -4.1015    4.4885 H         1 RES1    0.0000
     40 H8        10.1167   -2.0858    3.4289 H         1 RES1    0.0000
     41 H9        11.1301    1.0931    0.4856 H         1 RES1    0.0000
     42 H10       11.9662    1.0730   -1.6482 H         1 RES1    0.0000
     43 H11       14.4414    1.5945   -1.8395 H         1 RES1    0.0000
     44 H12       15.5410    1.9454    0.1324 H         1 RES1    0.0000
     45 H13       14.6321    2.0357    2.2075 H         1 RES1    0.0000
     46 H14        8.6629    2.6574    7.8733 H         1 RES1    0.0000
     47 H15        7.3759    2.6073    7.0050 H         1 RES1    0.0000
     48 H16        7.9378    1.3137    7.6378 H         1 RES1    0.0000
     49 H17       14.0296    5.6057    2.3252 H         1 RES1    0.0000
     50 H18       12.8524    5.6959    1.3098 H         1 RES1    0.0000
     51 H19       12.6684    6.2174    2.7520 H         1 RES1    0.0000
     52 H20        8.7892    3.9611    2.8697 H         1 RES1    0.0000
     53 H21        7.8524    2.9583    3.5761 H         1 RES1    0.0000
@<TRIPOS>BOND
     1    1   28 1
     2    2   28 2
     3    3   30 1
     4    4   30 2
     5    5    8 2
     6    6    8 2
     7    7   15 1
     8    8   12 1
     9    9   32 3
    10   10   11 1
    11   11   12 1
    12   12   13 1
    13   13   14 1
    14   14   15 2
    15   15   10 1
    16   16   11 1
    17   17   16 ar
    18   18   17 ar
    19   19   18 ar
    20   20   19 ar
    21   21   16 ar
    22   22   13 1
    23   23   22 ar
    24   24   23 ar
    25   25   24 ar
    26   26   25 ar
    27   27   22 ar
    28   28   10 1
    29   29    1 1
    30   30   14 1
    31   31    3 1
    32   32   10 1
    33   33   11 1
    34   34   12 1
    35   35   13 1
    36   36   17 1
    37   37   18 1
    38   38   19 1
    39   39   20 1
    40   40   21 1
    41   41   23 1
    42   42   24 1
    43   43   25 1
    44   44   26 1
    45   45   27 1
    46   46   29 1
    47   47   29 1
    48   48   29 1
    49   49   31 1
    50   50   31 1
    51   51   31 1
    52   52    7 1
    53   53    7 1
    54   20   21 ar
    55   26   27 ar
@<TRIPOS>SUBSTRUCTURE
     1 RES1 1

@<TRIPOS>CRYSIN
  14.9620   10.0280   14.7250  90.0000  91.9600  90.0000  14 1

