# MOL2 file generated by ConQuest
# Please check atom types

@<TRIPOS>MOLECULE
RISGOQ
    33    34     1
SMALL
NO_CHARGES
****
Generated from CSD

@<TRIPOS>ATOM
      1 O1         4.6696    3.3820    4.8878 O.2       1 RES1    0.0000
      2 O2         3.0480    4.6805    4.2782 O.2       1 RES1    0.0000
      3 O3        -1.3937    2.9935    4.0672 O.2       1 RES1    0.0000
      4 O4        -2.0204    1.5016    5.4989 O.2       1 RES1    0.0000
      5 O5         1.2661    0.2857    9.0667 O.2       1 RES1    0.0000
      6 O6         2.7330   -0.7429    7.8374 O.2       1 RES1    0.0000
      7 O7         5.6816    0.6059   12.9060 O.2       1 RES1    0.0000
      8 O8         7.3645   -0.4124   11.8487 O.3       1 RES1    0.0000
      9 N1         3.4645    3.6524    4.8014 N.pl3     1 RES1    0.0000
     10 N2        -1.1678    2.2134    4.9797 N.pl3     1 RES1    0.0000
     11 N3         1.9361    0.1665    8.0541 N.pl3     1 RES1    0.0000
     12 N4         4.1482    1.6197    6.7799 N.3       1 RES1    0.0000
     13 C1         2.8639    1.8198    6.4051 C.ar      1 RES1    0.0000
     14 C2         2.4919    2.7226    5.3672 C.ar      1 RES1    0.0000
     15 C3         1.1979    2.8622    4.9016 C.ar      1 RES1    0.0000
     16 C4         0.1997    2.1228    5.4879 C.ar      1 RES1    0.0000
     17 C5         0.4621    1.2888    6.5640 C.ar      1 RES1    0.0000
     18 C6         1.7569    1.1574    6.9925 C.ar      1 RES1    0.0000
     19 C7         5.6803    0.5606   10.5340 C.ar      1 RES1    0.0000
     20 C8         4.6733    1.5153   10.4385 C.ar      1 RES1    0.0000
     21 C9         4.1476    1.8560    9.2091 C.ar      1 RES1    0.0000
     22 C10        4.6246    1.2226    8.0695 C.ar      1 RES1    0.0000
     23 C11        5.6117    0.2500    8.1541 C.ar      1 RES1    0.0000
     24 C12        6.1399   -0.0774    9.3855 C.ar      1 RES1    0.0000
     25 C13        6.2318    0.2602   11.8708 C.2       1 RES1    0.0000
     26 H1         1.0032    3.4589    4.1881 H         1 RES1    0.0000
     27 H2        -0.2411    0.8178    6.9947 H         1 RES1    0.0000
     28 H3         4.7414    1.9655    6.2462 H         1 RES1    0.0000
     29 H4         4.3444    1.9359   11.2249 H         1 RES1    0.0000
     30 H5         3.4661    2.5159    9.1437 H         1 RES1    0.0000
     31 H6         5.9204   -0.1864    7.3696 H         1 RES1    0.0000
     32 H7         6.8174   -0.7388    9.4494 H         1 RES1    0.0000
     33 H8         7.6765   -0.5143   12.6879 H         1 RES1    0.0000
@<TRIPOS>BOND
     1    1    9 2
     2    2    9 2
     3    3   10 2
     4    4   10 2
     5    5   11 2
     6    6   11 2
     7    7   25 2
     8    8   25 1
     9    9   14 1
    10   10   16 1
    11   11   18 1
    12   12   13 1
    13   13   14 ar
    14   14   15 ar
    15   15   16 ar
    16   16   17 ar
    17   17   18 ar
    18   18   13 ar
    19   19   20 ar
    20   20   21 ar
    21   21   22 ar
    22   22   12 1
    23   23   22 ar
    24   24   19 ar
    25   25   19 1
    26   26   15 1
    27   27   17 1
    28   28   12 1
    29   29   20 1
    30   30   21 1
    31   31   23 1
    32   32   24 1
    33   33    8 1
    34   23   24 ar
@<TRIPOS>SUBSTRUCTURE
     1 RES1 1

@<TRIPOS>CRYSIN
  20.3170    5.0919   13.9364  90.0000 102.9030  90.0000  14 1

