# MOL2 file generated by ConQuest
# Please check atom types

@<TRIPOS>MOLECULE
RITMAK
    24    26     1
SMALL
NO_CHARGES
****
Generated from CSD

@<TRIPOS>ATOM
      1 O1         9.2293    2.1480    0.5421 O.2       1 RES1    0.0000
      2 O2         7.2904    1.7215    1.4318 O.2       1 RES1    0.0000
      3 N1        10.1509    0.8082   -1.6150 N.3       1 RES1    0.0000
      4 N2         8.1892    1.4832    0.6258 N.pl3     1 RES1    0.0000
      5 C1         9.0079    0.1429   -1.2768 C.ar      1 RES1    0.0000
      6 C2         8.0452    0.3755   -0.2896 C.ar      1 RES1    0.0000
      7 C3         6.9309   -0.4540   -0.1804 C.ar      1 RES1    0.0000
      8 C4         6.7557   -1.5077   -1.0692 C.ar      1 RES1    0.0000
      9 C5         7.7091   -1.7739   -2.0538 C.ar      1 RES1    0.0000
     10 C6         8.8363   -0.9710   -2.1544 C.ar      1 RES1    0.0000
     11 C7         9.9723   -0.9549   -3.0482 C.ar      1 RES1    0.0000
     12 C8        10.4039   -1.7909   -4.0845 C.ar      1 RES1    0.0000
     13 C9        11.5845   -1.4715   -4.7445 C.ar      1 RES1    0.0000
     14 C10       12.3304   -0.3346   -4.3872 C.ar      1 RES1    0.0000
     15 C11       11.9286    0.4910   -3.3498 C.ar      1 RES1    0.0000
     16 C12       10.7496    0.1613   -2.6887 C.ar      1 RES1    0.0000
     17 H1        12.4445    1.2330   -3.0269 H         1 RES1    0.0000
     18 H2         7.5761   -2.5352   -2.6730 H         1 RES1    0.0000
     19 H3         5.9695   -2.0728   -1.0447 H         1 RES1    0.0000
     20 H4         9.8570   -2.5511   -4.3251 H         1 RES1    0.0000
     21 H5        11.9275   -2.0409   -5.4634 H         1 RES1    0.0000
     22 H6         6.2579   -0.3667    0.5036 H         1 RES1    0.0000
     23 H7        13.1294   -0.1382   -4.8628 H         1 RES1    0.0000
     24 H8        10.4861    1.4616   -1.1740 H         1 RES1    0.0000
@<TRIPOS>BOND
     1    1    4 2
     2    2    4 2
     3    3    5 1
     4    4    6 1
     5    5    6 ar
     6    6    7 ar
     7    7    8 ar
     8    8    9 ar
     9    9   10 ar
    10   10    5 ar
    11   11   10 1
    12   12   11 ar
    13   13   12 ar
    14   14   13 ar
    15   15   14 ar
    16   16    3 1
    17   17   15 1
    18   18    9 1
    19   19    8 1
    20   20   12 1
    21   21   13 1
    22   22    7 1
    23   23   14 1
    24   24    3 1
    25   11   16 ar
    26   15   16 ar
@<TRIPOS>SUBSTRUCTURE
     1 RES1 1

@<TRIPOS>CRYSIN
  10.4400    5.3148   17.2638  90.0000  99.7460  90.0000 231 1

