# MOL2 file generated by ConQuest
# Please check atom types

@<TRIPOS>MOLECULE
RIVBAZ
    37    34     2
SMALL
NO_CHARGES
****
Generated from CSD

@<TRIPOS>ATOM
      1 C1        -4.9034    2.8453    9.4495 C.2       1 RES1    0.0000
      2 N1        -5.1352    3.8556    8.5177 N.2       1 RES1    0.0000
      3 O1        -6.0291    4.3305    8.2282 O.2       1 RES1    0.0000
      4 N2        -4.9527    4.0989    8.8498 Du        2 SUP2    0.0000
      5 O2        -4.5362    4.5083    7.9789 Du        2 SUP2    0.0000
      6 C2        -3.6567    2.5209   10.0400 C.2       1 RES1    0.0000
      7 N3        -3.8767    1.4109   10.7362 N.3       1 RES1    0.0000
      8 N4        -5.1841    0.9976   10.6535 N.2       1 RES1    0.0000
      9 C3        -5.8360    1.8497    9.8872 C.2       1 RES1    0.0000
     10 C4        -2.3144    3.1941    9.9872 C.3       1 RES1    0.0000
     11 C5        -1.3422    2.5180   10.9361 C.3       1 RES1    0.0000
     12 C6        -2.4459    4.6657   10.3755 C.3       1 RES1    0.0000
     13 C7        -1.7585    3.0867    8.5511 C.3       1 RES1    0.0000
     14 C8        -7.3181    1.6923    9.6092 C.3       1 RES1    0.0000
     15 C9        -7.8573    0.4495   10.3042 C.3       1 RES1    0.0000
     16 C10       -7.5522    1.5516    8.0996 C.3       1 RES1    0.0000
     17 C11       -8.0606    2.9186   10.1492 C.3       1 RES1    0.0000
     18 H1        -3.2716    0.9996   11.1877 H         1 RES1    0.0000
     19 H2        -5.5201    0.3039   11.0361 Du        2 SUP2    0.0000
     20 H3        -0.4950    2.9675   10.9017 H         1 RES1    0.0000
     21 H4        -1.2278    1.6005   10.6788 H         1 RES1    0.0000
     22 H5        -1.6878    2.5580   11.8311 H         1 RES1    0.0000
     23 H6        -1.5838    5.0848   10.3387 H         1 RES1    0.0000
     24 H7        -2.7950    4.7301   11.2682 H         1 RES1    0.0000
     25 H8        -3.0438    5.1053    9.7666 H         1 RES1    0.0000
     26 H9        -0.9003    3.5146    8.5074 H         1 RES1    0.0000
     27 H10       -2.3624    3.5166    7.9410 H         1 RES1    0.0000
     28 H11       -1.6679    2.1613    8.3121 H         1 RES1    0.0000
     29 H12       -8.7914    0.3518   10.1055 H         1 RES1    0.0000
     30 H13       -7.7404    0.5374   11.2532 H         1 RES1    0.0000
     31 H14       -7.3817   -0.3244    9.9941 H         1 RES1    0.0000
     32 H15       -8.4931    1.4608    7.9284 H         1 RES1    0.0000
     33 H16       -7.0906    0.7748    7.7744 H         1 RES1    0.0000
     34 H17       -7.2197    2.3323    7.6492 H         1 RES1    0.0000
     35 H18       -8.9983    2.8355    9.9573 H         1 RES1    0.0000
     36 H19       -7.7178    3.7110    9.7298 H         1 RES1    0.0000
     37 H20       -7.9319    2.9782   11.0981 H         1 RES1    0.0000
@<TRIPOS>BOND
     1    1    2 1
     2    2    3 2
     3    6    1 2
     4    7    6 1
     5    8    7 1
     6    9    1 1
     7   10    6 1
     8   11   10 1
     9   12   10 1
    10   13   10 1
    11   14    9 1
    12   15   14 1
    13   16   14 1
    14   17   14 1
    15   18    7 1
    16   20   11 1
    17   21   11 1
    18   22   11 1
    19   23   12 1
    20   24   12 1
    21   25   12 1
    22   26   13 1
    23   27   13 1
    24   28   13 1
    25   29   15 1
    26   30   15 1
    27   31   15 1
    28   32   16 1
    29   33   16 1
    30   34   16 1
    31   35   17 1
    32   36   17 1
    33   37   17 1
    34    8    9 2
@<TRIPOS>SUBSTRUCTURE
     1 RES1 1
     2 SUP2 4

@<TRIPOS>CRYSIN
  10.7580    9.7710   12.2140  90.0000 109.8440  90.0000  14 1

