# MOL2 file generated by ConQuest
# Please check atom types

@<TRIPOS>MOLECULE
RIWNUG
    61    63     1
SMALL
NO_CHARGES
****
Generated from CSD

@<TRIPOS>ATOM
      1 C1         5.9414    2.7538    3.9976 C.3       1 RES1    0.0000
      2 C2         5.0949    1.5075    3.6802 C.3       1 RES1    0.0000
      3 C3         3.8555    1.7983    2.8039 C.3       1 RES1    0.0000
      4 C4         3.3346    0.5053    2.1608 C.3       1 RES1    0.0000
      5 C5         2.3514    0.7566    1.0366 C.3       1 RES1    0.0000
      6 C6         1.8098   -0.4918    0.4067 C.3       1 RES1    0.0000
      7 C7         2.7762    2.4605    3.5462 C.1       1 RES1    0.0000
      8 C8         1.8934    2.9805    4.1117 C.1       1 RES1    0.0000
      9 C9         5.8077    0.2031    5.6459 C.3       1 RES1    0.0000
     10 C10        6.6642   -0.7779    4.8738 C.ar      1 RES1    0.0000
     11 C11        6.0983   -1.8359    4.2175 C.ar      1 RES1    0.0000
     12 C12        5.8842    4.3495    5.7633 C.2       1 RES1    0.0000
     13 C13        6.8718   -2.7321    3.5214 C.ar      1 RES1    0.0000
     14 C14        8.1816   -2.5931    3.4669 C.ar      1 RES1    0.0000
     15 C15        8.8078   -1.5795    4.1117 C.ar      1 RES1    0.0000
     16 C16        8.0347   -0.6361    4.8192 C.ar      1 RES1    0.0000
     17 C17        7.2348    3.0437    1.9046 C.ar      1 RES1    0.0000
     18 C18        7.5532    3.7040    0.7274 C.ar      1 RES1    0.0000
     19 C19        6.9610    4.8879    0.4199 C.ar      1 RES1    0.0000
     20 C20        6.0314    5.4105    1.2846 C.ar      1 RES1    0.0000
     21 C21        5.6938    4.7606    2.4634 C.ar      1 RES1    0.0000
     22 C22        6.2920    3.5392    2.7725 C.ar      1 RES1    0.0000
     23 C23        4.9763    5.2733    6.5072 C.ar      1 RES1    0.0000
     24 C24        3.6033    5.2148    6.3419 C.ar      1 RES1    0.0000
     25 C25        2.7954    6.1042    7.0330 C.ar      1 RES1    0.0000
     26 C26        3.3806    7.0037    7.8695 C.ar      1 RES1    0.0000
     27 C27        4.7165    7.0770    8.0547 C.ar      1 RES1    0.0000
     28 C28        5.5435    6.1960    7.3653 C.ar      1 RES1    0.0000
     29 O1         1.2755    7.8390    8.4448 O.2       1 RES1    0.0000
     30 O2         3.0326    8.7210    9.3525 O.2       1 RES1    0.0000
     31 O3         7.0764    4.3339    5.8658 O.2       1 RES1    0.0000
     32 O4         5.1826    3.5755    4.9251 O.3       1 RES1    0.0000
     33 N1         4.6934    0.7136    4.8407 N.3       1 RES1    0.0000
     34 N2         2.4631    7.9043    8.6184 N.pl3     1 RES1    0.0000
     35 H1         6.8019    2.4886    4.4258 H         1 RES1    0.0000
     36 H2         5.7368    0.9188    3.1941 H         1 RES1    0.0000
     37 H3         4.1196    2.4581    2.0996 H         1 RES1    0.0000
     38 H4         4.1160   -0.0038    1.7938 H         1 RES1    0.0000
     39 H5         2.8862   -0.0420    2.8667 H         1 RES1    0.0000
     40 H6         2.8102    1.2946    0.3323 H         1 RES1    0.0000
     41 H7         1.5819    1.2790    1.4086 H         1 RES1    0.0000
     42 H8         1.1678   -0.2444   -0.3240 H         1 RES1    0.0000
     43 H9         2.5625   -1.0232    0.0165 H         1 RES1    0.0000
     44 H10        1.3342   -1.0388    1.0928 H         1 RES1    0.0000
     45 H11        1.1420    3.4156    4.6027 H         1 RES1    0.0000
     46 H12        6.3734    0.9740    5.9302 H         1 RES1    0.0000
     47 H13        5.4324   -0.2539    6.4527 H         1 RES1    0.0000
     48 H14        5.0780   -1.9575    4.2571 H         1 RES1    0.0000
     49 H15        6.3991   -3.5288    3.0403 H         1 RES1    0.0000
     50 H16        8.7336   -3.2412    2.9395 H         1 RES1    0.0000
     51 H17        9.7976   -1.5095    4.0703 H         1 RES1    0.0000
     52 H18        8.4877    0.1255    5.2871 H         1 RES1    0.0000
     53 H19        7.7049    2.1882    2.1310 H         1 RES1    0.0000
     54 H20        8.2214    3.2992    0.0975 H         1 RES1    0.0000
     55 H21        7.1929    5.3699   -0.4282 H         1 RES1    0.0000
     56 H22        5.5931    6.2830    1.0630 H         1 RES1    0.0000
     57 H23        5.0170    5.1621    3.0817 H         1 RES1    0.0000
     58 H24        3.1983    4.5341    5.7318 H         1 RES1    0.0000
     59 H25        1.8046    6.0976    6.9106 H         1 RES1    0.0000
     60 H26        5.1254    7.7450    8.6813 H         1 RES1    0.0000
     61 H27        6.5358    6.2315    7.4810 H         1 RES1    0.0000
@<TRIPOS>BOND
     1    1    2 1
     2    2    3 1
     3    3    4 1
     4    4    5 1
     5    5    6 1
     6    6   42 1
     7    7    3 1
     8    8    7 3
     9    9   10 1
    10   10   11 ar
    11   11   13 ar
    12   12   23 1
    13   13   14 ar
    14   14   15 ar
    15   15   16 ar
    16   16   10 ar
    17   17   18 ar
    18   18   19 ar
    19   19   20 ar
    20   20   21 ar
    21   21   22 ar
    22   22    1 1
    23   23   24 ar
    24   24   25 ar
    25   25   26 ar
    26   26   27 ar
    27   27   28 ar
    28   28   23 ar
    29   29   34 2
    30   30   34 2
    31   31   12 2
    32   32    1 1
    33   33    2 1
    34   34   26 1
    35   35    1 1
    36   36    2 1
    37   37    3 1
    38   38    4 1
    39   39    4 1
    40   40    5 1
    41   41    5 1
    42   43    6 1
    43   44    6 1
    44   45    8 1
    45   46    9 1
    46   47    9 1
    47   48   11 1
    48   49   13 1
    49   50   14 1
    50   51   15 1
    51   52   16 1
    52   53   17 1
    53   54   18 1
    54   55   19 1
    55   56   20 1
    56   57   21 1
    57   58   24 1
    58   59   25 1
    59   60   27 1
    60   61   28 1
    61    9   33 1
    62   12   32 1
    63   17   22 ar
@<TRIPOS>SUBSTRUCTURE
     1 RES1 1

@<TRIPOS>CRYSIN
   8.0200    9.5840   16.8920  85.8900  78.2900  78.0100   2 1

