# MOL2 file generated by ConQuest
# Please check atom types

@<TRIPOS>MOLECULE
RIWPIW
    19    20     1
SMALL
NO_CHARGES
****
Generated from CSD

@<TRIPOS>ATOM
      1 O1         2.9214    1.3258   -1.3550 O.3       1 RES1    0.0000
      2 O2         0.6285    0.5903    4.2261 O.2       1 RES1    0.0000
      3 N1        -1.3384    1.7680    2.7316 N.ar      1 RES1    0.0000
      4 N2         1.6295    1.5825   -0.9891 N.2       1 RES1    0.0000
      5 C1        -2.2929    2.2512    1.9498 C.ar      1 RES1    0.0000
      6 C2        -2.1437    2.4108    0.5840 C.ar      1 RES1    0.0000
      7 C3        -0.9438    2.1139    0.0081 C.ar      1 RES1    0.0000
      8 C4         1.4335    1.3258    0.2778 C.2       1 RES1    0.0000
      9 C5         2.4369    0.8211    1.1924 C.2       1 RES1    0.0000
     10 C6         2.1882    0.6090    2.4809 C.2       1 RES1    0.0000
     11 C7         0.8687    0.8527    3.0622 C.2       1 RES1    0.0000
     12 C8         0.1032    1.6228    0.8048 C.ar      1 RES1    0.0000
     13 C9        -0.1558    1.4308    2.1625 C.ar      1 RES1    0.0000
     14 H1        -3.1469    2.5668    2.3847 H         1 RES1    0.0000
     15 H2        -2.8263    2.7394    0.0677 H         1 RES1    0.0000
     16 H3        -0.7945    2.2649   -0.8943 H         1 RES1    0.0000
     17 H4         2.9111    1.6321   -2.3170 H         1 RES1    0.0000
     18 H5         3.2791    0.6615    0.8265 H         1 RES1    0.0000
     19 H6         2.8822    0.2301    3.1029 H         1 RES1    0.0000
@<TRIPOS>BOND
     1    1    4 1
     2    2   11 2
     3    3    5 ar
     4    4    8 2
     5    5    6 ar
     6    6    7 ar
     7    7   12 ar
     8    8    9 1
     9    9   10 2
    10   10   11 1
    11   11   13 1
    12   12    8 1
    13   13    3 ar
    14   14    5 1
    15   15    6 1
    16   16    7 1
    17   17    1 1
    18   18    9 1
    19   19   10 1
    20   12   13 ar
@<TRIPOS>SUBSTRUCTURE
     1 RES1 1

@<TRIPOS>CRYSIN
   7.9460    7.1900   13.5930  90.0000  94.5800  90.0000 231 1

