# MOL2 file generated by ConQuest
# Please check atom types

@<TRIPOS>MOLECULE
RIWPIW01
    19    20     1
SMALL
NO_CHARGES
****
Generated from CSD

@<TRIPOS>ATOM
      1 O1         4.5171    1.3229    8.1307 O.3       1 RES1    0.0000
      2 O2         6.7865    0.5907    2.5480 O.2       1 RES1    0.0000
      3 N1         8.7546    1.7641    4.0443 N.ar      1 RES1    0.0000
      4 N2         5.7930    1.5766    7.7566 N.2       1 RES1    0.0000
      5 C1         9.7099    2.2456    4.8250 C.ar      1 RES1    0.0000
      6 C2         9.5617    2.4058    6.1993 C.ar      1 RES1    0.0000
      7 C3         8.3691    2.1112    6.7726 C.ar      1 RES1    0.0000
      8 C4         7.3211    1.6183    5.9676 C.ar      1 RES1    0.0000
      9 C5         5.9837    1.3236    6.4934 C.2       1 RES1    0.0000
     10 C6         4.9857    0.8192    5.5840 C.2       1 RES1    0.0000
     11 C7         5.2347    0.6072    4.2937 C.2       1 RES1    0.0000
     12 C8         6.5460    0.8522    3.7150 C.2       1 RES1    0.0000
     13 C9         7.5761    1.4336    4.6203 C.ar      1 RES1    0.0000
     14 H1        10.5187    2.4878    4.4360 H         1 RES1    0.0000
     15 H2        10.3079    2.7120    6.2291 H         1 RES1    0.0000
     16 H3         8.2437    2.2319    7.6861 H         1 RES1    0.0000
     17 H4         4.4216    1.5141    8.9222 H         1 RES1    0.0000
     18 H5         4.1355    0.6352    5.9106 H         1 RES1    0.0000
     19 H6         4.5505    0.2939    3.7475 H         1 RES1    0.0000
@<TRIPOS>BOND
     1    1    4 1
     2    2   12 2
     3    3    5 ar
     4    4    9 2
     5    5    6 ar
     6    6    7 ar
     7    7    8 ar
     8    8    9 1
     9    9   10 1
    10   10   11 2
    11   11   12 1
    12   12   13 1
    13   13    3 ar
    14   14    5 1
    15   15    6 1
    16   16    7 1
    17   17    1 1
    18   18   10 1
    19   19   11 1
    20    8   13 ar
@<TRIPOS>SUBSTRUCTURE
     1 RES1 1

@<TRIPOS>CRYSIN
   7.9370    7.1859   13.5920  90.0000  94.3200  90.0000 231 1

