# MOL2 file generated by ConQuest
# Please check atom types

@<TRIPOS>MOLECULE
RIWROE
    27    28     1
SMALL
USER_CHARGES
****
Generated from CSD

@<TRIPOS>ATOM
      1 O1        11.2654    1.9835    1.1782 O.2       1 RES1   -1.0000
      2 O2        15.9419    6.4234    0.7313 O.3       1 RES1    0.0000
      3 N1        10.8708    2.6367    2.2612 N.pl3     1 RES1    1.0000
      4 C1        14.8523    5.7800    1.2114 C.ar      1 RES1    0.0000
      5 C2        11.4735    3.7066    2.7036 C.2       1 RES1    0.0000
      6 C3         9.6606    2.1575    2.8938 C.ar      1 RES1    0.0000
      7 C4        13.5157    3.7935    1.1997 C.ar      1 RES1    0.0000
      8 C5        14.6004    4.4987    0.7483 C.ar      1 RES1    0.0000
      9 C6        12.6471    4.3361    2.1562 C.ar      1 RES1    0.0000
     10 C7        14.0039    6.3435    2.1571 C.ar      1 RES1    0.0000
     11 C8        12.9405    5.6230    2.6336 C.ar      1 RES1    0.0000
     12 C9         8.6324    1.7327    2.0844 C.ar      1 RES1    0.0000
     13 C10        9.5521    2.1211    4.2649 C.ar      1 RES1    0.0000
     14 C11        7.4639    1.3108    2.6686 C.ar      1 RES1    0.0000
     15 C12        7.3394    1.2785    4.0405 C.ar      1 RES1    0.0000
     16 C13        8.3727    1.6823    4.8409 C.ar      1 RES1    0.0000
     17 H1        11.0272    4.1146    3.4465 H         1 RES1    0.0000
     18 H2        12.3742    5.9623    3.2428 H         1 RES1    0.0000
     19 H3        15.9304    7.3361    0.9754 H         1 RES1    0.0000
     20 H4        13.3570    2.9384    0.8668 H         1 RES1    0.0000
     21 H5         8.3168    1.6248    5.7669 H         1 RES1    0.0000
     22 H6        14.1379    7.2394    2.5151 H         1 RES1    0.0000
     23 H7        15.2180    4.1356    0.0826 H         1 RES1    0.0000
     24 H8         8.7460    1.7776    1.1459 H         1 RES1    0.0000
     25 H9         6.5514    0.9757    4.4605 H         1 RES1    0.0000
     26 H10        6.6884    1.0795    2.0997 H         1 RES1    0.0000
     27 H11       10.2409    2.3103    4.7557 H         1 RES1    0.0000
@<TRIPOS>BOND
     1    1    3 1
     2    2    4 1
     3    3    5 2
     4    4    8 ar
     5    5    9 1
     6    6    3 1
     7    7    8 ar
     8    8   23 1
     9    9    7 ar
    10   10    4 ar
    11   11    9 ar
    12   12    6 ar
    13   13    6 ar
    14   14   12 ar
    15   15   14 ar
    16   16   13 ar
    17   17    5 1
    18   18   11 1
    19   19    2 1
    20   20    7 1
    21   21   16 1
    22   22   10 1
    23   24   12 1
    24   25   15 1
    25   26   14 1
    26   27   13 1
    27   10   11 ar
    28   15   16 ar
@<TRIPOS>SUBSTRUCTURE
     1 RES1 1

@<TRIPOS>CRYSIN
  18.0330   14.0190    8.9730  90.0000  90.0000  90.0000  61 1

