# MOL2 file generated by ConQuest
# Please check atom types

@<TRIPOS>MOLECULE
RIYNOD
    43    43     1
SMALL
NO_CHARGES
****
Generated from CSD

@<TRIPOS>ATOM
      1 O1         6.5334    4.5877    9.3518 O.2       1 RES1    0.0000
      2 O2         4.9530    2.3980    8.4497 O.3       1 RES1    0.0000
      3 O3         0.8273   -2.3916    5.9001 O.2       1 RES1    0.0000
      4 O4        -0.9056   -1.2160    6.4937 O.2       1 RES1    0.0000
      5 N1         0.2976   -1.4392    6.4604 N.pl3     1 RES1    0.0000
      6 N2         5.9159    5.0426   11.5067 N.am      1 RES1    0.0000
      7 N3         7.7642    6.0461   10.5680 N.am      1 RES1    0.0000
      8 C1         4.7225    4.1987   11.3799 C.3       1 RES1    0.0000
      9 C2         2.8517    1.2989    8.4561 C.ar      1 RES1    0.0000
     10 C3         3.9964    1.8772   10.6142 C.3       1 RES1    0.0000
     11 C4         5.0375    2.7212   11.2788 C.2       1 RES1    0.0000
     12 C5         1.4764    1.3691    8.6196 C.ar      1 RES1    0.0000
     13 C6         7.8605    6.9815   11.6788 C.3       1 RES1    0.0000
     14 C7         3.7356    2.2853    9.1604 C.3       1 RES1    0.0000
     15 C8         6.7148    5.1978   10.4089 C.2       1 RES1    0.0000
     16 C9         8.6375    6.2905    9.4422 C.3       1 RES1    0.0000
     17 C10        0.6444    0.4741    7.9701 C.ar      1 RES1    0.0000
     18 C11        1.1865   -0.4826    7.1797 C.ar      1 RES1    0.0000
     19 C12        6.1504    2.2131   11.7282 C.2       1 RES1    0.0000
     20 C13        3.3745    0.3253    7.6464 C.ar      1 RES1    0.0000
     21 C14        3.8145    4.4856   12.5756 C.3       1 RES1    0.0000
     22 C15        2.5585   -0.5740    7.0055 C.ar      1 RES1    0.0000
     23 H1         5.5116    3.0273    8.9475 H         1 RES1    0.0000
     24 H2         4.1592    4.3709   10.5831 H         1 RES1    0.0000
     25 H3         4.2580    0.9588   10.6282 H         1 RES1    0.0000
     26 H4         3.1374    1.7305   11.0616 H         1 RES1    0.0000
     27 H5         1.0472    1.9813    9.2454 H         1 RES1    0.0000
     28 H6         7.9362    6.6647   12.5917 H         1 RES1    0.0000
     29 H7         7.0715    7.5129   11.7315 H         1 RES1    0.0000
     30 H8         3.3004    3.1761    9.1486 H         1 RES1    0.0000
     31 H9         8.2363    6.9411    8.8873 H         1 RES1    0.0000
     32 H10        9.5031    6.3501    9.8336 H         1 RES1    0.0000
     33 H11        8.7920    5.5146    8.8551 H         1 RES1    0.0000
     34 H12       -0.3134    0.6356    8.0432 H         1 RES1    0.0000
     35 H13        6.9453    2.6956   12.0820 H         1 RES1    0.0000
     36 H14        6.3954    1.3138   11.6368 H         1 RES1    0.0000
     37 H15        4.2705    4.3581   13.3917 H         1 RES1    0.0000
     38 H16        2.9892    4.0116   12.4670 H         1 RES1    0.0000
     39 H17        3.4760    5.3998   12.5444 H         1 RES1    0.0000
     40 H18        2.9273   -1.2585    6.3991 H         1 RES1    0.0000
     41 H19        8.7101    7.4662   11.6519 H         1 RES1    0.0000
     42 H20        4.3200    0.2891    7.4013 H         1 RES1    0.0000
     43 H21        6.1913    5.6039   12.4874 H         1 RES1    0.0000
@<TRIPOS>BOND
     1    1   15 2
     2    2   14 1
     3    3    5 2
     4    4    5 2
     5    5   18 1
     6    6    8 1
     7    7   13 1
     8    8   11 1
     9    9   12 ar
    10   10   11 1
    11   11   19 2
    12   12   17 ar
    13   13   28 1
    14   14    9 1
    15   15    6 1
    16   16    7 1
    17   17   18 ar
    18   18   22 ar
    19   19   35 1
    20   20    9 ar
    21   21    8 1
    22   22   20 ar
    23   23    2 1
    24   24    8 1
    25   25   10 1
    26   26   10 1
    27   27   12 1
    28   29   13 1
    29   30   14 1
    30   31   16 1
    31   32   16 1
    32   33   16 1
    33   34   17 1
    34   36   19 1
    35   37   21 1
    36   38   21 1
    37   39   21 1
    38   40   22 1
    39   41   13 1
    40   42   20 1
    41   43    6 1
    42    7   15 1
    43   10   14 1
@<TRIPOS>SUBSTRUCTURE
     1 RES1 1

@<TRIPOS>CRYSIN
   6.9908   21.2590   10.7936  90.0000  94.9740  90.0000  14 1

