# MOL2 file generated by ConQuest
# Please check atom types

@<TRIPOS>MOLECULE
RIYNIX
    44    46     1
SMALL
NO_CHARGES
****
Generated from CSD

@<TRIPOS>ATOM
      1 O1         7.3623    5.9631    6.4789 O.2       1 RES1    0.0000
      2 O2         7.1066    4.4697    4.9787 O.2       1 RES1    0.0000
      3 O3         7.7735   -0.4356    9.8223 O.3       1 RES1    0.0000
      4 O4         5.4138    3.2978   13.4907 O.2       1 RES1    0.0000
      5 O5         2.5715   -0.2071   12.7558 O.2       1 RES1    0.0000
      6 N1         7.2124    4.8116    6.1342 N.pl3     1 RES1    0.0000
      7 N2         4.2759    1.3264   13.1020 N.am      1 RES1    0.0000
      8 C1         7.0754    3.1615    9.4549 C.ar      1 RES1    0.0000
      9 C2         7.0993    4.1626    8.5029 C.ar      1 RES1    0.0000
     10 C3         7.1365    3.7664    7.1713 C.ar      1 RES1    0.0000
     11 C4         7.1341    2.4361    6.7628 C.ar      1 RES1    0.0000
     12 C5         7.1297    1.4642    7.7680 C.ar      1 RES1    0.0000
     13 C6         7.1059    1.8147    9.1102 C.ar      1 RES1    0.0000
     14 C7         7.1000    0.7498   10.2065 C.3       1 RES1    0.0000
     15 C8         5.6629    0.4521   10.6073 C.3       1 RES1    0.0000
     16 C9         5.5457   -0.3749   11.8782 C.2       1 RES1    0.0000
     17 C10        5.4315    0.4096   13.1703 C.3       1 RES1    0.0000
     18 C11        5.3717   -0.3922   14.4549 C.3       1 RES1    0.0000
     19 C12        5.5898   -1.6957   11.8539 C.2       1 RES1    0.0000
     20 C13        4.3740    2.7078   13.3009 C.2       1 RES1    0.0000
     21 C14        2.9819    3.2292   13.2250 C.ar      1 RES1    0.0000
     22 C15        2.5001    4.5123   13.3222 C.ar      1 RES1    0.0000
     23 C16        1.1559    4.6926   13.1870 C.ar      1 RES1    0.0000
     24 C17        0.2906    3.6443   12.9487 C.ar      1 RES1    0.0000
     25 C18        0.7804    2.3424   12.8333 C.ar      1 RES1    0.0000
     26 C19        2.1330    2.1817   12.9972 C.ar      1 RES1    0.0000
     27 C20        2.9445    0.9310   12.9259 C.2       1 RES1    0.0000
     28 H1         7.0910    3.4577   10.3401 H         1 RES1    0.0000
     29 H2         7.2286    5.2613    8.6699 H         1 RES1    0.0000
     30 H3         7.3637    2.1266    5.6180 H         1 RES1    0.0000
     31 H4         7.1152    0.4931    7.5205 H         1 RES1    0.0000
     32 H5         7.5422    1.1200   11.0158 H         1 RES1    0.0000
     33 H6         4.9600    1.4177   10.7652 H         1 RES1    0.0000
     34 H7         5.3098   -0.1174    9.8633 H         1 RES1    0.0000
     35 H8         6.2479    0.9806   13.2204 H         1 RES1    0.0000
     36 H9         5.2939    0.3466   15.2900 H         1 RES1    0.0000
     37 H10        4.3448   -0.9766   14.4701 H         1 RES1    0.0000
     38 H11        6.0124   -1.0397   14.5308 H         1 RES1    0.0000
     39 H12        5.7273   -2.1423   11.1145 H         1 RES1    0.0000
     40 H13        5.4322   -2.2605   12.8150 H         1 RES1    0.0000
     41 H14        3.0205    5.1668   13.4983 H         1 RES1    0.0000
     42 H15        0.7475    5.6787   13.1491 H         1 RES1    0.0000
     43 H16       -0.6950    3.8176   12.8530 H         1 RES1    0.0000
     44 H17        0.2907    1.5516   12.5417 H         1 RES1    0.0000
@<TRIPOS>BOND
     1    1    6 2
     2    2    6 2
     3    3   14 1
     4    4   20 2
     5    5   27 2
     6    6   10 1
     7    7   17 1
     8    8    9 ar
     9    9   10 ar
    10   10   11 ar
    11   11   12 ar
    12   12   13 ar
    13   13    8 ar
    14   14   13 1
    15   15   14 1
    16   16   15 1
    17   17   16 1
    18   18   17 1
    19   19   16 2
    20   20    7 1
    21   21   20 1
    22   22   21 ar
    23   23   22 ar
    24   24   23 ar
    25   25   24 ar
    26   26   21 ar
    27   27    7 1
    28   28    8 1
    29   29    9 1
    30   30   11 1
    31   31   12 1
    32   32   14 1
    33   33   15 1
    34   34   15 1
    35   35   17 1
    36   36   18 1
    37   37   18 1
    38   38   18 1
    39   39   19 1
    40   40   19 1
    41   41   22 1
    42   42   23 1
    43   43   24 1
    44   44   25 1
    45   25   26 ar
    46   26   27 1
@<TRIPOS>SUBSTRUCTURE
     1 RES1 1

@<TRIPOS>CRYSIN
  14.9076    7.8762   15.7625  90.0000 105.5750  90.0000 231 1

