# MOL2 file generated by ConQuest
# Please check atom types

@<TRIPOS>MOLECULE
RIYQOG
    40    41     1
SMALL
NO_CHARGES
****
Generated from CSD

@<TRIPOS>ATOM
      1 O1         8.3501    6.1902    1.7874 O.3       1 RES1    0.0000
      2 O2        12.0893    6.2984    2.2022 O.3       1 RES1    0.0000
      3 O3         7.6625    3.3679    2.2919 O.2       1 RES1    0.0000
      4 O4         6.4341    3.5523    4.0594 O.2       1 RES1    0.0000
      5 O5         9.5479    4.6168    7.7395 O.2       1 RES1    0.0000
      6 O6        10.5509    6.5264    7.6367 O.2       1 RES1    0.0000
      7 O7        12.3783    7.0683    5.2889 O.2       1 RES1    0.0000
      8 O8        10.9601    8.6598    5.6677 O.2       1 RES1    0.0000
      9 O9        10.3174   12.0898    0.6320 O.2       1 RES1    0.0000
     10 O10        8.8517   11.6390    2.1113 O.2       1 RES1    0.0000
     11 O11        7.5311    9.1250    2.4156 O.2       1 RES1    0.0000
     12 O12        8.5064    9.6634    4.2499 O.2       1 RES1    0.0000
     13 N1         7.3751    3.8776    3.3690 N.pl3     1 RES1    0.0000
     14 N2         9.9347    5.5998    7.1293 N.pl3     1 RES1    0.0000
     15 N3        11.2559    7.5324    5.3292 N.pl3     1 RES1    0.0000
     16 N4         9.8285   11.3463    1.4557 N.pl3     1 RES1    0.0000
     17 N5         8.5167    9.3168    3.1041 N.pl3     1 RES1    0.0000
     18 C1         8.7599    5.9383    3.0351 C.ar      1 RES1    0.0000
     19 C2         8.2864    4.9148    3.8733 C.ar      1 RES1    0.0000
     20 C3         8.6815    4.7960    5.1897 C.ar      1 RES1    0.0000
     21 H1         8.3233    4.1286    5.7288 H         1 RES1    0.0000
     22 C4         9.6127    5.6763    5.6968 C.ar      1 RES1    0.0000
     23 C5        10.1710    6.6420    4.8574 C.ar      1 RES1    0.0000
     24 C6         9.7714    6.7842    3.5425 C.ar      1 RES1    0.0000
     25 C7        10.3952    7.8247    2.6555 C.ar      1 RES1    0.0000
     26 C8        11.6025    7.5285    1.9811 C.ar      1 RES1    0.0000
     27 C9        12.1934    8.4900    1.1551 C.ar      1 RES1    0.0000
     28 H2        12.9831    8.2931    0.7050 H         1 RES1    0.0000
     29 C10       11.6097    9.7287    1.0065 C.ar      1 RES1    0.0000
     30 H3        12.0141   10.3670    0.4648 H         1 RES1    0.0000
     31 C11       10.4281   10.0307    1.6545 C.ar      1 RES1    0.0000
     32 C12        9.8264    9.0670    2.4664 C.ar      1 RES1    0.0000
     33 C13        6.9461    6.0741    1.4393 C.3       1 RES1    0.0000
     34 H4         6.7973    5.2429    0.9809 H         1 RES1    0.0000
     35 H5         6.6971    6.8039    0.8672 H         1 RES1    0.0000
     36 H6         6.4153    6.0973    2.2387 H         1 RES1    0.0000
     37 C14       13.2972    5.9068    1.5163 C.3       1 RES1    0.0000
     38 H7        13.1601    5.9666    0.5675 H         1 RES1    0.0000
     39 H8        13.5196    5.0036    1.7510 H         1 RES1    0.0000
     40 H9        14.0145    6.4906    1.7730 H         1 RES1    0.0000
@<TRIPOS>BOND
     1    1   18 1
     2    2   26 1
     3    3   13 2
     4    4   13 2
     5    5   14 2
     6    6   14 2
     7    7   15 2
     8    8   15 2
     9    9   16 2
    10   10   16 2
    11   11   17 2
    12   12   17 2
    13   13   19 1
    14   14   22 1
    15   15   23 1
    16   16   31 1
    17   17   32 1
    18   18   19 ar
    19   19   20 ar
    20   20   21 1
    21   22   20 ar
    22   23   22 ar
    23   24   18 ar
    24   25   24 1
    25   26   25 ar
    26   27   26 ar
    27   28   27 1
    28   29   27 ar
    29   30   29 1
    30   31   29 ar
    31   32   25 ar
    32   33    1 1
    33   34   33 1
    34   35   33 1
    35   36   33 1
    36   37    2 1
    37   38   37 1
    38   39   37 1
    39   40   37 1
    40   23   24 ar
    41   31   32 ar
@<TRIPOS>SUBSTRUCTURE
     1 RES1 1

@<TRIPOS>CRYSIN
  10.3765   10.4423   10.4429  82.5650  62.2850  60.5200   2 1

