# MOL2 file generated by ConQuest
# Please check atom types

@<TRIPOS>MOLECULE
ROCBAM
    41    45     1
SMALL
NO_CHARGES
****
Generated from CSD

@<TRIPOS>ATOM
      1 O1         6.1467    6.5189   16.8915 O.3       1 RES1    0.0000
      2 O2         7.3588    3.1435   12.7864 O.2       1 RES1    0.0000
      3 O3         6.7512    5.1699   12.0369 O.3       1 RES1    0.0000
      4 O4        13.1893    5.9060   16.5508 O.2       1 RES1    0.0000
      5 O5        11.9843    4.2562   17.3779 O.3       1 RES1    0.0000
      6 O6         9.5393    8.6427   14.1150 O.3       1 RES1    0.0000
      7 O7         6.3079    8.6971   12.9984 O.2       1 RES1    0.0000
      8 O8         7.9706    9.9144   16.0644 O.3       1 RES1    0.0000
      9 O9         7.5201   11.3737   14.4538 O.2       1 RES1    0.0000
     10 O10        4.7526    7.5601   15.4701 O.3       1 RES1    0.0000
     11 N1         6.9920    4.8663   14.2248 N.am      1 RES1    0.0000
     12 N2         7.2410    5.6282   17.0656 N.3       1 RES1    0.0000
     13 C1         6.1890    4.2791   15.3017 C.3       1 RES1    0.0000
     14 C2         6.8153    4.2877   16.6587 C.3       1 RES1    0.0000
     15 C3         8.4387    6.1251   16.4580 C.ar      1 RES1    0.0000
     16 C4         9.6251    5.5336   16.8347 C.ar      1 RES1    0.0000
     17 C5        10.8176    6.0062   16.3275 C.ar      1 RES1    0.0000
     18 C6        10.8342    7.0760   15.4531 C.ar      1 RES1    0.0000
     19 C7         9.6416    7.6317   15.0424 C.ar      1 RES1    0.0000
     20 C8         8.4170    7.1863   15.5553 C.ar      1 RES1    0.0000
     21 C9         7.0881    7.8092   15.0897 C.3       1 RES1    0.0000
     22 C10        5.9348    6.8397   15.5061 C.3       1 RES1    0.0000
     23 C11        5.7943    5.5537   14.7074 C.3       1 RES1    0.0000
     24 C12        7.0385    4.2734   12.9700 C.2       1 RES1    0.0000
     25 C13        6.8928    4.8777   10.6023 C.3       1 RES1    0.0000
     26 C14        5.8904    3.8824   10.2257 C.3       1 RES1    0.0000
     27 C15        6.5001    6.1580    9.9532 C.3       1 RES1    0.0000
     28 C16        8.2527    4.5254   10.3090 C.3       1 RES1    0.0000
     29 C17       12.1238    5.4062   16.7495 C.2       1 RES1    0.0000
     30 C18       13.2110    3.5974   17.7696 C.3       1 RES1    0.0000
     31 C19       10.7474    9.2585   13.6097 C.3       1 RES1    0.0000
     32 C20       11.4222    8.5052   12.5233 C.ar      1 RES1    0.0000
     33 C21       12.7687    8.1501   12.6217 C.ar      1 RES1    0.0000
     34 C22       13.4280    7.5429   11.5600 C.ar      1 RES1    0.0000
     35 C23       12.7418    7.2579   10.4358 C.ar      1 RES1    0.0000
     36 C24       11.4304    7.5658   10.2806 C.ar      1 RES1    0.0000
     37 C25       10.7701    8.1959   11.3480 C.ar      1 RES1    0.0000
     38 C26        7.0375    7.9553   13.5908 C.2       1 RES1    0.0000
     39 C27        6.7822    9.1411   15.8013 C.3       1 RES1    0.0000
     40 C28        8.1773   11.0286   15.3925 C.2       1 RES1    0.0000
     41 C29        9.4401   11.7174   15.7616 C.3       1 RES1    0.0000
@<TRIPOS>BOND
     1    1   12 1
     2    2   24 2
     3    3   24 1
     4    4   29 2
     5    5   29 1
     6    6   19 1
     7    7   38 2
     8    8   39 1
     9    9   40 2
    10   10   22 1
    11   11   13 1
    12   12   14 1
    13   13   14 1
    14   15   12 1
    15   16   15 ar
    16   17   16 ar
    17   18   17 ar
    18   19   18 ar
    19   20   15 ar
    20   21   20 1
    21   22    1 1
    22   23   11 1
    23   24   11 1
    24   25    3 1
    25   26   25 1
    26   27   25 1
    27   28   25 1
    28   29   17 1
    29   30    5 1
    30   31    6 1
    31   32   31 1
    32   33   32 ar
    33   34   33 ar
    34   35   34 ar
    35   36   35 ar
    36   37   32 ar
    37   38   21 1
    38   39   21 1
    39   40    8 1
    40   41   40 1
    41   13   23 1
    42   19   20 ar
    43   21   22 1
    44   22   23 1
    45   36   37 ar
@<TRIPOS>SUBSTRUCTURE
     1 RES1 1

@<TRIPOS>CRYSIN
  10.3340   14.3210   18.9260  90.0000  90.0000  90.0000  19 1

