# MOL2 file generated by ConQuest
# Please check atom types

@<TRIPOS>MOLECULE
ROCMIG
    44    46     1
SMALL
NO_CHARGES
****
Generated from CSD

@<TRIPOS>ATOM
      1 O1        -9.2054   -2.0870  -36.7010 O.3       1 RES1    0.0000
      2 O2        -8.7013   -0.0239  -37.4748 O.3       1 RES1    0.0000
      3 O3        -5.3808    0.0681  -34.9317 O.3       1 RES1    0.0000
      4 N1        -7.4283    3.2423  -36.5447 N.3       1 RES1    0.0000
      5 N2        -6.7017    0.5013  -34.4608 N.3       1 RES1    0.0000
      6 C1        -6.0054    1.2114  -32.2149 C.ar      1 RES1    0.0000
      7 C2        -6.8507    2.0061  -36.4944 C.2       1 RES1    0.0000
      8 C3        -9.3700   -1.2233  -37.8191 C.3       1 RES1    0.0000
      9 C4        -6.7569    0.3238  -31.4797 C.ar      1 RES1    0.0000
     10 C5        -5.7524    2.0631  -37.2978 C.2       1 RES1    0.0000
     11 C6        -6.4027   -0.0589  -30.2244 C.ar      1 RES1    0.0000
     12 C7        -5.6853    3.3435  -37.8743 C.2       1 RES1    0.0000
     13 C8        -7.7226   -0.3422  -36.4923 C.3       1 RES1    0.0000
     14 C9        -5.2438    0.4167  -29.6694 C.ar      1 RES1    0.0000
     15 C10       -8.3886   -1.4634  -35.7291 C.3       1 RES1    0.0000
     16 C11       -6.7311    4.0480  -37.3855 C.2       1 RES1    0.0000
     17 C12       -4.4601    1.2813  -30.3872 C.ar      1 RES1    0.0000
     18 C13      -10.8150   -0.9088  -37.9993 C.3       1 RES1    0.0000
     19 C14       -4.8280    1.6704  -31.6620 C.ar      1 RES1    0.0000
     20 C15       -8.7409   -1.8580  -39.0126 C.3       1 RES1    0.0000
     21 C16       -7.4467    0.9042  -35.6694 C.3       1 RES1    0.0000
     22 C17       -6.4579    1.6428  -33.5729 C.3       1 RES1    0.0000
     23 H1        -5.2631   -0.9244  -34.5733 H         1 RES1    0.0000
     24 H2        -8.2046    3.4998  -36.0632 H         1 RES1    0.0000
     25 H3        -6.9252   -0.6503  -36.9076 H         1 RES1    0.0000
     26 H4        -7.7429   -2.0705  -35.3852 H         1 RES1    0.0000
     27 H5        -8.9119   -1.1222  -35.0158 H         1 RES1    0.0000
     28 H6       -11.1719   -0.5786  -37.1837 H         1 RES1    0.0000
     29 H7       -10.9143   -0.2511  -38.6777 H         1 RES1    0.0000
     30 H8       -11.2813   -1.6970  -38.2514 H         1 RES1    0.0000
     31 H9        -9.1575   -2.6950  -39.1811 H         1 RES1    0.0000
     32 H10       -7.8146   -1.9923  -38.8482 H         1 RES1    0.0000
     33 H11       -8.8503   -1.2914  -39.7657 H         1 RES1    0.0000
     34 H12       -8.2911    1.2206  -35.3690 H         1 RES1    0.0000
     35 H13       -7.2627    2.1395  -33.4852 H         1 RES1    0.0000
     36 H14       -5.7874    2.1937  -33.9602 H         1 RES1    0.0000
     37 H15       -5.1352    1.3558  -37.4435 H         1 RES1    0.0000
     38 H16       -5.0313    3.6544  -38.4869 H         1 RES1    0.0000
     39 H17       -6.9417    4.9504  -37.5937 H         1 RES1    0.0000
     40 H18       -7.5506   -0.0331  -31.8613 H         1 RES1    0.0000
     41 H19       -6.9574   -0.6540  -29.7340 H         1 RES1    0.0000
     42 H20       -4.9862    0.1481  -28.7962 H         1 RES1    0.0000
     43 H21       -3.6571    1.6170  -30.0060 H         1 RES1    0.0000
     44 H22       -4.2688    2.2553  -32.1577 H         1 RES1    0.0000
@<TRIPOS>BOND
     1    1    8 1
     2    2    8 1
     3    3    5 1
     4    4    7 1
     5    5   21 1
     6    6    9 ar
     7    7   10 2
     8    8   18 1
     9    9   11 ar
    10   10   12 1
    11   11   14 ar
    12   12   16 2
    13   13    2 1
    14   14   17 ar
    15   15    1 1
    16   16    4 1
    17   17   19 ar
    18   18   28 1
    19   19    6 ar
    20   20    8 1
    21   21    7 1
    22   22    5 1
    23   23    3 1
    24   24    4 1
    25   25   13 1
    26   26   15 1
    27   27   15 1
    28   29   18 1
    29   30   18 1
    30   31   20 1
    31   32   20 1
    32   33   20 1
    33   34   21 1
    34   35   22 1
    35   36   22 1
    36   37   10 1
    37   38   12 1
    38   39   16 1
    39   40    9 1
    40   41   11 1
    41   42   14 1
    42   43   17 1
    43   44   19 1
    44    6   22 1
    45   13   15 1
    46   13   21 1
@<TRIPOS>SUBSTRUCTURE
     1 RES1 1

@<TRIPOS>CRYSIN
   9.1980    9.1980   40.5980  90.0000  90.0000  90.0000  96 1

