# MOL2 file generated by ConQuest
# Please check atom types

@<TRIPOS>MOLECULE
RODJAW
    49    49     1
SMALL
NO_CHARGES
****
Generated from CSD

@<TRIPOS>ATOM
      1 N1         8.8619    1.2062    5.6055 N.3       1 RES1    0.0000
      2 C1         8.8806   -0.1187    5.4050 C.2       1 RES1    0.0000
      3 H1         8.9660   -0.6067    6.2443 H         1 RES1    0.0000
      4 C2         8.7116   -0.8711    4.2793 C.2       1 RES1    0.0000
      5 C3         8.6801   -0.3233    2.8882 C.2       1 RES1    0.0000
      6 C4         7.4867   -0.5734    1.9338 C.3       1 RES1    0.0000
      7 C5         6.8858    0.8016    1.5970 C.3       1 RES1    0.0000
      8 H2         7.5891    1.4504    1.2864 H         1 RES1    0.0000
      9 H3         6.5080    1.2068    2.4685 H         1 RES1    0.0000
     10 H4         6.1803    0.6754    0.9271 H         1 RES1    0.0000
     11 N2         8.6026   -4.4996    4.9455 N.3       1 RES1    0.0000
     12 C6         9.0664   -4.4258    3.5540 C.3       1 RES1    0.0000
     13 N3         9.1052   -2.9945    3.3050 N.2       1 RES1    0.0000
     14 C7         8.7918   -2.3229    4.3586 C.2       1 RES1    0.0000
     15 C8         8.4802   -3.1753    5.5831 C.3       1 RES1    0.0000
     16 C9         9.1265    1.7084    6.9628 C.3       1 RES1    0.0000
     17 H5         9.8487    2.3030    6.9767 H         1 RES1    0.0000
     18 H6         9.1787    1.0076    7.6142 H         1 RES1    0.0000
     19 H7         8.3888    2.2365    7.1506 H         1 RES1    0.0000
     20 C10        8.4823    2.1690    4.6067 C.3       1 RES1    0.0000
     21 H8         7.5871    1.8712    4.1606 H         1 RES1    0.0000
     22 H9         9.2013    2.2587    3.9172 H         1 RES1    0.0000
     23 H10        8.3374    2.9894    5.0877 H         1 RES1    0.0000
     24 O1         9.5994    0.3731    2.4912 O.2       1 RES1    0.0000
     25 C11        6.3788   -1.4283    2.5253 C.3       1 RES1    0.0000
     26 H11        6.0466   -1.0851    3.4536 H         1 RES1    0.0000
     27 H12        5.6198   -1.4283    1.9470 H         1 RES1    0.0000
     28 H13        6.6468   -2.3805    2.6308 H         1 RES1    0.0000
     29 C12        8.0352   -1.2024    0.6502 C.3       1 RES1    0.0000
     30 H14        7.2917   -1.3619    0.0579 H         1 RES1    0.0000
     31 H15        8.4771   -2.1148    0.8576 H         1 RES1    0.0000
     32 H16        8.7323   -0.5647    0.2318 H         1 RES1    0.0000
     33 O2         8.4125   -5.5884    5.5662 O.2       1 RES1    0.0000
     34 C13       10.4451   -5.0400    3.4107 C.3       1 RES1    0.0000
     35 H17       10.8096   -4.9492    2.4222 H         1 RES1    0.0000
     36 H18       10.3558   -5.9567    3.5510 H         1 RES1    0.0000
     37 H19       11.0655   -4.5838    4.0099 H         1 RES1    0.0000
     38 C14        8.0799   -5.1230    2.6331 C.3       1 RES1    0.0000
     39 H20        8.0730   -6.0785    2.8741 H         1 RES1    0.0000
     40 H21        7.1704   -4.7167    2.7467 H         1 RES1    0.0000
     41 H22        8.4373   -4.9824    1.6804 H         1 RES1    0.0000
     42 C15        7.0683   -2.9917    6.0960 C.3       1 RES1    0.0000
     43 H23        6.9744   -2.0926    6.4784 H         1 RES1    0.0000
     44 H24        6.8676   -3.6980    6.7681 H         1 RES1    0.0000
     45 H25        6.4152   -3.0227    5.3658 H         1 RES1    0.0000
     46 C16        9.4882   -3.1057    6.7299 C.3       1 RES1    0.0000
     47 H26        9.3709   -3.8088    7.2897 H         1 RES1    0.0000
     48 H27        9.3052   -2.3030    7.2665 H         1 RES1    0.0000
     49 H28       10.3918   -3.0337    6.4089 H         1 RES1    0.0000
@<TRIPOS>BOND
     1    1    2 1
     2    2    3 1
     3    4    2 2
     4    5    4 1
     5    6    5 1
     6    7    6 1
     7    8    7 1
     8    9    7 1
     9   10    7 1
    10   11   12 1
    11   12   13 1
    12   13   14 2
    13   14    4 1
    14   15   11 1
    15   16    1 1
    16   17   16 1
    17   18   16 1
    18   19   16 1
    19   20    1 1
    20   21   20 1
    21   22   20 1
    22   23   20 1
    23   24    5 2
    24   25    6 1
    25   26   25 1
    26   27   25 1
    27   28   25 1
    28   29    6 1
    29   30   29 1
    30   31   29 1
    31   32   29 1
    32   33   11 1
    33   34   12 1
    34   35   34 1
    35   36   34 1
    36   37   34 1
    37   38   12 1
    38   39   38 1
    39   40   38 1
    40   41   38 1
    41   42   15 1
    42   43   42 1
    43   44   42 1
    44   45   42 1
    45   46   15 1
    46   47   46 1
    47   48   46 1
    48   49   46 1
    49   14   15 1
@<TRIPOS>SUBSTRUCTURE
     1 RES1 1

@<TRIPOS>CRYSIN
  27.4660   11.0720   12.8670  90.0000 115.7500  90.0000  15 1

