# MOL2 file generated by ConQuest
# Please check atom types

@<TRIPOS>MOLECULE
RODLUS
    17    17     1
SMALL
NO_CHARGES
****
Generated from CSD

@<TRIPOS>ATOM
      1 O1        -0.0383    2.7842    5.5393 O.2       1 RES1    0.0000
      2 O2         1.4328    1.4639    6.4631 O.2       1 RES1    0.0000
      3 O3         4.8030    0.0372    2.3942 O.2       1 RES1    0.0000
      4 O4         3.8651    0.8165    0.5864 O.2       1 RES1    0.0000
      5 N1         1.8597    1.9696    2.1343 N.pl3     1 RES1    0.0000
      6 N2         1.0601    2.3718    3.1294 N.2       1 RES1    0.0000
      7 N3         0.9469    2.0561    5.5059 N.pl3     1 RES1    0.0000
      8 N4         3.9255    0.6498    1.7954 N.pl3     1 RES1    0.0000
      9 N5         4.1871   -0.1878    5.6761 N.1       1 RES1    0.0000
     10 C1         1.5295    2.3905    0.7619 C.3       1 RES1    0.0000
     11 H1         0.7817    3.0233    0.7858 H         1 RES1    0.0000
     12 H2         1.2769    1.6061    0.2321 H         1 RES1    0.0000
     13 H3         2.3101    2.8220    0.3560 H         1 RES1    0.0000
     14 C2         3.5528    0.3793    4.9102 C.1       1 RES1    0.0000
     15 C3         1.5875    1.8473    4.2251 C.2       1 RES1    0.0000
     16 C4         2.7437    1.0960    3.9859 C.2       1 RES1    0.0000
     17 C5         2.8767    1.2171    2.6111 C.2       1 RES1    0.0000
@<TRIPOS>BOND
     1    1    7 2
     2    2    7 2
     3    3    8 2
     4    4    8 2
     5    5    6 1
     6    6   15 2
     7    7   15 1
     8    8   17 1
     9    9   14 3
    10   10    5 1
    11   11   10 1
    12   12   10 1
    13   13   10 1
    14   14   16 1
    15   15   16 1
    16   16   17 2
    17   17    5 1
@<TRIPOS>SUBSTRUCTURE
     1 RES1 1

@<TRIPOS>CRYSIN
   5.4800    8.8687   15.7014  90.0000  92.6940  90.0000 231 1

