# MOL2 file generated by ConQuest
# Please check atom types

@<TRIPOS>MOLECULE
ROFHAV
    28    30     1
SMALL
NO_CHARGES
****
Generated from CSD

@<TRIPOS>ATOM
      1 O1         8.5275   -0.3538    9.6566 O.2       1 RES1    0.0000
      2 O2         6.5921    0.5256    7.0720 O.3       1 RES1    0.0000
      3 O3         6.4391    2.0416    8.7393 O.3       1 RES1    0.0000
      4 O4         8.5984   -4.4251    7.3745 O.2       1 RES1    0.0000
      5 O5         7.6920   -5.1438    5.5599 O.2       1 RES1    0.0000
      6 O6         5.0045   -5.7309    5.2247 O.2       1 RES1    0.0000
      7 O7         3.8623   -4.0790    4.4419 O.2       1 RES1    0.0000
      8 N1         5.4271   -2.0357    7.6093 N.pl3     1 RES1    0.0000
      9 N2         6.6312   -2.6424    7.6635 N.2       1 RES1    0.0000
     10 N3         7.6848   -4.4644    6.5736 N.pl3     1 RES1    0.0000
     11 N4         4.6750   -4.5567    5.2107 N.pl3     1 RES1    0.0000
     12 C1         5.1686   -0.8341    8.4343 C.3       1 RES1    0.0000
     13 C2         6.1630   -0.7512    9.5864 C.3       1 RES1    0.0000
     14 C3         7.4491   -0.0726    9.1970 C.2       1 RES1    0.0000
     15 C4         7.2680    1.0375    8.1914 C.3       1 RES1    0.0000
     16 C5         5.2513    0.4128    7.5651 C.3       1 RES1    0.0000
     17 C6         5.0859    1.6972    8.3740 C.3       1 RES1    0.0000
     18 C7         6.5179   -3.6449    6.8024 C.2       1 RES1    0.0000
     19 C8         5.2617   -3.6551    6.1842 C.2       1 RES1    0.0000
     20 C9         4.5955   -2.5971    6.7261 C.2       1 RES1    0.0000
     21 H1         4.2790   -0.8905    8.7935 H         1 RES1    0.0000
     22 H2         5.7638   -0.2538   10.3030 H         1 RES1    0.0000
     23 H3         6.3583   -1.6331    9.9095 H         1 RES1    0.0000
     24 H4         8.1205    1.3939    7.9284 H         1 RES1    0.0000
     25 H5         4.6261    0.3726    6.8365 H         1 RES1    0.0000
     26 H6         4.5532    1.5332    9.1568 H         1 RES1    0.0000
     27 H7         4.6776    2.3912    7.8522 H         1 RES1    0.0000
     28 H8         3.7073   -2.3031    6.5134 H         1 RES1    0.0000
@<TRIPOS>BOND
     1    1   14 2
     2    2   15 1
     3    3   15 1
     4    4   10 2
     5    5   10 2
     6    6   11 2
     7    7   11 2
     8    8    9 1
     9    9   18 2
    10   10   18 1
    11   11   19 1
    12   12    8 1
    13   13   12 1
    14   14   13 1
    15   15   14 1
    16   16    2 1
    17   17    3 1
    18   18   19 1
    19   19   20 2
    20   20    8 1
    21   21   12 1
    22   22   13 1
    23   23   13 1
    24   24   15 1
    25   25   16 1
    26   26   17 1
    27   27   17 1
    28   28   20 1
    29   12   16 1
    30   16   17 1
@<TRIPOS>SUBSTRUCTURE
     1 RES1 1

@<TRIPOS>CRYSIN
   6.5120    8.5460   20.0720  90.0000  90.0000  90.0000  19 1

