# MOL2 file generated by ConQuest
# Please check atom types

@<TRIPOS>MOLECULE
ROFNIK
    22    23     1
SMALL
NO_CHARGES
****
Generated from CSD

@<TRIPOS>ATOM
      1 O1        -0.7781   14.6817    4.0922 O.2       1 RES1    0.0000
      2 O2        -1.7714   13.0236    5.0271 O.2       1 RES1    0.0000
      3 N1         1.9107    8.2007    4.0219 N.pl3     1 RES1    0.0000
      4 H1         2.7298    8.4182    3.8746 H         1 RES1    0.0000
      5 N2        -0.2225    8.2642    4.1228 N.2       1 RES1    0.0000
      6 N3         0.1982    7.0738    4.6180 N.2       1 RES1    0.0000
      7 C1         0.8522    8.9526    3.7624 C.2       1 RES1    0.0000
      8 N4         1.4908    7.0374    4.5534 N.2       1 RES1    0.0000
      9 C2         0.8158   10.3486    3.2831 C.ar      1 RES1    0.0000
     10 C3         1.5752   10.7692    2.1895 C.ar      1 RES1    0.0000
     11 C4        -0.0173   11.2485    3.9607 C.ar      1 RES1    0.0000
     12 H2        -0.5399   10.9640    4.6747 H         1 RES1    0.0000
     13 C5        -0.0473   12.5392    3.5584 C.ar      1 RES1    0.0000
     14 C6         1.5214   12.1141    1.8404 C.ar      1 RES1    0.0000
     15 H3         2.0402   12.4206    1.1321 H         1 RES1    0.0000
     16 N5        -0.9231   13.4843    4.2781 N.pl3     1 RES1    0.0000
     17 C7         0.7230   13.0016    2.5158 C.ar      1 RES1    0.0000
     18 H4         0.7020   13.8993    2.2733 H         1 RES1    0.0000
     19 C8         2.4072    9.8139    1.3769 C.3       1 RES1    0.0000
     20 H5         1.8717    9.0567    1.1242 H         1 RES1    0.0000
     21 H6         3.1547    9.5158    1.9005 H         1 RES1    0.0000
     22 H7         2.7254   10.2577    0.5882 H         1 RES1    0.0000
@<TRIPOS>BOND
     1    1   16 2
     2    2   16 2
     3    3    4 1
     4    5    6 1
     5    6    8 2
     6    7    3 1
     7    8    3 1
     8    9    7 1
     9   10    9 ar
    10   11    9 ar
    11   12   11 1
    12   13   11 ar
    13   14   10 ar
    14   15   14 1
    15   16   13 1
    16   17   13 ar
    17   18   17 1
    18   19   10 1
    19   20   19 1
    20   21   19 1
    21   22   19 1
    22    5    7 2
    23   14   17 ar
@<TRIPOS>SUBSTRUCTURE
     1 RES1 1

@<TRIPOS>CRYSIN
   4.9057   16.9380   11.4630  90.0000  98.6500  90.0000  14 1

