# MOL2 file generated by ConQuest
# Please check atom types

@<TRIPOS>MOLECULE
ROFWEP
    42    44     1
SMALL
NO_CHARGES
****
Generated from CSD

@<TRIPOS>ATOM
      1 N1        -0.1236    1.8361   13.0119 N.2       1 RES1    0.0000
      2 N2        -1.5352    3.4109   10.1491 N.3       1 RES1    0.0000
      3 N3        -1.8736    2.0779    9.8508 N.am      1 RES1    0.0000
      4 O1        -1.3658   -0.0148   10.7585 O.2       1 RES1    0.0000
      5 O2         2.9644   -0.0640   18.1858 O.3       1 RES1    0.0000
      6 H1         3.0607   -0.8549   18.3796 H         1 RES1    0.0000
      7 O3         2.6179   -2.5966   17.8173 O.2       1 RES1    0.0000
      8 O4         1.5818   -3.3103   16.0905 O.2       1 RES1    0.0000
      9 N4         1.9880   -2.3891   16.7618 N.pl3     1 RES1    0.0000
     10 C1         0.7492    0.4142   14.7025 C.ar      1 RES1    0.0000
     11 C2         0.0189    0.6404   13.4487 C.2       1 RES1    0.0000
     12 H2        -0.3372   -0.0772   12.9757 H         1 RES1    0.0000
     13 C3        -0.7865    2.1193   11.8186 C.2       1 RES1    0.0000
     14 C4        -0.9545    3.4055   11.3813 C.2       1 RES1    0.0000
     15 C5         1.7295   -1.0429   16.3392 C.ar      1 RES1    0.0000
     16 C6         0.9873   -0.8533   15.1695 C.ar      1 RES1    0.0000
     17 H3         0.6544   -1.5889   14.7059 H         1 RES1    0.0000
     18 C7         2.2339    0.0359   17.0636 C.ar      1 RES1    0.0000
     19 C8        -2.1156    1.6988    8.4939 C.ar      1 RES1    0.0000
     20 C9         1.2662    1.4999   15.4280 C.ar      1 RES1    0.0000
     21 H4         1.1184    2.3650   15.1205 H         1 RES1    0.0000
     22 C10        1.9822    1.3120   16.5799 C.ar      1 RES1    0.0000
     23 H5         2.3039    2.0506   17.0437 H         1 RES1    0.0000
     24 C11       -3.2014    0.2636    6.9231 C.ar      1 RES1    0.0000
     25 H6        -3.7517   -0.4657    6.7484 H         1 RES1    0.0000
     26 C12       -2.4487    4.4639    9.7037 C.3       1 RES1    0.0000
     27 H7        -3.3133    4.3259   10.0967 H         1 RES1    0.0000
     28 H8        -2.5247    4.4382    8.7464 H         1 RES1    0.0000
     29 H9        -2.1073    5.3196    9.9757 H         1 RES1    0.0000
     30 C13       -2.9531    0.6466    8.2426 C.ar      1 RES1    0.0000
     31 H10       -3.3551    0.1895    8.9451 H         1 RES1    0.0000
     32 C14       -1.3370    1.2168   10.8334 C.2       1 RES1    0.0000
     33 C15       -1.5221    2.3837    7.4445 C.ar      1 RES1    0.0000
     34 H11       -0.9375    3.0872    7.6121 H         1 RES1    0.0000
     35 C16       -0.5939    4.6675   12.0858 C.3       1 RES1    0.0000
     36 H12       -0.2430    5.2978   11.4527 H         1 RES1    0.0000
     37 H13        0.0692    4.4827   12.7540 H         1 RES1    0.0000
     38 H14       -1.3759    5.0357   12.5035 H         1 RES1    0.0000
     39 C17       -2.6380    0.9539    5.8838 C.ar      1 RES1    0.0000
     40 H15       -2.8200    0.7075    5.0066 H         1 RES1    0.0000
     41 C18       -1.8078    2.0085    6.1418 C.ar      1 RES1    0.0000
     42 H16       -1.4303    2.4796    5.4356 H         1 RES1    0.0000
@<TRIPOS>BOND
     1    1   11 2
     2    2    3 1
     3    3   19 1
     4    4   32 2
     5    5    6 1
     6    7    9 2
     7    8    9 2
     8    9   15 1
     9   10   11 1
    10   11   12 1
    11   13    1 1
    12   14    2 1
    13   15   16 ar
    14   16   10 ar
    15   17   16 1
    16   18    5 1
    17   19   30 ar
    18   20   10 ar
    19   21   20 1
    20   22   18 ar
    21   23   22 1
    22   24   25 1
    23   26    2 1
    24   27   26 1
    25   28   26 1
    26   29   26 1
    27   30   24 ar
    28   31   30 1
    29   32    3 1
    30   33   19 ar
    31   34   33 1
    32   35   14 1
    33   36   35 1
    34   37   35 1
    35   38   35 1
    36   39   24 ar
    37   40   39 1
    38   41   33 ar
    39   42   41 1
    40   13   14 2
    41   13   32 1
    42   15   18 ar
    43   20   22 ar
    44   39   41 ar
@<TRIPOS>SUBSTRUCTURE
     1 RES1 1

@<TRIPOS>CRYSIN
   7.5000    7.8000   28.9000  90.0000  95.0000  90.0000  14 1

