# MOL2 file generated by ConQuest
# Please check atom types

@<TRIPOS>MOLECULE
ROFXAM
    77    82     1
SMALL
NO_CHARGES
****
Generated from CSD

@<TRIPOS>ATOM
      1 O1        -0.6546   11.1446    1.7452 O.2       1 RES1    0.0000
      2 O2        -2.3181    9.7105    2.1356 O.3       1 RES1    0.0000
      3 O3         1.4827    9.1654   -0.1567 O.2       1 RES1    0.0000
      4 O4         2.8622    7.5352   -0.2398 O.2       1 RES1    0.0000
      5 O5         5.9238    7.8051    4.7334 O.2       1 RES1    0.0000
      6 O6         3.2956   13.6516    6.8578 O.3       1 RES1    0.0000
      7 N1         1.1896    9.4942    2.9157 N.3       1 RES1    0.0000
      8 H1         1.3484   10.1280    2.2994 H         1 RES1    0.0000
      9 C1        -0.1862    9.0152    2.7686 C.3       1 RES1    0.0000
     10 C2        -0.1134    7.8307    1.6899 C.3       1 RES1    0.0000
     11 H2        -0.4081    8.2109    0.8365 H         1 RES1    0.0000
     12 C3         1.3832    7.5572    1.5509 C.3       1 RES1    0.0000
     13 H3         1.5686    6.5967    1.6151 H         1 RES1    0.0000
     14 C4         2.0197    8.3208    2.7390 C.3       1 RES1    0.0000
     15 H4         1.8889    7.7628    3.5332 H         1 RES1    0.0000
     16 C5        -1.0481   10.1060    2.1715 C.2       1 RES1    0.0000
     17 C6        -3.2863   10.6498    1.6429 C.3       1 RES1    0.0000
     18 H5        -3.5927   11.2017    2.3661 H         1 RES1    0.0000
     19 H6        -4.0299   10.1744    1.2657 H         1 RES1    0.0000
     20 H7        -2.8823   11.2007    0.9685 H         1 RES1    0.0000
     21 C7        -0.7483    8.6141    4.1516 C.3       1 RES1    0.0000
     22 H8        -1.6041    8.1731    4.0334 H         1 RES1    0.0000
     23 H9        -0.1432    7.9825    4.5713 H         1 RES1    0.0000
     24 C8        -0.9262    9.8083    5.0570 C.ar      1 RES1    0.0000
     25 C9         0.1361   10.3601    5.7502 C.ar      1 RES1    0.0000
     26 H10        0.9791    9.9736    5.6877 H         1 RES1    0.0000
     27 C10       -0.0492   11.4867    6.5361 C.ar      1 RES1    0.0000
     28 H11        0.6714   11.8499    6.9983 H         1 RES1    0.0000
     29 C11       -1.2853   12.0707    6.6383 C.ar      1 RES1    0.0000
     30 H12       -1.3996   12.8342    7.1563 H         1 RES1    0.0000
     31 C12       -2.3479   11.5268    5.9769 C.ar      1 RES1    0.0000
     32 H13       -3.1912   11.9133    6.0501 H         1 RES1    0.0000
     33 C13       -2.1673   10.4001    5.1994 C.ar      1 RES1    0.0000
     34 H14       -2.8985   10.0299    4.7598 H         1 RES1    0.0000
     35 C14       -0.9335    6.5855    1.9120 C.ar      1 RES1    0.0000
     36 C15       -2.1028    6.4169    1.1858 C.ar      1 RES1    0.0000
     37 H15       -2.3879    7.0888    0.6104 H         1 RES1    0.0000
     38 C16       -2.8458    5.2639    1.3092 C.ar      1 RES1    0.0000
     39 H16       -3.6229    5.1578    0.8090 H         1 RES1    0.0000
     40 C17       -2.4443    4.2737    2.1660 C.ar      1 RES1    0.0000
     41 H17       -2.9566    3.5035    2.2603 H         1 RES1    0.0000
     42 C18       -1.2832    4.4190    2.8869 C.ar      1 RES1    0.0000
     43 H18       -1.0036    3.7418    3.4593 H         1 RES1    0.0000
     44 C19       -0.5239    5.5815    2.7606 C.ar      1 RES1    0.0000
     45 H19        0.2607    5.6790    3.2505 H         1 RES1    0.0000
     46 N2         1.9361    8.1222    0.2713 N.pl3     1 RES1    0.0000
     47 C20        3.5063    8.5753    2.6277 C.3       1 RES1    0.0000
     48 H20        3.7261    9.1231    1.8456 H         1 RES1    0.0000
     49 C21        4.4471    7.3160    2.7474 C.3       1 RES1    0.0000
     50 H21        5.0832    7.2581    2.0037 H         1 RES1    0.0000
     51 C22        5.0378    8.0400    3.9541 C.2       1 RES1    0.0000
     52 N3         4.1609    9.0764    3.8535 N.am      1 RES1    0.0000
     53 C23        3.8200    5.9855    3.0612 C.ar      1 RES1    0.0000
     54 C24        3.3603    5.6996    4.3341 C.ar      1 RES1    0.0000
     55 H22        3.4841    6.3190    5.0164 H         1 RES1    0.0000
     56 C25        2.7194    4.5045    4.6046 C.ar      1 RES1    0.0000
     57 H23        2.4106    4.3307    5.4644 H         1 RES1    0.0000
     58 C26        2.5357    3.5724    3.6146 C.ar      1 RES1    0.0000
     59 H24        2.0935    2.7745    3.7971 H         1 RES1    0.0000
     60 C27        3.0103    3.8277    2.3544 C.ar      1 RES1    0.0000
     61 H25        2.8993    3.1967    1.6803 H         1 RES1    0.0000
     62 C28        3.6537    5.0199    2.0833 C.ar      1 RES1    0.0000
     63 H26        3.9816    5.1764    1.2266 H         1 RES1    0.0000
     64 C29        3.9811   10.2520    4.6245 C.ar      1 RES1    0.0000
     65 C30        4.1655   10.1965    5.9918 C.ar      1 RES1    0.0000
     66 H27        4.4223    9.3964    6.3908 H         1 RES1    0.0000
     67 C31        3.9715   11.3226    6.7731 C.ar      1 RES1    0.0000
     68 H28        4.1077   11.2837    7.6928 H         1 RES1    0.0000
     69 C32        3.5742   12.5009    6.1805 C.ar      1 RES1    0.0000
     70 C33        3.4164   12.5607    4.8038 C.ar      1 RES1    0.0000
     71 H29        3.1714   13.3623    4.4017 H         1 RES1    0.0000
     72 C34        3.6188   11.4437    4.0330 C.ar      1 RES1    0.0000
     73 H30        3.5120   11.4903    3.1099 H         1 RES1    0.0000
     74 C35        3.4045   13.6279    8.2740 C.3       1 RES1    0.0000
     75 H31        2.7796   12.9923    8.6323 H         1 RES1    0.0000
     76 H32        3.2107   14.4996    8.6250 H         1 RES1    0.0000
     77 H33        4.2959   13.3735    8.5221 H         1 RES1    0.0000
@<TRIPOS>BOND
     1    1   16 2
     2    2   16 1
     3    3   46 2
     4    4   46 2
     5    5   51 2
     6    6   69 1
     7    7    8 1
     8    9    7 1
     9   10    9 1
    10   11   10 1
    11   12   10 1
    12   13   12 1
    13   14    7 1
    14   15   14 1
    15   16    9 1
    16   17    2 1
    17   18   17 1
    18   19   17 1
    19   20   17 1
    20   21    9 1
    21   22   21 1
    22   23   21 1
    23   24   21 1
    24   25   24 ar
    25   26   25 1
    26   27   25 ar
    27   28   27 1
    28   29   27 ar
    29   30   29 1
    30   31   29 ar
    31   32   31 1
    32   33   24 ar
    33   34   33 1
    34   35   10 1
    35   36   35 ar
    36   37   36 1
    37   38   36 ar
    38   39   38 1
    39   40   38 ar
    40   41   40 1
    41   42   40 ar
    42   43   42 1
    43   44   35 ar
    44   45   44 1
    45   46   12 1
    46   47   14 1
    47   48   47 1
    48   49   47 1
    49   50   49 1
    50   51   49 1
    51   52   47 1
    52   53   49 1
    53   54   53 ar
    54   55   54 1
    55   56   54 ar
    56   57   56 1
    57   58   56 ar
    58   59   58 1
    59   60   58 ar
    60   61   60 1
    61   62   53 ar
    62   63   62 1
    63   64   52 1
    64   65   64 ar
    65   66   65 1
    66   67   65 ar
    67   68   67 1
    68   69   67 ar
    69   70   69 ar
    70   71   70 1
    71   72   64 ar
    72   73   72 1
    73   74    6 1
    74   75   74 1
    75   76   74 1
    76   77   74 1
    77   12   14 1
    78   31   33 ar
    79   42   44 ar
    80   51   52 1
    81   60   62 ar
    82   70   72 ar
@<TRIPOS>SUBSTRUCTURE
     1 RES1 1

@<TRIPOS>CRYSIN
  10.1727   10.4210   15.1680  91.8330 106.1540 102.5360   2 1

