# MOL2 file generated by ConQuest
# Please check atom types

@<TRIPOS>MOLECULE
ROGDEX
    31    32     1
SMALL
NO_CHARGES
****
Generated from CSD

@<TRIPOS>ATOM
      1 O1         2.3374    0.7504    1.1806 O.3       1 RES1    0.0000
      2 C1         3.2908   -2.5248    3.5403 C.ar      1 RES1    0.0000
      3 N1         3.6829   -3.6955    4.2615 N.2       1 RES1    0.0000
      4 C2         2.6255   -0.2854    2.0248 C.ar      1 RES1    0.0000
      5 C3         4.3779   -4.7030    6.3356 C.ar      1 RES1    0.0000
      6 C4         3.5945   -2.4793    2.1874 C.ar      1 RES1    0.0000
      7 H1         4.0154   -3.2015    1.7797 H         1 RES1    0.0000
      8 C5         3.2696   -1.3565    1.4472 C.ar      1 RES1    0.0000
      9 H2         3.4901   -1.3243    0.5460 H         1 RES1    0.0000
     10 C6         4.8920   -4.6019    7.6311 C.ar      1 RES1    0.0000
     11 C7         2.6299   -1.4592    4.1143 C.ar      1 RES1    0.0000
     12 H3         2.4138   -1.4890    5.0195 H         1 RES1    0.0000
     13 O2         5.8019   -2.4542    7.5494 O.2       1 RES1    0.0000
     14 C8         2.2786   -0.3317    3.3579 C.ar      1 RES1    0.0000
     15 H4         1.8177    0.3740    3.7494 H         1 RES1    0.0000
     16 N2         5.1921   -3.2720    8.2144 N.pl3     1 RES1    0.0000
     17 C9         4.4295   -7.0875    6.6822 C.ar      1 RES1    0.0000
     18 H5         4.2839   -7.9429    6.3461 H         1 RES1    0.0000
     19 C10        4.0362   -3.5520    5.4765 C.2       1 RES1    0.0000
     20 H6         4.0806   -2.6942    5.8325 H         1 RES1    0.0000
     21 C11        4.1598   -6.0023    5.8842 C.ar      1 RES1    0.0000
     22 H7         3.8250   -6.1379    5.0276 H         1 RES1    0.0000
     23 C12        1.7132    1.9218    1.7485 C.3       1 RES1    0.0000
     24 H8         1.5768    2.5773    1.0597 H         1 RES1    0.0000
     25 H9         2.2810    2.2880    2.4309 H         1 RES1    0.0000
     26 H10        0.8670    1.6803    2.1316 H         1 RES1    0.0000
     27 C13        5.1373   -5.6722    8.4506 C.ar      1 RES1    0.0000
     28 H11        5.4510   -5.5467    9.3149 H         1 RES1    0.0000
     29 O3         4.8296   -3.0643    9.3400 O.2       1 RES1    0.0000
     30 C14        4.9084   -6.9409    7.9604 C.ar      1 RES1    0.0000
     31 H12        5.0769   -7.6873    8.4898 H         1 RES1    0.0000
@<TRIPOS>BOND
     1    1    4 1
     2    2    3 1
     3    3   19 2
     4    4    8 ar
     5    5   10 ar
     6    6    2 ar
     7    7    6 1
     8    8    6 ar
     9    9    8 1
    10   10   16 1
    11   11    2 ar
    12   12   11 1
    13   13   16 2
    14   14    4 ar
    15   15   14 1
    16   16   29 2
    17   17   18 1
    18   19    5 1
    19   20   19 1
    20   21    5 ar
    21   22   21 1
    22   23    1 1
    23   24   23 1
    24   25   23 1
    25   26   23 1
    26   27   10 ar
    27   28   27 1
    28   30   17 ar
    29   31   30 1
    30   11   14 ar
    31   17   21 ar
    32   27   30 ar
@<TRIPOS>SUBSTRUCTURE
     1 RES1 1

@<TRIPOS>CRYSIN
   4.0010    7.8410   40.4470  90.0000  90.0000  90.0000  19 1

