# MOL2 file generated by ConQuest
# Please check atom types

@<TRIPOS>MOLECULE
ROGTIS
    33    34     1
SMALL
NO_CHARGES
****
Generated from CSD

@<TRIPOS>ATOM
      1 C1         4.8245    4.7829   16.0808 C.3       1 RES1    0.0000
      2 H1         5.3409    3.9915   15.9068 H         1 RES1    0.0000
      3 O1         3.4663    4.5055   15.8690 O.3       1 RES1    0.0000
      4 C2         3.2155    3.9305   14.5736 C.3       1 RES1    0.0000
      5 H2         2.2567    3.7556   14.4730 H         1 RES1    0.0000
      6 H3         3.7114    3.0895   14.4875 H         1 RES1    0.0000
      7 H4         3.5084    4.5542   13.8768 H         1 RES1    0.0000
      8 C3         4.9993    5.1874   17.5382 C.3       1 RES1    0.0000
      9 H5         5.9811    5.3087   17.6739 H         1 RES1    0.0000
     10 O2         4.4734    4.2076   18.4181 O.3       1 RES1    0.0000
     11 H6         5.0829    3.6894   18.5349 H         1 RES1    0.0000
     12 C4         4.3095    6.5180   17.8145 C.3       1 RES1    0.0000
     13 H7         3.3631    6.4589   17.8216 H         1 RES1    0.0000
     14 O3         4.7046    6.9870   19.1354 O.3       1 RES1    0.0000
     15 N1         3.8628    6.6068   20.1927 N.pl3     1 RES1    0.0000
     16 O4         2.7928    6.1067   19.9416 O.2       1 RES1    0.0000
     17 O5         4.3391    6.8826   21.2643 O.2       1 RES1    0.0000
     18 C5         4.8221    7.5414   16.8347 C.3       1 RES1    0.0000
     19 H8         5.7661    7.6451   16.9606 H         1 RES1    0.0000
     20 C6         4.6047    7.0313   15.4117 C.3       1 RES1    0.0000
     21 H9         3.6211    6.9251   15.2548 H         1 RES1    0.0000
     22 O6         5.3056    5.8070   15.2139 O.3       1 RES1    0.0000
     23 O7         4.1514    8.7858   16.9934 O.3       1 RES1    0.0000
     24 C7         4.6860    9.7309   16.0592 C.3       1 RES1    0.0000
     25 H10        5.6467    9.7649   16.2185 H         1 RES1    0.0000
     26 C8         4.0105   11.0504   16.2792 C.3       1 RES1    0.0000
     27 H11        4.2613   11.4311   17.2254 H         1 RES1    0.0000
     28 H12        3.0861   10.9511   16.2094 H         1 RES1    0.0000
     29 H13        4.3186   11.6697   15.5988 H         1 RES1    0.0000
     30 O8         4.4600    9.3075   14.7344 O.3       1 RES1    0.0000
     31 C9         5.1388    8.0740   14.4543 C.3       1 RES1    0.0000
     32 H14        4.9587    7.7775   13.5220 H         1 RES1    0.0000
     33 H15        6.1483    8.1678   14.6063 H         1 RES1    0.0000
@<TRIPOS>BOND
     1    1    2 1
     2    3    1 1
     3    4    3 1
     4    5    4 1
     5    6    4 1
     6    7    4 1
     7    8    1 1
     8    9    8 1
     9   10    8 1
    10   11   10 1
    11   12    8 1
    12   13   12 1
    13   14   12 1
    14   15   14 1
    15   16   15 2
    16   17   15 2
    17   18   12 1
    18   19   18 1
    19   20   18 1
    20   21   20 1
    21   22    1 1
    22   23   18 1
    23   24   23 1
    24   25   24 1
    25   26   24 1
    26   27   26 1
    27   28   26 1
    28   29   26 1
    29   30   24 1
    30   31   20 1
    31   32   31 1
    32   33   31 1
    33   20   22 1
    34   30   31 1
@<TRIPOS>SUBSTRUCTURE
     1 RES1 1

@<TRIPOS>CRYSIN
   4.7772   13.7923   18.0125  90.0000  90.0000  90.0000  19 1

