# MOL2 file generated by ConQuest
# Please check atom types

@<TRIPOS>MOLECULE
ROGZAO
    50    51     1
SMALL
NO_CHARGES
****
Generated from CSD

@<TRIPOS>ATOM
      1 C1         3.4188    2.1882    4.6451 C.3       1 RES1    0.0000
      2 C2         3.3732    3.1559    3.4586 C.3       1 RES1    0.0000
      3 C3         2.0764    3.9192    3.4839 C.2       1 RES1    0.0000
      4 C4         1.7072    4.5355    4.8175 C.3       1 RES1    0.0000
      5 C5         1.9268    3.4760    5.9007 C.3       1 RES1    0.0000
      6 O1         3.2170    2.8992    5.8628 O.3       1 RES1    0.0000
      7 C6         0.2539    4.9936    4.8798 C.3       1 RES1    0.0000
      8 C7         2.6374    5.7302    5.0793 C.3       1 RES1    0.0000
      9 N1         1.2533    4.0523    2.5119 N.2       1 RES1    0.0000
     10 N2         1.7263    3.5745    1.2717 N.3       1 RES1    0.0000
     11 C8         0.9199    2.8592    0.4750 C.ar      1 RES1    0.0000
     12 C9         1.2551    2.4692   -0.8497 C.ar      1 RES1    0.0000
     13 C10        0.4261    1.6593   -1.6098 C.ar      1 RES1    0.0000
     14 C11       -0.7556    1.2334   -1.0769 C.ar      1 RES1    0.0000
     15 C12       -1.1448    1.5988    0.2172 C.ar      1 RES1    0.0000
     16 C13       -0.3278    2.3920    0.9677 C.ar      1 RES1    0.0000
     17 N3        -1.6004    0.3430   -1.8590 N.pl3     1 RES1    0.0000
     18 O2        -1.2230    0.0107   -2.9645 O.2       1 RES1    0.0000
     19 O3        -2.6352   -0.0500   -1.3635 O.2       1 RES1    0.0000
     20 N4         2.4796    2.8993   -1.4798 N.pl3     1 RES1    0.0000
     21 O4         3.2347    3.6485   -0.8575 O.2       1 RES1    0.0000
     22 O5         2.7380    2.5234   -2.6109 O.2       1 RES1    0.0000
     23 C14        4.7385    1.4473    4.7484 C.3       1 RES1    0.0000
     24 C15        4.8272    0.4722    5.9230 C.3       1 RES1    0.0000
     25 C16        3.8359   -0.6683    5.7796 C.3       1 RES1    0.0000
     26 C17        6.2372   -0.0699    6.0618 C.3       1 RES1    0.0000
     27 H1         2.6684    1.5333    4.5400 H         1 RES1    0.0000
     28 H2         4.1385    3.7957    3.5206 H         1 RES1    0.0000
     29 H3         3.4393    2.6410    2.6032 H         1 RES1    0.0000
     30 H4         1.7966    3.9049    6.7916 H         1 RES1    0.0000
     31 H5         1.2521    2.7514    5.7737 H         1 RES1    0.0000
     32 H6         0.0672    5.3898    5.7811 H         1 RES1    0.0000
     33 H7         0.0897    5.6831    4.1751 H         1 RES1    0.0000
     34 H8        -0.3507    4.2121    4.7306 H         1 RES1    0.0000
     35 H9         2.4057    6.1480    5.9584 H         1 RES1    0.0000
     36 H10        3.5873    5.4170    5.1000 H         1 RES1    0.0000
     37 H11        2.5264    6.4065    4.3509 H         1 RES1    0.0000
     38 H12        0.6893    1.3908   -2.5352 H         1 RES1    0.0000
     39 H13       -2.0165    1.2778    0.5910 H         1 RES1    0.0000
     40 H14       -0.6120    2.6538    1.8866 H         1 RES1    0.0000
     41 H15        5.4664    2.1215    4.8488 H         1 RES1    0.0000
     42 H16        4.8728    0.9277    3.9062 H         1 RES1    0.0000
     43 H17        4.5928    0.9783    6.7547 H         1 RES1    0.0000
     44 H18        3.9218   -1.2855    6.5611 H         1 RES1    0.0000
     45 H19        4.0291   -1.1712    4.9360 H         1 RES1    0.0000
     46 H20        2.9066   -0.3016    5.7427 H         1 RES1    0.0000
     47 H21        6.2773   -0.7050    6.8330 H         1 RES1    0.0000
     48 H22        6.8744    0.6846    6.2169 H         1 RES1    0.0000
     49 H23        6.4933   -0.5528    5.2211 H         1 RES1    0.0000
     50 H24        2.4885    3.8816    0.9411 H         1 RES1    0.0000
@<TRIPOS>BOND
     1    1    2 1
     2    2    3 1
     3    3    4 1
     4    4    5 1
     5    5    6 1
     6    6    1 1
     7    7    4 1
     8    8    4 1
     9    9    3 2
    10   10    9 1
    11   11   10 1
    12   12   11 ar
    13   13   12 ar
    14   14   13 ar
    15   15   14 ar
    16   16   11 ar
    17   17   14 1
    18   18   17 2
    19   19   17 2
    20   20   12 1
    21   21   20 2
    22   22   20 2
    23   23    1 1
    24   24   23 1
    25   25   24 1
    26   26   24 1
    27   27    1 1
    28   28    2 1
    29   29    2 1
    30   30    5 1
    31   31    5 1
    32   32    7 1
    33   33    7 1
    34   34    7 1
    35   35    8 1
    36   36    8 1
    37   37    8 1
    38   38   13 1
    39   39   15 1
    40   40   16 1
    41   41   23 1
    42   42   23 1
    43   43   24 1
    44   44   25 1
    45   45   25 1
    46   46   25 1
    47   47   26 1
    48   48   26 1
    49   49   26 1
    50   50   10 1
    51   15   16 ar
@<TRIPOS>SUBSTRUCTURE
     1 RES1 1

@<TRIPOS>CRYSIN
   6.6810    9.0930   16.0670  70.8900  75.4800  83.9600   2 1

