# MOL2 file generated by ConQuest
# Please check atom types

@<TRIPOS>MOLECULE
ROHBAR01
    30    31     1
SMALL
NO_CHARGES
****
Generated from CSD

@<TRIPOS>ATOM
      1 O1        -4.9616   -2.9970    6.9249 O.2       1 RES1    0.0000
      2 O2        -0.1394    5.1181    5.2317 O.2       1 RES1    0.0000
      3 O3        -0.2913    3.7811    3.5684 O.2       1 RES1    0.0000
      4 N1        -4.5180   -1.4342    8.4941 N.am      1 RES1    0.0000
      5 N2        -3.8471   -0.6505    7.5769 N.2       1 RES1    0.0000
      6 N3        -6.8946   -5.1757   10.9883 N.ar      1 RES1    0.0000
      7 N4        -0.4843    4.0628    4.7350 N.pl3     1 RES1    0.0000
      8 C1        -5.0392   -2.6178    8.0756 C.2       1 RES1    0.0000
      9 C2        -5.6964   -3.4563    9.1329 C.ar      1 RES1    0.0000
     10 C3        -5.6453   -3.2080   10.4947 C.ar      1 RES1    0.0000
     11 C4        -6.2538   -4.0724   11.3724 C.ar      1 RES1    0.0000
     12 C5        -6.9409   -5.4150    9.6733 C.ar      1 RES1    0.0000
     13 C6        -6.3672   -4.5964    8.7256 C.ar      1 RES1    0.0000
     14 C7        -3.3125    0.4013    8.0436 C.2       1 RES1    0.0000
     15 C8        -2.5688    1.3095    7.1671 C.ar      1 RES1    0.0000
     16 C9        -2.0156    2.4652    7.7134 C.ar      1 RES1    0.0000
     17 C10       -1.3187    3.3531    6.9260 C.ar      1 RES1    0.0000
     18 C11       -1.1782    3.0789    5.5836 C.ar      1 RES1    0.0000
     19 C12       -1.6878    1.9327    5.0128 C.ar      1 RES1    0.0000
     20 C13       -2.3778    1.0427    5.8104 C.ar      1 RES1    0.0000
     21 H1        -4.6455   -1.0779    9.3480 H         1 RES1    0.0000
     22 H2        -7.4110   -6.1791    9.3905 H         1 RES1    0.0000
     23 H3        -6.3880   -4.8237    7.7949 H         1 RES1    0.0000
     24 H4        -5.2017   -2.4972   10.7913 H         1 RES1    0.0000
     25 H5        -6.2394   -3.8953   12.2946 H         1 RES1    0.0000
     26 H6        -3.3519    0.6083    8.9934 H         1 RES1    0.0000
     27 H7        -2.7233    0.2241    5.4110 H         1 RES1    0.0000
     28 H8        -1.5598    1.7716    4.0879 H         1 RES1    0.0000
     29 H9        -0.9790    4.1407    7.2967 H         1 RES1    0.0000
     30 H10       -2.1304    2.6680    8.6403 H         1 RES1    0.0000
@<TRIPOS>BOND
     1    1    8 2
     2    2    7 2
     3    3    7 2
     4    4    5 1
     5    5   14 2
     6    6   11 ar
     7    7   18 1
     8    8    4 1
     9    9    8 1
    10   10    9 ar
    11   11   10 ar
    12   12    6 ar
    13   13    9 ar
    14   14   15 1
    15   15   16 ar
    16   16   17 ar
    17   17   18 ar
    18   18   19 ar
    19   19   20 ar
    20   20   15 ar
    21   21    4 1
    22   22   12 1
    23   23   13 1
    24   24   10 1
    25   25   11 1
    26   26   14 1
    27   27   20 1
    28   28   19 1
    29   29   17 1
    30   30   16 1
    31   12   13 ar
@<TRIPOS>SUBSTRUCTURE
     1 RES1 1

@<TRIPOS>CRYSIN
   7.9700   10.6720   14.9050  90.0000 100.5700  90.0000  14 1

