# MOL2 file generated by ConQuest
# Please check atom types

@<TRIPOS>MOLECULE
ROHBAR
    30    31     1
SMALL
NO_CHARGES
****
Generated from CSD

@<TRIPOS>ATOM
      1 O1         0.8726    3.0023   15.0602 O.2       1 RES1    0.0000
      2 O2        -3.9507   -5.1196   16.7576 O.2       1 RES1    0.0000
      3 O3        -3.7907   -3.7867   18.4173 O.2       1 RES1    0.0000
      4 N1         2.7990    5.1817   10.9940 N.ar      1 RES1    0.0000
      5 N2         0.4278    1.4366   13.4906 N.am      1 RES1    0.0000
      6 N3        -0.2420    0.6500   14.4075 N.2       1 RES1    0.0000
      7 N4        -3.5968   -4.0636   17.2519 N.pl3     1 RES1    0.0000
      8 C1         2.2711    4.5998   13.2607 C.ar      1 RES1    0.0000
      9 C2         2.8443    5.4186   12.3114 C.ar      1 RES1    0.0000
     10 C3         2.1520    4.0784   10.6088 C.ar      1 RES1    0.0000
     11 C4         1.5477    3.2065   11.4899 C.ar      1 RES1    0.0000
     12 C5         1.6049    3.4621   12.8542 C.ar      1 RES1    0.0000
     13 C6         0.9430    2.6151   13.9086 C.2       1 RES1    0.0000
     14 C7        -0.7754   -0.4004   13.9457 C.2       1 RES1    0.0000
     15 C8        -1.5260   -1.3115   14.8179 C.ar      1 RES1    0.0000
     16 C9        -2.0672   -2.4681   14.2736 C.ar      1 RES1    0.0000
     17 C10       -2.7690   -3.3568   15.0629 C.ar      1 RES1    0.0000
     18 C11       -2.9034   -3.0845   16.4006 C.ar      1 RES1    0.0000
     19 C12       -2.4021   -1.9315   16.9709 C.ar      1 RES1    0.0000
     20 C13       -1.7108   -1.0463   16.1740 C.ar      1 RES1    0.0000
     21 H1         2.3195    4.7972   14.1751 H         1 RES1    0.0000
     22 H2         3.3337    6.2268   12.5641 H         1 RES1    0.0000
     23 H3         2.1083    3.9121    9.6690 H         1 RES1    0.0000
     24 H4         1.1041    2.5038   11.1363 H         1 RES1    0.0000
     25 H5        -0.7328   -0.6246   13.0083 H         1 RES1    0.0000
     26 H6        -1.9493   -2.6191   13.3337 H         1 RES1    0.0000
     27 H7        -3.1398   -4.1256   14.6985 H         1 RES1    0.0000
     28 H8        -2.5239   -1.7702   17.8721 H         1 RES1    0.0000
     29 H9        -1.3715   -0.2520   16.5411 H         1 RES1    0.0000
     30 H10        0.5706    1.1019   12.6609 H         1 RES1    0.0000
@<TRIPOS>BOND
     1    1   13 2
     2    2    7 2
     3    3    7 2
     4    4    9 ar
     5    5    6 1
     6    6   14 2
     7    7   18 1
     8    8    9 ar
     9    9   22 1
    10   10    4 ar
    11   11   10 ar
    12   12    8 ar
    13   13    5 1
    14   14   15 1
    15   15   16 ar
    16   16   17 ar
    17   17   18 ar
    18   18   19 ar
    19   19   20 ar
    20   20   15 ar
    21   21    8 1
    22   23   10 1
    23   24   11 1
    24   25   14 1
    25   26   16 1
    26   27   17 1
    27   28   19 1
    28   29   20 1
    29   30    5 1
    30   11   12 ar
    31   12   13 1
@<TRIPOS>SUBSTRUCTURE
     1 RES1 1

@<TRIPOS>CRYSIN
   7.9570   10.6770   14.9090  90.0000 100.5100  90.0000  14 1

