# MOL2 file generated by ConQuest
# Please check atom types

@<TRIPOS>MOLECULE
ROHGEC
    47    49     1
SMALL
NO_CHARGES
****
Generated from CSD

@<TRIPOS>ATOM
      1 C1         4.7279    6.0825    9.8582 C.ar      1 RES1    0.0000
      2 C2         4.0639    4.8795   10.0379 C.ar      1 RES1    0.0000
      3 H1         3.2125    4.7309    9.6458 H         1 RES1    0.0000
      4 C3         4.6749    3.8992   10.8021 C.ar      1 RES1    0.0000
      5 H2         4.2405    3.0661   10.9396 H         1 RES1    0.0000
      6 C4         5.9261    4.1343   11.3684 C.ar      1 RES1    0.0000
      7 C5         6.5697    5.3552   11.1618 C.ar      1 RES1    0.0000
      8 H3         7.4245    5.5087   11.5449 H         1 RES1    0.0000
      9 C6         5.9676    6.3424   10.4031 C.ar      1 RES1    0.0000
     10 H4         6.3960    7.1776   10.2619 H         1 RES1    0.0000
     11 C7         6.5338    3.0668   12.2181 C.2       1 RES1    0.0000
     12 C8         8.4750    2.2898   13.3414 C.3       1 RES1    0.0000
     13 H5         7.8972    2.0333   14.1163 H         1 RES1    0.0000
     14 C9         8.8548    1.0661   12.5055 C.3       1 RES1    0.0000
     15 H6         8.2816    1.0094   11.7007 H         1 RES1    0.0000
     16 H7         8.7372    0.2385   13.0344 H         1 RES1    0.0000
     17 C10       10.3253    1.2348   12.1017 C.3       1 RES1    0.0000
     18 H8        10.8783    0.5171   12.4999 H         1 RES1    0.0000
     19 H9        10.4223    1.2029   11.1172 H         1 RES1    0.0000
     20 C11       10.7492    2.6009   12.6387 C.3       1 RES1    0.0000
     21 H10       10.6524    3.2970   11.9417 H         1 RES1    0.0000
     22 H11       11.6907    2.5815   12.9438 H         1 RES1    0.0000
     23 C12        9.8044    2.8698   13.8102 C.3       1 RES1    0.0000
     24 H12       10.1168    2.3112   14.5783 H         1 RES1    0.0000
     25 C13        9.7553    4.3196   14.2938 C.3       1 RES1    0.0000
     26 H13        9.5344    4.9107   13.5183 H         1 RES1    0.0000
     27 C14       11.0775    4.7772   14.9003 C.3       1 RES1    0.0000
     28 H14       11.7920    4.6860   14.2069 H         1 RES1    0.0000
     29 C15       11.4966    3.9663   16.1473 C.3       1 RES1    0.0000
     30 H15       10.7150    3.5072   16.5445 H         1 RES1    0.0000
     31 H16       12.1779    3.2888   15.9102 H         1 RES1    0.0000
     32 C16       12.0713    4.9874   17.1223 C.3       1 RES1    0.0000
     33 H17       12.0080    4.6652   18.0558 H         1 RES1    0.0000
     34 H18       13.0162    5.1920   16.9105 H         1 RES1    0.0000
     35 C17       11.1807    6.1986   16.8966 C.3       1 RES1    0.0000
     36 H19       11.6039    7.0227   17.2457 H         1 RES1    0.0000
     37 H20       10.3013    6.0797   17.3327 H         1 RES1    0.0000
     38 C18       11.0380    6.2553   15.3755 C.3       1 RES1    0.0000
     39 H21       11.7820    6.7704   14.9734 H         1 RES1    0.0000
     40 H22       10.1808    6.6805   15.1202 H         1 RES1    0.0000
     41 N1         4.0836    7.1202    9.0360 N.pl3     1 RES1    0.0000
     42 O1         4.6827    8.1783    8.8626 O.2       1 RES1    0.0000
     43 O2         2.9785    6.8762    8.5587 O.2       1 RES1    0.0000
     44 O3         5.9256    2.0920   12.6187 O.2       1 RES1    0.0000
     45 O4         7.8164    3.3027   12.4979 O.3       1 RES1    0.0000
     46 O5         8.7463    4.4756   15.2938 O.3       1 RES1    0.0000
     47 H23        8.0133    4.6583   14.9263 H         1 RES1    0.0000
@<TRIPOS>BOND
     1    1    2 ar
     2    2    3 1
     3    4    2 ar
     4    5    4 1
     5    6    4 ar
     6    7    6 ar
     7    8    7 1
     8    9    1 ar
     9   10    9 1
    10   11    6 1
    11   12   13 1
    12   14   12 1
    13   15   14 1
    14   16   14 1
    15   17   14 1
    16   18   17 1
    17   19   17 1
    18   20   17 1
    19   21   20 1
    20   22   20 1
    21   23   12 1
    22   24   23 1
    23   25   23 1
    24   26   25 1
    25   27   25 1
    26   28   27 1
    27   29   27 1
    28   30   29 1
    29   31   29 1
    30   32   29 1
    31   33   32 1
    32   34   32 1
    33   35   32 1
    34   36   35 1
    35   37   35 1
    36   38   27 1
    37   39   38 1
    38   40   38 1
    39   41    1 1
    40   42   41 2
    41   43   41 2
    42   44   11 2
    43   45   11 1
    44   46   25 1
    45   47   46 1
    46    7    9 ar
    47   12   45 1
    48   20   23 1
    49   35   38 1
@<TRIPOS>SUBSTRUCTURE
     1 RES1 1

@<TRIPOS>CRYSIN
  26.6681    6.9135   18.1388  90.0000  92.5390  90.0000  15 1

