# MOL2 file generated by ConQuest
# Please check atom types

@<TRIPOS>MOLECULE
ROJQEO
    50    26     2
SMALL
NO_CHARGES
****
Generated from CSD

@<TRIPOS>ATOM
      1 O1         7.7253    0.2877    4.5989 O.2       1 RES1    0.0000
      2 O2         2.4348    3.1867    6.0155 O.2       1 RES1    0.0000
      3 O3         6.0953    0.9732    7.0491 O.2       1 RES1    0.0000
      4 N1         6.7376    0.9508    4.1534 N.pl3     1 RES1    0.0000
      5 N2         6.5816    1.2212    2.8679 N.2       1 RES1    0.0000
      6 N3         5.4094    1.9318    2.7483 N.3       1 RES1    0.0000
      7 N4         3.6733    2.6880    4.2723 N.ar      1 RES1    0.0000
      8 N5         3.4662    2.6676    5.5801 N.pl3     1 RES1    0.0000
      9 N6         4.2590    2.1173    6.5811 N.ar      1 RES1    0.0000
     10 N7         5.3850    1.4987    6.1785 N.pl3     1 RES1    0.0000
     11 C1         4.8356    2.0859    3.9503 C.ar      1 RES1    0.0000
     12 C2         5.6807    1.4820    4.8552 C.ar      1 RES1    0.0000
     13 C3         4.8934    2.2190    1.3637 C.3       1 RES1    0.0000
     14 C4         4.0275    3.4676    1.4135 C.3       1 RES1    0.0000
     15 H1         4.5351    4.2006    1.8199 H         1 RES1    0.0000
     16 H2         3.2265    3.2882    1.9492 H         1 RES1    0.0000
     17 H3         3.7636    3.7185    0.5042 H         1 RES1    0.0000
     18 C5         6.1000    2.4695    0.4659 C.3       1 RES1    0.0000
     19 H4         6.6096    3.2328    0.8078 H         1 RES1    0.0000
     20 H5         5.7946    2.6623   -0.4461 H         1 RES1    0.0000
     21 H6         6.6713    1.6731    0.4573 H         1 RES1    0.0000
     22 C6         4.1036    0.9937    0.9234 C.3       1 RES1    0.0000
     23 H7         3.3390    0.8651    1.5219 H         1 RES1    0.0000
     24 H8         4.6815    0.2036    0.9577 H         1 RES1    0.0000
     25 H9         3.7815    1.1249    0.0075 H         1 RES1    0.0000
     26 O4         2.5011    3.3694    5.6751 Du        2 SUP2    0.0000
     27 O5         7.8456    0.2669    5.1897 Du        2 SUP2    0.0000
     28 O6         4.4873    1.9686    7.4725 Du        2 SUP2    0.0000
     29 N8         3.3763    2.8998    4.8823 Du        2 SUP2    0.0000
     30 N9         3.3075    3.0552    3.5723 Du        2 SUP2    0.0000
     31 N10        4.4155    2.4418    3.0381 Du        2 SUP2    0.0000
     32 N11        6.3542    1.2731    3.9302 Du        2 SUP2    0.0000
     33 N12        6.7739    0.8794    5.1185 Du        2 SUP2    0.0000
     34 N13        6.1768    1.0678    6.3592 Du        2 SUP2    0.0000
     35 N14        5.0263    1.7633    6.3705 Du        2 SUP2    0.0000
     36 C7         5.1739    1.9258    4.0146 Du        2 SUP2    0.0000
     37 C8         4.5143    2.1909    5.1953 Du        2 SUP2    0.0000
     38 C9         4.4999    2.4463    1.5350 Du        2 SUP2    0.0000
     39 C10        5.9818    2.4918    1.1714 Du        2 SUP2    0.0000
     40 H10        6.4456    1.7401    1.5968 Du        2 SUP2    0.0000
     41 H11        6.3694    3.3355    1.4863 Du        2 SUP2    0.0000
     42 H12        6.0822    2.4293    0.1987 Du        2 SUP2    0.0000
     43 C11        3.7337    3.6141    0.9277 Du        2 SUP2    0.0000
     44 H13        2.8039    3.5891    1.2351 Du        2 SUP2    0.0000
     45 H14        3.7566    3.5462   -0.0506 Du        2 SUP2    0.0000
     46 H15        4.1477    4.4569    1.2051 Du        2 SUP2    0.0000
     47 C12        3.8548    1.1365    1.1227 Du        2 SUP2    0.0000
     48 H16        2.9471    1.0919    1.4825 Du        2 SUP2    0.0000
     49 H17        4.3844    0.3893    1.4750 Du        2 SUP2    0.0000
     50 H18        3.8246    1.0821    0.1443 Du        2 SUP2    0.0000
@<TRIPOS>BOND
     1    1    4 1
     2    2    8 1
     3    3   10 1
     4    4    5 2
     5    5    6 1
     6    6   11 1
     7    7    8 ar
     8    8    9 ar
     9    9   10 ar
    10   10   12 ar
    11   11    7 ar
    12   12    4 1
    13   13    6 1
    14   14   13 1
    15   15   14 1
    16   16   14 1
    17   17   14 1
    18   18   13 1
    19   19   18 1
    20   20   18 1
    21   21   18 1
    22   22   13 1
    23   23   22 1
    24   24   22 1
    25   25   22 1
    26   11   12 ar
@<TRIPOS>SUBSTRUCTURE
     1 RES1 1
     2 SUP2 26

@<TRIPOS>CRYSIN
   5.7092    8.9280   18.8570  90.0000  96.3270  90.0000 231 1

