# MOL2 file generated by ConQuest
# Please check atom types

@<TRIPOS>MOLECULE
ROKPIQ
    18    19     1
SMALL
NO_CHARGES
****
Generated from CSD

@<TRIPOS>ATOM
      1 C1         1.3220    0.1011    2.2746 C.2       1 RES1    0.0000
      2 O1         0.9381   -0.6586    1.4247 O.2       1 RES1    0.0000
      3 O2         1.9994   -0.3238    3.3577 O.3       1 RES1    0.0000
      4 C2         2.3489    0.7916    4.2181 C.3       1 RES1    0.0000
      5 H1         3.2906    0.8392    4.2926 H         1 RES1    0.0000
      6 H2         1.8012    0.5621    5.0828 H         1 RES1    0.0000
      7 C3         1.7956    1.9887    3.5214 C.ar      1 RES1    0.0000
      8 C4         1.8197    3.3380    3.8562 C.ar      1 RES1    0.0000
      9 H3         2.3415    3.6161    4.6593 H         1 RES1    0.0000
     10 C5         1.1666    4.2243    3.0174 C.ar      1 RES1    0.0000
     11 H4         1.1222    5.1755    3.2082 H         1 RES1    0.0000
     12 C6         0.5236    3.7505    1.8863 C.ar      1 RES1    0.0000
     13 N1        -0.2128    4.7000    1.0530 N.pl3     1 RES1    0.0000
     14 O3        -0.6531    4.3104   -0.0055 O.2       1 RES1    0.0000
     15 O4        -0.3927    5.8349    1.4555 O.2       1 RES1    0.0000
     16 C7         0.5144    2.4219    1.5158 C.ar      1 RES1    0.0000
     17 H5        -0.0231    2.1472    0.6874 H         1 RES1    0.0000
     18 C8         1.1730    1.5635    2.3718 C.ar      1 RES1    0.0000
@<TRIPOS>BOND
     1    1    2 2
     2    3    1 1
     3    4    3 1
     4    5    4 1
     5    6    4 1
     6    7    4 1
     7    8    7 ar
     8    9    8 1
     9   10    8 ar
    10   11   10 1
    11   12   10 ar
    12   13   12 1
    13   14   13 2
    14   15   13 2
    15   16   12 ar
    16   17   16 1
    17   18    1 1
    18    7   18 ar
    19   16   18 ar
@<TRIPOS>SUBSTRUCTURE
     1 RES1 1

@<TRIPOS>CRYSIN
   9.2511   13.5130    6.1542  90.0000  90.0000  90.0000  33 1

