# MOL2 file generated by ConQuest
# Please check atom types

@<TRIPOS>MOLECULE
ROKPOW
    29    30     1
SMALL
NO_CHARGES
****
Generated from CSD

@<TRIPOS>ATOM
      1 C1         4.2328    0.8579    2.3351 C.2       1 RES1    0.0000
      2 C2         3.4549   -0.3548    2.4052 C.2       1 RES1    0.0000
      3 H1         3.1217   -0.6270    3.2292 H         1 RES1    0.0000
      4 C3         3.1985   -1.1033    1.3281 C.2       1 RES1    0.0000
      5 H2         2.7118   -1.8887    1.4237 H         1 RES1    0.0000
      6 C4         3.6476   -0.7285    0.0695 C.2       1 RES1    0.0000
      7 H3         3.4622   -1.2573   -0.6730 H         1 RES1    0.0000
      8 C5         4.3617    0.4239   -0.0644 C.2       1 RES1    0.0000
      9 H4         4.6486    0.7118   -0.9005 H         1 RES1    0.0000
     10 C6         6.7852    2.1230    1.2848 C.3       1 RES1    0.0000
     11 H5         6.8074    1.6255    2.1286 H         1 RES1    0.0000
     12 C7         7.5559    1.3666    0.2409 C.3       1 RES1    0.0000
     13 H6         7.0909    0.5388    0.0446 H         1 RES1    0.0000
     14 H7         8.4280    1.1390    0.5972 H         1 RES1    0.0000
     15 C8         7.7370    2.1398   -1.0382 C.3       1 RES1    0.0000
     16 H8         6.8751    2.2658   -1.4639 H         1 RES1    0.0000
     17 H9         8.3005    1.6344   -1.6442 H         1 RES1    0.0000
     18 C9         8.3729    3.4975   -0.7673 C.3       1 RES1    0.0000
     19 H10        9.2696    3.3725   -0.4187 H         1 RES1    0.0000
     20 H11        8.4381    3.9962   -1.5964 H         1 RES1    0.0000
     21 C10        7.5429    4.2795    0.2326 C.3       1 RES1    0.0000
     22 H12        7.9890    5.1173    0.4315 H         1 RES1    0.0000
     23 H13        6.6809    4.4870   -0.1612 H         1 RES1    0.0000
     24 C11        7.3328    3.5164    1.5079 C.3       1 RES1    0.0000
     25 H14        6.7172    4.0107    2.0725 H         1 RES1    0.0000
     26 H15        8.1788    3.4506    1.9788 H         1 RES1    0.0000
     27 N1         4.6461    1.1424    1.0573 N.am      1 RES1    0.0000
     28 O1         5.3797    2.3251    0.8712 O.3       1 RES1    0.0000
     29 O2         4.5464    1.5697    3.2923 O.2       1 RES1    0.0000
@<TRIPOS>BOND
     1    1    2 1
     2    2    3 1
     3    4    2 2
     4    5    4 1
     5    6    4 1
     6    7    6 1
     7    8    6 2
     8    9    8 1
     9   10   11 1
    10   12   10 1
    11   13   12 1
    12   14   12 1
    13   15   12 1
    14   16   15 1
    15   17   15 1
    16   18   15 1
    17   19   18 1
    18   20   18 1
    19   21   18 1
    20   22   21 1
    21   23   21 1
    22   24   10 1
    23   25   24 1
    24   26   24 1
    25   27    1 1
    26   28   10 1
    27   29    1 2
    28    8   27 1
    29   21   24 1
    30   27   28 1
@<TRIPOS>SUBSTRUCTURE
     1 RES1 1

@<TRIPOS>CRYSIN
  14.4860   11.1562    6.3730  90.0000  90.0000  90.0000  33 1

