# MOL2 file generated by ConQuest
# Please check atom types

@<TRIPOS>MOLECULE
ROKTAO
    10     9     1
SMALL
NO_CHARGES
****
Generated from CSD

@<TRIPOS>ATOM
      1 N1         3.6118    4.8739   30.5595 N.am      1 RES1    0.0000
      2 H1         4.0746    5.5296   30.9205 H         1 RES1    0.0000
      3 H2         3.8213    4.5773   29.7589 H         1 RES1    0.0000
      4 C1         2.6045    4.3367   31.2190 C.2       1 RES1    0.0000
      5 N2         1.8378    3.3050   30.6611 N.am      1 RES1    0.0000
      6 H3         1.1013    3.0931   31.0947 H         1 RES1    0.0000
      7 N3         2.0970    2.5846   29.5215 N.pl3     1 RES1    0.0000
      8 O1         1.2840    1.7063   29.2711 O.2       1 RES1    0.0000
      9 O2         3.0926    2.8564   28.8587 O.2       1 RES1    0.0000
     10 O3         2.2338    4.6859   32.3509 O.2       1 RES1    0.0000
@<TRIPOS>BOND
     1    1    2 1
     2    3    1 1
     3    4    1 1
     4    5    4 1
     5    6    5 1
     6    7    5 1
     7    8    7 2
     8    9    7 2
     9   10    4 2
@<TRIPOS>SUBSTRUCTURE
     1 RES1 1

@<TRIPOS>CRYSIN
   4.8710    4.8710   32.2660  90.0000  90.0000  90.0000  96 1

