# MOL2 file generated by ConQuest
# Please check atom types

@<TRIPOS>MOLECULE
ROKYIZ
    53    56     1
SMALL
NO_CHARGES
****
Generated from CSD

@<TRIPOS>ATOM
      1 N1        -0.8282   13.3974    3.5872 N.3       1 RES1    0.0000
      2 O1        -1.5858   14.4759    3.0095 O.3       1 RES1    0.0000
      3 H1        -2.4057   14.3349    3.1228 H         1 RES1    0.0000
      4 O2         1.1175   14.8512    3.7061 O.3       1 RES1    0.0000
      5 O3         0.0383   14.3770    6.8346 O.3       1 RES1    0.0000
      6 O4         1.3221   16.1696    6.3154 O.3       1 RES1    0.0000
      7 O5         1.5464   18.4437    4.0044 O.3       1 RES1    0.0000
      8 O6         2.9133   18.5297    2.1674 O.3       1 RES1    0.0000
      9 C1         0.1876   13.9907    4.4236 C.3       1 RES1    0.0000
     10 H2         0.7149   13.2473    4.8371 H         1 RES1    0.0000
     11 C2        -0.4010   14.8366    5.5620 C.3       1 RES1    0.0000
     12 H3        -1.3987   14.8805    5.5092 H         1 RES1    0.0000
     13 C3         0.2314   16.2190    5.3865 C.3       1 RES1    0.0000
     14 H4        -0.4059   16.9660    5.5715 H         1 RES1    0.0000
     15 C4         0.7483   16.2153    3.9591 C.3       1 RES1    0.0000
     16 H5         0.0000   16.4662    3.3436 H         1 RES1    0.0000
     17 C5         1.9320   17.1125    3.6778 C.3       1 RES1    0.0000
     18 H6         2.7148   16.8324    4.2348 H         1 RES1    0.0000
     19 C6         2.3379   17.2334    2.2354 C.3       1 RES1    0.0000
     20 H7         2.9976   16.5376    1.9918 H         1 RES1    0.0000
     21 H8         1.5529   17.1583    1.6369 H         1 RES1    0.0000
     22 C7         2.1699   19.3427    3.0737 C.3       1 RES1    0.0000
     23 C8         0.8489   15.3987    7.4217 C.3       1 RES1    0.0000
     24 C9         3.1480   20.2380    3.7968 C.3       1 RES1    0.0000
     25 H9         2.6628   20.8111    4.4274 H         1 RES1    0.0000
     26 H10        3.6228   20.7965    3.1473 H         1 RES1    0.0000
     27 H11        3.7934   19.6869    4.2876 H         1 RES1    0.0000
     28 C10        1.0842   20.1117    2.3713 C.3       1 RES1    0.0000
     29 H12        0.5968   20.6573    3.0246 H         1 RES1    0.0000
     30 H13        0.4650   19.4855    1.9428 H         1 RES1    0.0000
     31 H14        1.4829   20.6958    1.6916 H         1 RES1    0.0000
     32 C11        0.0191   16.2556    8.3601 C.3       1 RES1    0.0000
     33 H15       -0.2948   15.7100    9.1115 H         1 RES1    0.0000
     34 H16       -0.7510   16.6182    7.8748 H         1 RES1    0.0000
     35 H17        0.5683   16.9935    8.6999 H         1 RES1    0.0000
     36 C12        2.0261   14.7634    8.1184 C.3       1 RES1    0.0000
     37 H18        1.7094   14.2342    8.8793 H         1 RES1    0.0000
     38 H19        2.6333   15.4646    8.4375 H         1 RES1    0.0000
     39 H20        2.5020   14.1811    7.4897 H         1 RES1    0.0000
     40 C13       -0.2609   12.6247    2.4563 C.3       1 RES1    0.0000
     41 H21        0.4458   12.0169    2.7924 H         1 RES1    0.0000
     42 H22        0.1499   13.2455    1.8049 H         1 RES1    0.0000
     43 C14       -1.3423   11.8173    1.7766 C.ar      1 RES1    0.0000
     44 C15       -2.0135   12.3043    0.6684 C.ar      1 RES1    0.0000
     45 H23       -1.7728   13.1484    0.3059 H         1 RES1    0.0000
     46 C16       -3.0364   11.5664    0.0793 C.ar      1 RES1    0.0000
     47 H24       -3.4959   11.9180   -0.6759 H         1 RES1    0.0000
     48 C17       -3.3865   10.3397    0.5796 C.ar      1 RES1    0.0000
     49 H25       -4.0855    9.8416    0.1737 H         1 RES1    0.0000
     50 C18       -2.7191    9.8233    1.6841 C.ar      1 RES1    0.0000
     51 H26       -2.9593    8.9737    2.0353 H         1 RES1    0.0000
     52 C19       -1.6886   10.5667    2.2713 C.ar      1 RES1    0.0000
     53 H27       -1.2204   10.2097    3.0170 H         1 RES1    0.0000
@<TRIPOS>BOND
     1    1    2 1
     2    2    3 1
     3    4    9 1
     4    5   11 1
     5    6   13 1
     6    7   17 1
     7    8   19 1
     8    9    1 1
     9   10    9 1
    10   11    9 1
    11   12   11 1
    12   13   11 1
    13   14   13 1
    14   15    4 1
    15   16   15 1
    16   17   15 1
    17   18   17 1
    18   19   17 1
    19   20   19 1
    20   21   19 1
    21   22    7 1
    22   23    5 1
    23   24   22 1
    24   25   24 1
    25   26   24 1
    26   27   24 1
    27   28   22 1
    28   29   28 1
    29   30   28 1
    30   31   28 1
    31   32   23 1
    32   33   32 1
    33   34   32 1
    34   35   32 1
    35   36   23 1
    36   37   36 1
    37   38   36 1
    38   39   36 1
    39   40    1 1
    40   41   40 1
    41   42   40 1
    42   43   40 1
    43   44   43 ar
    44   45   44 1
    45   46   44 ar
    46   47   46 1
    47   48   46 ar
    48   49   48 1
    49   50   48 ar
    50   51   50 1
    51   52   43 ar
    52   53   52 1
    53    6   23 1
    54    8   22 1
    55   13   15 1
    56   50   52 ar
@<TRIPOS>SUBSTRUCTURE
     1 RES1 1

@<TRIPOS>CRYSIN
   5.4700   18.3100   18.8800  90.0000  90.0000  90.0000  19 1

