# MOL2 file generated by ConQuest
# Please check atom types

@<TRIPOS>MOLECULE
ROKZUM
    26    27     1
SMALL
NO_CHARGES
****
Generated from CSD

@<TRIPOS>ATOM
      1 O1         8.4386   13.5557    8.9812 O.2       1 RES1    0.0000
      2 O2         7.9739   15.6329    8.8097 O.2       1 RES1    0.0000
      3 O3         3.7732    9.2115    2.2773 O.2       1 RES1    0.0000
      4 N1         4.9529   13.5849    3.7323 N.3       1 RES1    0.0000
      5 N2         7.9166   14.4928    8.4100 N.pl3     1 RES1    0.0000
      6 C1         5.6933   13.7216    4.8994 C.ar      1 RES1    0.0000
      7 C2         5.9914   15.0264    5.2925 C.ar      1 RES1    0.0000
      8 C3         6.7195   15.2786    6.4273 C.ar      1 RES1    0.0000
      9 C4         7.1559   14.2287    7.1833 C.ar      1 RES1    0.0000
     10 C5         6.8914   12.9385    6.8242 C.ar      1 RES1    0.0000
     11 C6         6.1532   12.6784    5.6847 C.ar      1 RES1    0.0000
     12 C7         4.5291   12.4859    3.0569 C.2       1 RES1    0.0000
     13 C8         4.6141   11.1679    3.3278 C.2       1 RES1    0.0000
     14 C9         3.9630   10.4220    2.2934 C.2       1 RES1    0.0000
     15 C10        3.5064   11.3643    1.2135 C.3       1 RES1    0.0000
     16 C11        3.8184   12.7474    1.7582 C.3       1 RES1    0.0000
     17 H1         4.7187   14.3348    3.3629 H         1 RES1    0.0000
     18 H2         5.6915   15.7378    4.7753 H         1 RES1    0.0000
     19 H3         6.9131   16.1532    6.6784 H         1 RES1    0.0000
     20 H4         7.2066   12.2351    7.3452 H         1 RES1    0.0000
     21 H5         5.9647   11.7997    5.4450 H         1 RES1    0.0000
     22 H6         5.0314   10.8002    4.0724 H         1 RES1    0.0000
     23 H7         2.5553   11.2648    1.0486 H         1 RES1    0.0000
     24 H8         3.9867   11.2024    0.3874 H         1 RES1    0.0000
     25 H9         4.3880   13.2385    1.1462 H         1 RES1    0.0000
     26 H10        3.0041   13.2531    1.9050 H         1 RES1    0.0000
@<TRIPOS>BOND
     1    1    5 2
     2    2    5 2
     3    3   14 2
     4    4    6 1
     5    5    9 1
     6    6    7 ar
     7    7    8 ar
     8    8    9 ar
     9    9   10 ar
    10   10   11 ar
    11   11    6 ar
    12   12    4 1
    13   13   12 2
    14   14   13 1
    15   15   14 1
    16   16   12 1
    17   17    4 1
    18   18    7 1
    19   19    8 1
    20   20   10 1
    21   21   11 1
    22   22   13 1
    23   23   15 1
    24   24   15 1
    25   25   16 1
    26   26   16 1
    27   15   16 1
@<TRIPOS>SUBSTRUCTURE
     1 RES1 1

@<TRIPOS>CRYSIN
   8.2725   13.2730    9.5548  90.0000  97.5100  90.0000  14 1

