# MOL2 file generated by ConQuest
# Please check atom types

@<TRIPOS>MOLECULE
ROMJEJ
    61    64     1
SMALL
NO_CHARGES
****
Generated from CSD

@<TRIPOS>ATOM
      1 O1         1.6164    0.0355   12.0567 O.3       1 RES1    0.0000
      2 C1         0.5619    0.1418   13.0582 C.3       1 RES1    0.0000
      3 O2         0.5923    1.4986   13.4707 O.3       1 RES1    0.0000
      4 C2         1.0915    2.2822   12.3796 C.3       1 RES1    0.0000
      5 H1         0.3775    2.6333   11.7737 H         1 RES1    0.0000
      6 C3         2.0632    1.3107   11.6930 C.3       1 RES1    0.0000
      7 H2         2.0376    1.4254   10.6996 H         1 RES1    0.0000
      8 C4         1.9900    3.3566   12.9560 C.3       1 RES1    0.0000
      9 H3         1.5945    3.7785   13.7720 H         1 RES1    0.0000
     10 C5         3.2517    2.5612   13.2775 C.3       1 RES1    0.0000
     11 H4         3.1044    2.0636   14.1335 H         1 RES1    0.0000
     12 O3         3.3573    1.6003   12.1996 O.3       1 RES1    0.0000
     13 O4         2.3000    4.3305   11.9391 O.3       1 RES1    0.0000
     14 C6         1.2760    5.3126   11.6992 C.3       1 RES1    0.0000
     15 H5         0.4383    4.8529   11.4399 H         1 RES1    0.0000
     16 H6         1.5517    5.8930   10.9457 H         1 RES1    0.0000
     17 C7         1.0174    6.1672   12.9166 C.ar      1 RES1    0.0000
     18 C8        -0.1949    6.0903   13.5681 C.ar      1 RES1    0.0000
     19 H7        -0.8938    5.5537   13.2157 H         1 RES1    0.0000
     20 C9        -0.3879    6.8066   14.7497 C.ar      1 RES1    0.0000
     21 H8        -1.2227    6.7557   15.1990 H         1 RES1    0.0000
     22 C10        0.6085    7.5783   15.2632 C.ar      1 RES1    0.0000
     23 H9         0.4659    8.0558   16.0719 H         1 RES1    0.0000
     24 C11        1.8160    7.6693   14.6213 C.ar      1 RES1    0.0000
     25 H10        2.5101    8.2047   14.9872 H         1 RES1    0.0000
     26 C12        2.0252    6.9720   13.4288 C.ar      1 RES1    0.0000
     27 H11        2.8534    7.0500   12.9696 H         1 RES1    0.0000
     28 C13        4.5629    3.3306   13.3849 C.3       1 RES1    0.0000
     29 C14        4.4716    4.4049   14.4829 C.3       1 RES1    0.0000
     30 H12        5.3036    4.9427   14.5015 H         1 RES1    0.0000
     31 H13        3.7110    5.0113   14.3004 H         1 RES1    0.0000
     32 O5         4.2834    3.7407   15.7534 O.3       1 RES1    0.0000
     33 C15        4.5867    4.4936   16.8434 C.2       1 RES1    0.0000
     34 C16        4.3689    3.7454   18.1100 C.ar      1 RES1    0.0000
     35 C17        3.7252    2.5257   18.1451 C.ar      1 RES1    0.0000
     36 H14        3.4333    2.1262   17.3342 H         1 RES1    0.0000
     37 C18        3.4989    1.8792   19.3475 C.ar      1 RES1    0.0000
     38 H15        3.0635    1.0353   19.3646 H         1 RES1    0.0000
     39 C19        3.9173    2.4773   20.5302 C.ar      1 RES1    0.0000
     40 H16        3.7224    2.0660   21.3629 H         1 RES1    0.0000
     41 C20        4.6104    3.6603   20.4990 C.ar      1 RES1    0.0000
     42 H17        4.9375    4.0386   21.3073 H         1 RES1    0.0000
     43 C21        4.8367    4.3057   19.2957 C.ar      1 RES1    0.0000
     44 H18        5.3093    5.1306   19.2790 H         1 RES1    0.0000
     45 O6         4.9936    5.6188   16.7641 O.2       1 RES1    0.0000
     46 O7         4.8985    4.0291   12.1842 O.3       1 RES1    0.0000
     47 C22        5.6801    2.3307   13.6297 C.3       1 RES1    0.0000
     48 H19        5.5422    1.8828   14.5015 H         1 RES1    0.0000
     49 H20        5.6696    1.6381   12.9226 H         1 RES1    0.0000
     50 N1         6.9836    3.0245   13.6269 N.pl3     1 RES1    0.0000
     51 O8         7.6264    3.0741   12.5753 O.2       1 RES1    0.0000
     52 O9         7.3516    3.5812   14.6584 O.2       1 RES1    0.0000
     53 C23        0.9308   -0.7434   14.2170 C.3       1 RES1    0.0000
     54 H21        1.8008   -0.4680   14.5743 H         1 RES1    0.0000
     55 H22        0.9822   -1.6748   13.9153 H         1 RES1    0.0000
     56 H23        0.2510   -0.6654   14.9187 H         1 RES1    0.0000
     57 C24       -0.7616   -0.1986   12.4369 C.3       1 RES1    0.0000
     58 H24       -1.4680   -0.1288   13.1130 H         1 RES1    0.0000
     59 H25       -0.7331   -1.1133   12.0860 H         1 RES1    0.0000
     60 H26       -0.9489    0.4255   11.7031 H         1 RES1    0.0000
     61 H27        4.1265    4.3258   12.0026 H         1 RES1    0.0000
@<TRIPOS>BOND
     1    1    2 1
     2    2    3 1
     3    3    4 1
     4    4    5 1
     5    6    1 1
     6    7    6 1
     7    8    4 1
     8    9    8 1
     9   10    8 1
    10   11   10 1
    11   12    6 1
    12   13    8 1
    13   14   13 1
    14   15   14 1
    15   16   14 1
    16   17   14 1
    17   18   17 ar
    18   19   18 1
    19   20   18 ar
    20   21   20 1
    21   22   20 ar
    22   23   22 1
    23   24   22 ar
    24   25   24 1
    25   26   17 ar
    26   27   26 1
    27   28   10 1
    28   29   28 1
    29   30   29 1
    30   31   29 1
    31   32   29 1
    32   33   32 1
    33   34   33 1
    34   35   34 ar
    35   36   35 1
    36   37   35 ar
    37   38   37 1
    38   39   37 ar
    39   40   39 1
    40   41   39 ar
    41   42   41 1
    42   43   34 ar
    43   44   43 1
    44   45   33 2
    45   46   28 1
    46   47   28 1
    47   48   47 1
    48   49   47 1
    49   50   47 1
    50   51   50 2
    51   52   50 2
    52   53    2 1
    53   54   53 1
    54   55   53 1
    55   56   53 1
    56   57    2 1
    57   58   57 1
    58   59   57 1
    59   60   57 1
    60   61   46 1
    61    4    6 1
    62   10   12 1
    63   24   26 ar
    64   41   43 ar
@<TRIPOS>SUBSTRUCTURE
     1 RES1 1

@<TRIPOS>CRYSIN
   9.5080   11.8190   21.3950  90.0000  90.0000  90.0000  19 1

