# MOL2 file generated by ConQuest
# Please check atom types

@<TRIPOS>MOLECULE
ROMNIR
    42    43     1
SMALL
NO_CHARGES
****
Generated from CSD

@<TRIPOS>ATOM
      1 N1         9.0862   -2.0110    3.2573 N.1       1 RES1    0.0000
      2 C1         8.3850   -1.3566    3.8016 C.1       1 RES1    0.0000
      3 O1        -6.0055    0.8250    5.8632 O.2       1 RES1    0.0000
      4 O2        -5.7074    2.2673    7.3598 O.2       1 RES1    0.0000
      5 N2         0.9961    1.4752    6.6302 N.2       1 RES1    0.0000
      6 N3         0.2533    0.7318    5.9520 N.2       1 RES1    0.0000
      7 N4        -5.2870    1.4349    6.5575 N.pl3     1 RES1    0.0000
      8 C2         7.4915   -0.2107    4.2885 C.3       1 RES1    0.0000
      9 H1         7.9719    0.6322    4.2923 H         1 RES1    0.0000
     10 H2         6.7148   -0.1197    3.7151 H         1 RES1    0.0000
     11 C3         7.0658   -0.5422    5.6266 C.3       1 RES1    0.0000
     12 H3         7.8193   -0.8705    6.1411 H         1 RES1    0.0000
     13 H4         6.3927   -1.2401    5.5952 H         1 RES1    0.0000
     14 C4         7.5477    0.8175    8.4507 C.3       1 RES1    0.0000
     15 H5         8.1941    1.3005    8.9712 H         1 RES1    0.0000
     16 H6         7.8269   -0.0964    8.3596 H         1 RES1    0.0000
     17 H7         6.6944    0.8483    8.8901 H         1 RES1    0.0000
     18 C5         7.4312    1.4487    7.0781 C.3       1 RES1    0.0000
     19 H8         7.1463    2.3722    7.1653 H         1 RES1    0.0000
     20 H9         8.2947    1.4381    6.6379 H         1 RES1    0.0000
     21 C6         6.4827    0.7222    6.2988 C.3       1 RES1    0.0000
     22 H10        6.6195    1.2793    5.5041 H         1 RES1    0.0000
     23 C7         5.1692    0.9086    6.3003 C.ar      1 RES1    0.0000
     24 C8         4.5636    1.8713    7.1439 C.ar      1 RES1    0.0000
     25 H11        5.1051    2.4156    7.6683 H         1 RES1    0.0000
     26 C9         3.2385    2.0227    7.2120 C.ar      1 RES1    0.0000
     27 H12        2.8950    2.6697    7.7847 H         1 RES1    0.0000
     28 C10        2.3382    1.2486    6.4572 C.ar      1 RES1    0.0000
     29 C11        2.9194    0.2817    5.6159 C.ar      1 RES1    0.0000
     30 H13        2.3676   -0.2785    5.1191 H         1 RES1    0.0000
     31 C12        4.2391    0.1504    5.5164 C.ar      1 RES1    0.0000
     32 H14        4.5758   -0.4649    4.9055 H         1 RES1    0.0000
     33 C13       -1.1041    0.9722    6.1809 C.ar      1 RES1    0.0000
     34 C14       -1.6411    1.9274    7.0222 C.ar      1 RES1    0.0000
     35 H15       -1.0757    2.4908    7.5006 H         1 RES1    0.0000
     36 C15       -3.0082    2.0513    7.1592 C.ar      1 RES1    0.0000
     37 H16       -3.3583    2.6899    7.7380 H         1 RES1    0.0000
     38 C16       -3.8368    1.2539    6.4611 C.ar      1 RES1    0.0000
     39 C17       -3.3723    0.2573    5.6442 C.ar      1 RES1    0.0000
     40 H17       -3.9600   -0.3061    5.1926 H         1 RES1    0.0000
     41 C18       -2.0098    0.1186    5.5141 C.ar      1 RES1    0.0000
     42 H18       -1.6767   -0.5592    4.9706 H         1 RES1    0.0000
@<TRIPOS>BOND
     1    1    2 3
     2    2    8 1
     3    3    7 2
     4    4    7 2
     5    5    6 2
     6    6   33 1
     7    7   38 1
     8    8    9 1
     9   10    8 1
    10   11    8 1
    11   12   11 1
    12   13   11 1
    13   14   15 1
    14   16   14 1
    15   17   14 1
    16   18   14 1
    17   19   18 1
    18   20   18 1
    19   21   11 1
    20   22   21 1
    21   23   21 1
    22   24   23 ar
    23   25   24 1
    24   26   24 ar
    25   27   26 1
    26   28    5 1
    27   29   28 ar
    28   30   29 1
    29   31   23 ar
    30   32   31 1
    31   33   34 ar
    32   34   35 1
    33   36   34 ar
    34   37   36 1
    35   38   36 ar
    36   39   38 ar
    37   40   39 1
    38   41   33 ar
    39   42   41 1
    40   18   21 1
    41   26   28 ar
    42   29   31 ar
    43   39   41 ar
@<TRIPOS>SUBSTRUCTURE
     1 RES1 1

@<TRIPOS>CRYSIN
  20.1130   10.5900    7.6820  90.0000  94.7800  90.0000  14 1

