# MOL2 file generated by ConQuest
# Please check atom types

@<TRIPOS>MOLECULE
ROQXAW
    46    46     2
SMALL
NO_CHARGES
****
Generated from CSD

@<TRIPOS>ATOM
      1 O1         1.7350    1.2238   -0.8345 O.2       1 RES1    0.0000
      2 O2         3.2033    3.4818    4.8293 O.2       1 RES1    0.0000
      3 N1         1.1585    2.3494   -0.7165 N.3       1 RES1    0.0000
      4 C1         1.2517    3.2171    0.3641 C.2       1 RES1    0.0000
      5 N2         0.6397    4.3277    0.1546 N.2       1 RES1    0.0000
      6 C2         0.1272    4.3433   -1.2416 C.3       1 RES1    0.0000
      7 C3         0.1511    2.8752   -1.6863 C.3       1 RES1    0.0000
      8 C4         1.9588    2.8685    1.5950 C.2       1 RES1    0.0000
      9 C5         2.4605    1.6835    1.9128 C.2       1 RES1    0.0000
     10 H1         2.3874    0.9133    1.3444 H         1 RES1    0.0000
     11 C6         3.1028    1.6569    3.2654 C.3       1 RES1    0.0000
     12 N3         2.8371    3.0362    3.6965 N.3       1 RES1    0.0000
     13 C7         2.2002    3.9076    2.6764 C.3       1 RES1    0.0000
     14 C8        -1.2350    4.9968   -1.2763 C.3       1 RES1    0.0000
     15 H2        -1.1766    5.8791   -0.9054 H         1 RES1    0.0000
     16 H3        -1.8543    4.4733   -0.7613 H         1 RES1    0.0000
     17 H4        -1.5406    5.0517   -2.1846 H         1 RES1    0.0000
     18 C9         1.0954    5.2190   -2.0201 C.3       1 RES1    0.0000
     19 H5         1.9560    4.7959   -2.0522 H         1 RES1    0.0000
     20 H6         1.1740    6.0719   -1.5869 H         1 RES1    0.0000
     21 H7         0.7662    5.3435   -2.9128 H         1 RES1    0.0000
     22 C10       -1.1346    2.1181   -1.3921 C.3       1 RES1    0.0000
     23 H8        -0.9863    1.1769   -1.5109 H         1 RES1    0.0000
     24 H9        -1.8234    2.4114   -1.9938 H         1 RES1    0.0000
     25 H10       -1.4065    2.2882   -0.4868 H         1 RES1    0.0000
     26 C11        0.5995    2.6015   -3.1011 C.3       1 RES1    0.0000
     27 H11        0.5824    1.6562   -3.2652 H         1 RES1    0.0000
     28 H12        1.4927    2.9309   -3.2224 H         1 RES1    0.0000
     29 H13        0.0091    3.0447   -3.7152 H         1 RES1    0.0000
     30 C12        4.6072    1.4125    3.1797 C.3       1 RES1    0.0000
     31 H14        5.0091    2.0847    2.6246 H         1 RES1    0.0000
     32 H15        4.7697    0.5463    2.7999 H         1 RES1    0.0000
     33 H16        4.9888    1.4540    4.0596 H         1 RES1    0.0000
     34 C13        2.4303    0.6815    4.2169 C.3       1 RES1    0.0000
     35 H17        1.4823    0.8341    4.2134 H         1 RES1    0.0000
     36 H18        2.7722    0.8141    5.1052 H         1 RES1    0.0000
     37 H19        2.6111   -0.2169    3.9350 H         1 RES1    0.0000
     38 C14        0.9468    4.5322    3.2654 C.3       1 RES1    0.0000
     39 H20        0.3431    3.8386    3.5417 H         1 RES1    0.0000
     40 H21        0.5213    5.0811    2.6032 H         1 RES1    0.0000
     41 H22        1.1840    5.0704    4.0246 H         1 RES1    0.0000
     42 C15        3.1895    4.9850    2.2448 C.3       1 RES1    0.0000
     43 H23        3.9710    4.5709    1.8711 H         1 RES1    0.0000
     44 H24        3.4408    5.5123    3.0063 H         1 RES1    0.0000
     45 H25        2.7806    5.5497    1.5849 H         1 RES1    0.0000
     46 O3         0.9880    1.0082   -0.4478 Du        2 SUP2    0.0000
@<TRIPOS>BOND
     1    1    3 1
     2    2   12 1
     3    3    4 1
     4    4    5 2
     5    5    6 1
     6    6    7 1
     7    7    3 1
     8    8    4 1
     9    9    8 2
    10   10    9 1
    11   11    9 1
    12   12   11 1
    13   13    8 1
    14   14    6 1
    15   15   14 1
    16   16   14 1
    17   17   14 1
    18   18    6 1
    19   19   18 1
    20   20   18 1
    21   21   18 1
    22   22    7 1
    23   23   22 1
    24   24   22 1
    25   25   22 1
    26   26    7 1
    27   27   26 1
    28   28   26 1
    29   29   26 1
    30   30   11 1
    31   31   30 1
    32   32   30 1
    33   33   30 1
    34   34   11 1
    35   35   34 1
    36   36   34 1
    37   37   34 1
    38   38   13 1
    39   39   38 1
    40   40   38 1
    41   41   38 1
    42   42   13 1
    43   43   42 1
    44   44   42 1
    45   45   42 1
    46   12   13 1
@<TRIPOS>SUBSTRUCTURE
     1 RES1 1
     2 SUP2 46

@<TRIPOS>CRYSIN
   6.2060   13.3890   19.5230  90.0000  94.2000  90.0000  14 1

