# MOL2 file generated by ConQuest
# Please check atom types

@<TRIPOS>MOLECULE
RORVID
    51    52     1
SMALL
NO_CHARGES
****
Generated from CSD

@<TRIPOS>ATOM
      1 O1         5.4213    4.6037    4.2982 O.2       1 RES1    0.0000
      2 O2         4.4800    5.7222    1.9374 O.3       1 RES1    0.0000
      3 H1         4.8701    5.3445    2.7384 H         1 RES1    0.0000
      4 N1         4.4628    2.6827    3.5210 N.am      1 RES1    0.0000
      5 H2         4.5088    1.8038    3.5393 H         1 RES1    0.0000
      6 N2         4.7791    4.4928    1.2207 N.3       1 RES1    0.0000
      7 O3         4.9027    1.5642    0.8853 O.3       1 RES1    0.0000
      8 O4         6.3932    2.5592    4.5676 O.3       1 RES1    0.0000
      9 C1         3.3394    3.3094    2.8428 C.3       1 RES1    0.0000
     10 H3         3.1640    4.1842    3.2956 H         1 RES1    0.0000
     11 C2         3.9538    5.6333   -0.9256 C.ar      1 RES1    0.0000
     12 C3         3.8359    2.3782    0.5370 C.2       1 RES1    0.0000
     13 C4         3.6097    6.9453   -0.6342 C.ar      1 RES1    0.0000
     14 H4         4.0660    7.4089    0.0587 H         1 RES1    0.0000
     15 C5         7.4993    3.0678    5.3997 C.3       1 RES1    0.0000
     16 C6         3.6097    3.6045    1.3563 C.3       1 RES1    0.0000
     17 H5         2.8132    4.0816    0.9861 H         1 RES1    0.0000
     18 C7         3.2924    5.0107   -1.9814 C.ar      1 RES1    0.0000
     19 H6         3.5187    4.1151   -2.2031 H         1 RES1    0.0000
     20 C8         5.4395    3.3973    4.1259 C.2       1 RES1    0.0000
     21 C9         4.9075    0.5200    0.0018 C.2       1 RES1    0.0000
     22 H7         5.5440   -0.1852   -0.0037 H         1 RES1    0.0000
     23 C10        5.0532    4.9260   -0.1576 C.3       1 RES1    0.0000
     24 H8         5.3168    4.1256   -0.6763 H         1 RES1    0.0000
     25 H9         5.8382    5.5286   -0.1320 H         1 RES1    0.0000
     26 C11        3.1832    1.8373   -0.5022 C.2       1 RES1    0.0000
     27 H10        2.4058    2.1815   -0.9256 H         1 RES1    0.0000
     28 C12        1.9582    6.9432   -2.3791 C.ar      1 RES1    0.0000
     29 H11        1.2700    7.3858   -2.8612 H         1 RES1    0.0000
     30 C13        2.6119    7.5836   -1.3380 C.ar      1 RES1    0.0000
     31 H12        2.3685    8.4719   -1.1071 H         1 RES1    0.0000
     32 C14        2.1049    2.4546    3.0133 C.3       1 RES1    0.0000
     33 H13        1.9563    2.2820    3.9664 H         1 RES1    0.0000
     34 H14        2.2295    1.6040    2.5422 H         1 RES1    0.0000
     35 H15        1.3294    2.9223    2.6412 H         1 RES1    0.0000
     36 C15        2.3244    5.6521   -2.7072 C.ar      1 RES1    0.0000
     37 H16        1.9045    5.2106   -3.4367 H         1 RES1    0.0000
     38 C16        3.8906    0.6351   -0.8523 C.2       1 RES1    0.0000
     39 H17        3.6739    0.0366   -1.5561 H         1 RES1    0.0000
     40 C17        6.9376    3.6621    6.6736 C.3       1 RES1    0.0000
     41 H18        6.3989    2.9882    7.1373 H         1 RES1    0.0000
     42 H19        6.3759    4.4342    6.4536 H         1 RES1    0.0000
     43 H20        7.6747    3.9477    7.2528 H         1 RES1    0.0000
     44 C18        8.3418    4.0481    4.6262 C.3       1 RES1    0.0000
     45 H21        7.8194    4.8569    4.4466 H         1 RES1    0.0000
     46 H22        8.6188    3.6422    3.7776 H         1 RES1    0.0000
     47 H23        9.1355    4.2815    5.1523 H         1 RES1    0.0000
     48 C19        8.2843    1.8111    5.6893 C.3       1 RES1    0.0000
     49 H24        7.7236    1.1844    6.1915 H         1 RES1    0.0000
     50 H25        9.0780    2.0361    6.2172 H         1 RES1    0.0000
     51 H26        8.5613    1.3968    4.8444 H         1 RES1    0.0000
@<TRIPOS>BOND
     1    1   20 2
     2    2    3 1
     3    4    5 1
     4    6    2 1
     5    7   12 1
     6    8   15 1
     7    9    4 1
     8   10    9 1
     9   11   13 ar
    10   12   16 1
    11   13   14 1
    12   15   40 1
    13   16    6 1
    14   17   16 1
    15   18   11 ar
    16   19   18 1
    17   20    4 1
    18   21    7 1
    19   22   21 1
    20   23    6 1
    21   24   23 1
    22   25   23 1
    23   26   12 2
    24   27   26 1
    25   28   29 1
    26   30   13 ar
    27   31   30 1
    28   32    9 1
    29   33   32 1
    30   34   32 1
    31   35   32 1
    32   36   18 ar
    33   37   36 1
    34   38   21 2
    35   39   38 1
    36   40   41 1
    37   42   40 1
    38   43   40 1
    39   44   15 1
    40   45   44 1
    41   46   44 1
    42   47   44 1
    43   48   15 1
    44   49   48 1
    45   50   48 1
    46   51   48 1
    47    8   20 1
    48    9   16 1
    49   11   23 1
    50   26   38 1
    51   28   30 ar
    52   28   36 ar
@<TRIPOS>SUBSTRUCTURE
     1 RES1 1

@<TRIPOS>CRYSIN
   9.5850   10.4630   18.3290  90.0000  90.0000  90.0000  19 1

