# MOL2 file generated by ConQuest
# Please check atom types

@<TRIPOS>MOLECULE
ROSHIQ
    48    49     1
SMALL
NO_CHARGES
****
Generated from CSD

@<TRIPOS>ATOM
      1 O1        -1.1042    3.7682    2.0346 O.2       1 RES1    0.0000
      2 N1        -1.2119    2.4788    1.9808 N.3       1 RES1    0.0000
      3 N2        -3.6260    1.1789   -1.2383 N.ar      1 RES1    0.0000
      4 C1        -3.6889    0.5652   -0.0487 C.ar      1 RES1    0.0000
      5 C2        -2.9105    0.9371    1.0361 C.ar      1 RES1    0.0000
      6 C3        -2.0251    1.9984    0.8832 C.ar      1 RES1    0.0000
      7 C4        -1.9627    2.6496   -0.3348 C.ar      1 RES1    0.0000
      8 C5        -2.7723    2.1962   -1.3500 C.ar      1 RES1    0.0000
      9 C6        -0.0291    1.6754    2.4429 C.3       1 RES1    0.0000
     10 C7        -0.4289    0.2616    2.7569 C.3       1 RES1    0.0000
     11 C8         0.5451    2.3382    3.6731 C.3       1 RES1    0.0000
     12 C9         0.9801    1.7030    1.3031 C.3       1 RES1    0.0000
     13 H1        -2.9776    0.4754    1.8643 H         1 RES1    0.0000
     14 H2        -1.3777    3.3864   -0.4657 H         1 RES1    0.0000
     15 H3        -2.7224    2.6433   -2.1875 H         1 RES1    0.0000
     16 H4        -0.7827   -0.1443    1.9721 H         1 RES1    0.0000
     17 H5        -1.0829    0.2588    3.4397 H         1 RES1    0.0000
     18 H6         0.3369   -0.2244    3.0430 H         1 RES1    0.0000
     19 H7        -0.1189    2.3763    4.3519 H         1 RES1    0.0000
     20 H8         1.2888    1.8376    3.9841 H         1 RES1    0.0000
     21 H9         0.8249    3.2199    3.4542 H         1 RES1    0.0000
     22 H10        1.7504    1.2023    1.5475 H         1 RES1    0.0000
     23 H11        1.2288    2.6001    1.1201 H         1 RES1    0.0000
     24 H12        0.5893    1.3183    0.5247 H         1 RES1    0.0000
     25 C1A       -4.6601   -0.5652    0.0487 C.ar      1 RES1    0.0000
     26 N2A       -4.7230   -1.1789    1.2383 N.ar      1 RES1    0.0000
     27 C5A       -5.5767   -2.1962    1.3500 C.ar      1 RES1    0.0000
     28 C4A       -6.3863   -2.6496    0.3348 C.ar      1 RES1    0.0000
     29 C3A       -6.3239   -1.9984   -0.8832 C.ar      1 RES1    0.0000
     30 N1A       -7.1371   -2.4788   -1.9808 N.3       1 RES1    0.0000
     31 O1A       -7.2448   -3.7682   -2.0346 O.2       1 RES1    0.0000
     32 C6A       -8.3199   -1.6754   -2.4429 C.3       1 RES1    0.0000
     33 C7A       -7.9201   -0.2616   -2.7569 C.3       1 RES1    0.0000
     34 H4A       -7.5663    0.1443   -1.9721 H         1 RES1    0.0000
     35 H5A       -7.2661   -0.2588   -3.4397 H         1 RES1    0.0000
     36 H6A       -8.6859    0.2244   -3.0430 H         1 RES1    0.0000
     37 C8A       -8.8941   -2.3382   -3.6731 C.3       1 RES1    0.0000
     38 H7A       -8.2301   -2.3763   -4.3519 H         1 RES1    0.0000
     39 H8A       -9.6378   -1.8376   -3.9841 H         1 RES1    0.0000
     40 H9A       -9.1739   -3.2199   -3.4542 H         1 RES1    0.0000
     41 C9A       -9.3291   -1.7030   -1.3031 C.3       1 RES1    0.0000
     42 H10A     -10.0994   -1.2023   -1.5475 H         1 RES1    0.0000
     43 H11A      -9.5778   -2.6001   -1.1201 H         1 RES1    0.0000
     44 H12A      -8.9383   -1.3183   -0.5247 H         1 RES1    0.0000
     45 C2A       -5.4385   -0.9371   -1.0361 C.ar      1 RES1    0.0000
     46 H1A       -5.3714   -0.4754   -1.8643 H         1 RES1    0.0000
     47 H2A       -6.9713   -3.3864    0.4657 H         1 RES1    0.0000
     48 H3A       -5.6266   -2.6433    2.1875 H         1 RES1    0.0000
@<TRIPOS>BOND
     1    1    2 1
     2    2    6 1
     3    3    4 ar
     4    4    5 ar
     5    5    6 ar
     6    6    7 ar
     7    7    8 ar
     8    8    3 ar
     9    9    2 1
    10   10    9 1
    11   11    9 1
    12   12    9 1
    13   13    5 1
    14   14    7 1
    15   15    8 1
    16   16   10 1
    17   17   10 1
    18   18   10 1
    19   19   11 1
    20   20   11 1
    21   21   11 1
    22   22   12 1
    23   23   12 1
    24   24   12 1
    25   25    4 1
    26   26   25 ar
    27   27   26 ar
    28   28   27 ar
    29   29   28 ar
    30   30   29 1
    31   31   30 1
    32   32   30 1
    33   33   32 1
    34   34   33 1
    35   35   33 1
    36   36   33 1
    37   37   32 1
    38   38   37 1
    39   39   37 1
    40   40   37 1
    41   41   32 1
    42   42   41 1
    43   43   41 1
    44   44   41 1
    45   45   25 ar
    46   46   45 1
    47   47   28 1
    48   48   27 1
    49   29   45 ar
@<TRIPOS>SUBSTRUCTURE
     1 RES1 1

@<TRIPOS>CRYSIN
   8.3490    9.0680    6.7000 108.2900 109.1800 100.5700   2 1

