# MOL2 file generated by ConQuest
# Please check atom types

@<TRIPOS>MOLECULE
ROTVUT
    32    34     1
SMALL
NO_CHARGES
****
Generated from CSD

@<TRIPOS>ATOM
      1 O1         0.3919   15.6058    2.5821 O.3       1 RES1    0.0000
      2 N1         2.2353   14.4601   -0.5004 N.pl3     1 RES1    0.0000
      3 O2         1.8443   18.7244   -0.1854 O.2       1 RES1    0.0000
      4 C1         0.5958   15.5860    1.1402 C.3       1 RES1    0.0000
      5 O3         3.2604   13.8114   -0.6522 O.2       1 RES1    0.0000
      6 N2         0.7180   16.9324    0.6300 N.am      1 RES1    0.0000
      7 H1        -0.0039   17.4317    0.4969 H         1 RES1    0.0000
      8 O4         1.5001   14.8021   -1.4099 O.2       1 RES1    0.0000
      9 C2         1.8703   17.5820    0.3106 C.2       1 RES1    0.0000
     10 N3         3.0320   16.9125    0.5342 N.am      1 RES1    0.0000
     11 H2         3.7970   17.4280    0.4703 H         1 RES1    0.0000
     12 C3         3.0233   15.7484    1.4268 C.3       1 RES1    0.0000
     13 H3         3.9020   15.2749    1.3700 H         1 RES1    0.0000
     14 C4         2.7468   16.1328    2.8580 C.ar      1 RES1    0.0000
     15 C5         3.7592   16.5932    3.6903 C.ar      1 RES1    0.0000
     16 H4         4.6445   16.6474    3.3514 H         1 RES1    0.0000
     17 C6         3.5174   16.9759    5.0026 C.ar      1 RES1    0.0000
     18 C7         2.2084   16.8668    5.4720 C.ar      1 RES1    0.0000
     19 H5         2.0180   17.1061    6.3709 H         1 RES1    0.0000
     20 C8         1.4461   16.0633    3.3514 C.ar      1 RES1    0.0000
     21 C9         1.1812   16.4193    4.6619 C.ar      1 RES1    0.0000
     22 H6         0.2969   16.3570    5.0044 H         1 RES1    0.0000
     23 C10        1.9105   14.8273    0.9272 C.3       1 RES1    0.0000
     24 H7         1.9006   13.9968    1.4836 H         1 RES1    0.0000
     25 C11       -0.6647   14.9307    0.6158 C.3       1 RES1    0.0000
     26 H8        -1.4412   15.4802    0.8527 H         1 RES1    0.0000
     27 H9        -0.7609   14.0411    1.0151 H         1 RES1    0.0000
     28 H10       -0.6087   14.8476   -0.3585 H         1 RES1    0.0000
     29 C12        4.6235   17.5058    5.8731 C.3       1 RES1    0.0000
     30 H11        5.4676   17.0728    5.6282 H         1 RES1    0.0000
     31 H12        4.4194   17.3151    6.8128 H         1 RES1    0.0000
     32 H13        4.7037   18.4749    5.7462 H         1 RES1    0.0000
@<TRIPOS>BOND
     1    1    4 1
     2    2    5 2
     3    3    9 2
     4    4    6 1
     5    6    7 1
     6    8    2 2
     7    9    6 1
     8   10    9 1
     9   11   10 1
    10   12   10 1
    11   13   12 1
    12   14   12 1
    13   15   14 ar
    14   16   15 1
    15   17   15 ar
    16   18   17 ar
    17   19   18 1
    18   20    1 1
    19   21   18 ar
    20   22   21 1
    21   23    2 1
    22   24   23 1
    23   25    4 1
    24   26   25 1
    25   27   25 1
    26   28   25 1
    27   29   17 1
    28   30   29 1
    29   31   29 1
    30   32   29 1
    31    4   23 1
    32   12   23 1
    33   14   20 ar
    34   20   21 ar
@<TRIPOS>SUBSTRUCTURE
     1 RES1 1

@<TRIPOS>CRYSIN
   7.3919   18.4971    9.3583  90.0000 108.5310  90.0000 231 1

