# MOL2 file generated by ConQuest
# Please check atom types

@<TRIPOS>MOLECULE
ROWHUI
    36    38     1
SMALL
NO_CHARGES
****
Generated from CSD

@<TRIPOS>ATOM
      1 C1         3.1533    9.5565    0.8620 C.ar      1 RES1    0.0000
      2 C2         3.7349    9.2244    2.0602 C.ar      1 RES1    0.0000
      3 H1         4.5632    9.5736    2.2977 H         1 RES1    0.0000
      4 C3         3.0673    8.3649    2.9018 C.ar      1 RES1    0.0000
      5 H2         3.4485    8.1320    3.7178 H         1 RES1    0.0000
      6 C4         1.8327    7.8411    2.5492 C.ar      1 RES1    0.0000
      7 C5         1.2639    8.2218    1.3442 C.ar      1 RES1    0.0000
      8 H3         0.4273    7.8913    1.1085 H         1 RES1    0.0000
      9 C6         1.9154    9.0820    0.4899 C.ar      1 RES1    0.0000
     10 H4         1.5303    9.3359   -0.3179 H         1 RES1    0.0000
     11 C7         1.0758    6.9030    3.4414 C.2       1 RES1    0.0000
     12 C8         1.7670    6.3065    4.6255 C.ar      1 RES1    0.0000
     13 C9         2.9653    5.6287    4.4601 C.ar      1 RES1    0.0000
     14 H5         3.3527    5.5907    3.6150 H         1 RES1    0.0000
     15 C10        3.5974    5.0077    5.5198 C.ar      1 RES1    0.0000
     16 H6         4.3922    4.5452    5.3830 H         1 RES1    0.0000
     17 C11        3.0479    5.0771    6.7749 C.ar      1 RES1    0.0000
     18 H7         3.4696    4.6618    7.4926 H         1 RES1    0.0000
     19 C12        1.8711    5.7625    6.9706 C.ar      1 RES1    0.0000
     20 H8         1.5066    5.8206    7.8247 H         1 RES1    0.0000
     21 C13        1.2281    6.3638    5.9107 C.ar      1 RES1    0.0000
     22 C14       -0.2382    8.2630    5.8778 C.ar      1 RES1    0.0000
     23 C15       -1.5048    8.7320    6.1648 C.ar      1 RES1    0.0000
     24 H9        -2.1494    8.1849    6.5532 H         1 RES1    0.0000
     25 C16       -1.7700   10.0347    5.8538 C.ar      1 RES1    0.0000
     26 H10       -2.6098   10.3954    6.0282 H         1 RES1    0.0000
     27 C17       -0.7870   10.8154    5.2805 C.ar      1 RES1    0.0000
     28 H11       -0.9494   11.7049    5.0604 H         1 RES1    0.0000
     29 C18        0.4309   10.2450    5.0452 C.ar      1 RES1    0.0000
     30 H12        1.0940   10.7697    4.6587 H         1 RES1    0.0000
     31 N1         3.9019   10.4188   -0.0659 N.pl3     1 RES1    0.0000
     32 N2         0.7253    8.9676    5.3394 N.ar      1 RES1    0.0000
     33 O1         3.3693   10.7296   -1.1198 O.2       1 RES1    0.0000
     34 O2         5.0157   10.7789    0.2529 O.2       1 RES1    0.0000
     35 O3        -0.0797    6.6162    3.1833 O.2       1 RES1    0.0000
     36 O4         0.0060    6.9527    6.2015 O.3       1 RES1    0.0000
@<TRIPOS>BOND
     1    1    2 ar
     2    2    3 1
     3    4    2 ar
     4    5    4 1
     5    6    4 ar
     6    7    6 ar
     7    8    7 1
     8    9    1 ar
     9   10    9 1
    10   11    6 1
    11   12   11 1
    12   13   12 ar
    13   14   13 1
    14   15   13 ar
    15   16   15 1
    16   17   15 ar
    17   18   17 1
    18   19   17 ar
    19   20   19 1
    20   21   12 ar
    21   22   23 ar
    22   23   24 1
    23   25   23 ar
    24   26   25 1
    25   27   25 ar
    26   28   27 1
    27   29   27 ar
    28   30   29 1
    29   31    1 1
    30   32   22 ar
    31   33   31 2
    32   34   31 2
    33   35   11 2
    34   36   21 1
    35    7    9 ar
    36   19   21 ar
    37   22   36 1
    38   29   32 ar
@<TRIPOS>SUBSTRUCTURE
     1 RES1 1

@<TRIPOS>CRYSIN
   6.0929   15.5340   16.0560  90.0000  99.9650  90.0000  14 1

