# MOL2 file generated by ConQuest
# Please check atom types

@<TRIPOS>MOLECULE
ROXKOG
    53    56     1
SMALL
NO_CHARGES
****
Generated from CSD

@<TRIPOS>ATOM
      1 O1         1.2481    2.3097    7.2997 O.2       1 RES1    0.0000
      2 N1         5.8593   -0.7166   10.2086 N.3       1 RES1    0.0000
      3 O2         0.0523    0.7229    8.1656 O.2       1 RES1    0.0000
      4 N2         1.1477    1.2230    7.8818 N.pl3     1 RES1    0.0000
      5 N3         3.6438    1.0711    6.2836 N.3       1 RES1    0.0000
      6 N4         8.1336   -1.9277   11.4768 N.3       1 RES1    0.0000
      7 C1         3.5686    0.6079    7.5812 C.ar      1 RES1    0.0000
      8 C2         5.8874    0.7808    5.1239 C.ar      1 RES1    0.0000
      9 C3         4.7149    0.1466    8.2436 C.ar      1 RES1    0.0000
     10 H1         5.5463    0.1788    7.7860 H         1 RES1    0.0000
     11 C4         4.8671    1.6978    5.7815 C.3       1 RES1    0.0000
     12 H2         5.3100    2.1576    6.5377 H         1 RES1    0.0000
     13 H3         4.6097    2.3920    5.1244 H         1 RES1    0.0000
     14 C5         3.0312   -0.2636    4.2496 C.3       1 RES1    0.0000
     15 H4         2.2453   -0.4763    3.6858 H         1 RES1    0.0000
     16 H5         3.2953   -1.0942    4.7185 H         1 RES1    0.0000
     17 C6         3.4296   -0.5120   10.1886 C.ar      1 RES1    0.0000
     18 H6         3.3714   -0.9207   11.0438 H         1 RES1    0.0000
     19 C7         2.6101    0.7709    5.2966 C.3       1 RES1    0.0000
     20 H7         2.3592    1.6087    4.8331 H         1 RES1    0.0000
     21 H8         1.8061    0.4372    5.7690 H         1 RES1    0.0000
     22 C8         2.2906   -0.0634    9.5602 C.ar      1 RES1    0.0000
     23 H9         1.4490   -0.1696    9.9880 H         1 RES1    0.0000
     24 C9         7.0989   -1.2615   12.2531 C.3       1 RES1    0.0000
     25 H10        7.3511   -0.3149   12.3951 H         1 RES1    0.0000
     26 H11        7.0208   -1.6948   13.1396 H         1 RES1    0.0000
     27 C10        5.5554    0.0632    3.9624 C.ar      1 RES1    0.0000
     28 C11        5.7620   -1.3279   11.5376 C.3       1 RES1    0.0000
     29 H12        5.4815   -2.2728   11.4476 H         1 RES1    0.0000
     30 H13        5.0773   -0.8527   12.0712 H         1 RES1    0.0000
     31 C12        4.6899   -0.3627    9.5571 C.ar      1 RES1    0.0000
     32 C13        7.1787    0.6873    5.6434 C.ar      1 RES1    0.0000
     33 H14        7.4101    1.1896    6.4157 H         1 RES1    0.0000
     34 C14        8.2887   -1.1964   10.2264 C.3       1 RES1    0.0000
     35 H15        9.0090   -1.6118    9.6904 H         1 RES1    0.0000
     36 H16        8.5530   -0.2622   10.4223 H         1 RES1    0.0000
     37 C15        6.5259   -0.7462    3.3696 C.ar      1 RES1    0.0000
     38 H17        6.3086   -1.2337    2.5838 H         1 RES1    0.0000
     39 C16        4.1847    0.1655    3.3335 C.3       1 RES1    0.0000
     40 H18        4.1675   -0.3961    2.5186 H         1 RES1    0.0000
     41 H19        4.0343    1.1027    3.0538 H         1 RES1    0.0000
     42 C17        2.3500    0.5442    8.3054 C.ar      1 RES1    0.0000
     43 C18        8.1350   -0.1329    5.0441 C.ar      1 RES1    0.0000
     44 H20        9.0078   -0.1967    5.4136 H         1 RES1    0.0000
     45 C19        7.8073   -0.8539    3.9078 C.ar      1 RES1    0.0000
     46 H21        8.4515   -1.4181    3.4976 H         1 RES1    0.0000
     47 C20        9.4032   -1.9603   12.2004 C.3       1 RES1    0.0000
     48 H22       10.0780   -2.4187   11.6569 H         1 RES1    0.0000
     49 H23        9.2844   -2.4403   13.0471 H         1 RES1    0.0000
     50 H24        9.6985   -1.0442   12.3835 H         1 RES1    0.0000
     51 C21        7.0011   -1.1973    9.4251 C.3       1 RES1    0.0000
     52 H25        7.1140   -0.6211    8.6283 H         1 RES1    0.0000
     53 H26        6.8145   -2.1172    9.1110 H         1 RES1    0.0000
@<TRIPOS>BOND
     1    1    4 2
     2    2   28 1
     3    3    4 2
     4    4   42 1
     5    5    7 1
     6    6   24 1
     7    7    9 ar
     8    8   11 1
     9    9   10 1
    10   11    5 1
    11   12   11 1
    12   13   11 1
    13   14   15 1
    14   16   14 1
    15   17   18 1
    16   19    5 1
    17   20   19 1
    18   21   19 1
    19   22   17 ar
    20   23   22 1
    21   24   25 1
    22   26   24 1
    23   27    8 ar
    24   28   24 1
    25   29   28 1
    26   30   28 1
    27   31    2 1
    28   32    8 ar
    29   33   32 1
    30   34    6 1
    31   35   34 1
    32   36   34 1
    33   37   27 ar
    34   38   37 1
    35   39   14 1
    36   40   39 1
    37   41   39 1
    38   42    7 ar
    39   43   32 ar
    40   44   43 1
    41   45   37 ar
    42   46   45 1
    43   47    6 1
    44   48   47 1
    45   49   47 1
    46   50   47 1
    47   51    2 1
    48   52   51 1
    49   53   51 1
    50    9   31 ar
    51   14   19 1
    52   17   31 ar
    53   22   42 ar
    54   27   39 1
    55   34   51 1
    56   43   45 ar
@<TRIPOS>SUBSTRUCTURE
     1 RES1 1

@<TRIPOS>CRYSIN
   9.5413   10.1771   11.0759 105.0490  92.9690 114.7100   2 1

