# MOL2 file generated by ConQuest
# Please check atom types

@<TRIPOS>MOLECULE
ROXKEW
    47    50     1
SMALL
NO_CHARGES
****
Generated from CSD

@<TRIPOS>ATOM
      1 O1         4.3255   10.5079    3.3889 O.2       1 RES1    0.0000
      2 O2         4.4348   12.6762    3.3892 O.2       1 RES1    0.0000
      3 N1         3.8014   11.6206    3.5373 N.pl3     1 RES1    0.0000
      4 N2        -4.0047   12.2212    6.8087 N.3       1 RES1    0.0000
      5 N3        -1.3201   11.9260    5.8232 N.3       1 RES1    0.0000
      6 N4         1.5707    9.8481    2.5422 N.3       1 RES1    0.0000
      7 C1         2.1598   12.6705    4.9224 C.ar      1 RES1    0.0000
      8 H1         2.8481   13.2792    5.1603 H         1 RES1    0.0000
      9 C2         2.4227   11.6967    3.9568 C.ar      1 RES1    0.0000
     10 C3         2.0912    8.8418    0.5175 C.ar      1 RES1    0.0000
     11 C4         0.4769    8.9024    2.2459 C.3       1 RES1    0.0000
     12 H2        -0.3601    9.3801    2.0191 H         1 RES1    0.0000
     13 H3         0.3090    8.2953    3.0095 H         1 RES1    0.0000
     14 C5         1.4126   10.7935    3.5355 C.ar      1 RES1    0.0000
     15 C6         0.5763    6.9626    0.5007 C.ar      1 RES1    0.0000
     16 H4        -0.1562    6.4904    0.8784 H         1 RES1    0.0000
     17 C7         2.7573    8.3510   -0.6013 C.ar      1 RES1    0.0000
     18 H5         3.4972    8.8202   -0.9678 H         1 RES1    0.0000
     19 C8        -0.0975   11.8790    5.1751 C.ar      1 RES1    0.0000
     20 C9         2.3772   10.0730    1.3275 C.3       1 RES1    0.0000
     21 H6         3.3408   10.1445    1.5436 H         1 RES1    0.0000
     22 H7         2.0893   10.8922    0.8509 H         1 RES1    0.0000
     23 C10        1.2332    6.4749   -0.6311 C.ar      1 RES1    0.0000
     24 H8         0.9367    5.6671   -1.0346 H         1 RES1    0.0000
     25 C11       -2.3747   10.9900    5.4268 C.3       1 RES1    0.0000
     26 H9        -1.9827   10.0929    5.2821 H         1 RES1    0.0000
     27 H10       -2.7783   11.2901    4.5737 H         1 RES1    0.0000
     28 C12        1.0174    8.1530    1.0613 C.ar      1 RES1    0.0000
     29 C13       -1.8498   13.2261    6.2483 C.3       1 RES1    0.0000
     30 H11       -2.2331   13.6972    5.4669 H         1 RES1    0.0000
     31 H12       -1.1129   13.7801    6.6096 H         1 RES1    0.0000
     32 C14        0.9389   12.7754    5.5395 C.ar      1 RES1    0.0000
     33 H13        0.7901   13.4394    6.2018 H         1 RES1    0.0000
     34 C15        0.1635   10.9292    4.1757 C.ar      1 RES1    0.0000
     35 H14       -0.5401   10.3452    3.9164 H         1 RES1    0.0000
     36 C16       -2.9177   13.0559    7.3077 C.3       1 RES1    0.0000
     37 H15       -2.5216   12.6382    8.1129 H         1 RES1    0.0000
     38 H16       -3.2738   13.9440    7.5656 H         1 RES1    0.0000
     39 C17        2.3164    7.1569   -1.1741 C.ar      1 RES1    0.0000
     40 H17        2.7593    6.8090   -1.9395 H         1 RES1    0.0000
     41 C18       -3.4509   10.9066    6.4950 C.3       1 RES1    0.0000
     42 H18       -4.1780   10.3121    6.1812 H         1 RES1    0.0000
     43 H19       -3.0661   10.5091    7.3160 H         1 RES1    0.0000
     44 C19       -5.0547   12.1058    7.8112 C.3       1 RES1    0.0000
     45 H20       -5.7787   11.5442    7.4634 H         1 RES1    0.0000
     46 H21       -5.4063   12.9955    8.0215 H         1 RES1    0.0000
     47 H22       -4.6876   11.6989    8.6238 H         1 RES1    0.0000
@<TRIPOS>BOND
     1    1    3 2
     2    2    3 2
     3    3    9 1
     4    4   36 1
     5    5   19 1
     6    6   11 1
     7    7    8 1
     8    9    7 ar
     9   10   17 ar
    10   11   12 1
    11   13   11 1
    12   14    6 1
    13   15   16 1
    14   17   18 1
    15   19   32 ar
    16   20    6 1
    17   21   20 1
    18   22   20 1
    19   23   15 ar
    20   24   23 1
    21   25    5 1
    22   26   25 1
    23   27   25 1
    24   28   10 ar
    25   29    5 1
    26   30   29 1
    27   31   29 1
    28   32    7 ar
    29   33   32 1
    30   34   14 ar
    31   35   34 1
    32   36   29 1
    33   37   36 1
    34   38   36 1
    35   39   17 ar
    36   40   39 1
    37   41    4 1
    38   42   41 1
    39   43   41 1
    40   44    4 1
    41   45   44 1
    42   46   44 1
    43   47   44 1
    44    9   14 ar
    45   10   20 1
    46   11   28 1
    47   15   28 ar
    48   19   34 ar
    49   23   39 ar
    50   25   41 1
@<TRIPOS>SUBSTRUCTURE
     1 RES1 1

@<TRIPOS>CRYSIN
   9.2516   18.4177   12.6426  90.0000 128.9980  90.0000  14 1

