# MOL2 file generated by ConQuest
# Please check atom types

@<TRIPOS>MOLECULE
ROXSUU
    46    48     1
SMALL
NO_CHARGES
****
Generated from CSD

@<TRIPOS>ATOM
      1 O1        -0.7743    1.2362    0.3806 O.2       1 RES1    0.0000
      2 O2        -2.0757    2.9017    0.8701 O.2       1 RES1    0.0000
      3 N1         1.0433    0.4101    2.1056 N.3       1 RES1    0.0000
      4 C1         2.1242   -0.4654    2.5228 C.3       1 RES1    0.0000
      5 H1         2.2971   -1.1212    1.8026 H         1 RES1    0.0000
      6 H2         1.8323   -0.9695    3.3231 H         1 RES1    0.0000
      7 C2         0.4184    1.2818    2.9284 C.ar      1 RES1    0.0000
      8 N2        -1.1880    2.0932    1.1865 N.pl3     1 RES1    0.0000
      9 C3        -0.7970    3.1381    4.7042 C.ar      1 RES1    0.0000
     10 H3        -1.2011    3.7680    5.2896 H         1 RES1    0.0000
     11 N3         1.9463    3.1914    8.9163 N.3       1 RES1    0.0000
     12 C4         3.4229    0.2530    2.8478 C.ar      1 RES1    0.0000
     13 N4         0.6531    2.3345    6.5077 N.3       1 RES1    0.0000
     14 C5        -0.6455    2.1338    2.5080 C.ar      1 RES1    0.0000
     15 C6         0.2355    2.2821    5.1746 C.ar      1 RES1    0.0000
     16 C7        -1.2049    3.0476    3.4002 C.ar      1 RES1    0.0000
     17 H4        -1.8929    3.6265    3.0932 H         1 RES1    0.0000
     18 C8         0.8197    1.3914    4.2783 C.ar      1 RES1    0.0000
     19 H5         1.5216    0.8310    4.5885 H         1 RES1    0.0000
     20 C9         2.3538    1.9527    8.2710 C.3       1 RES1    0.0000
     21 H6         1.8682    1.1912    8.6764 H         1 RES1    0.0000
     22 H7         3.3238    1.8089    8.4101 H         1 RES1    0.0000
     23 C10        0.1143    3.4293    7.3221 C.3       1 RES1    0.0000
     24 H8        -0.8721    3.4342    7.2470 H         1 RES1    0.0000
     25 H9         0.4493    4.2916    6.9693 H         1 RES1    0.0000
     26 C11        3.9164    1.2573    2.0202 C.ar      1 RES1    0.0000
     27 H10        3.4284    1.5157    1.2473 H         1 RES1    0.0000
     28 C12        0.5012    3.3060    8.7797 C.3       1 RES1    0.0000
     29 H11        0.1844    4.1017    9.2750 H         1 RES1    0.0000
     30 H12        0.0672    2.5068    9.1703 H         1 RES1    0.0000
     31 C13        5.8466    1.5108    3.4462 C.ar      1 RES1    0.0000
     32 H13        6.6700    1.9390    3.6485 H         1 RES1    0.0000
     33 C14        2.0572    2.0095    6.7854 C.3       1 RES1    0.0000
     34 H14        2.6381    2.6922    6.3639 H         1 RES1    0.0000
     35 H15        2.2747    1.1335    6.3775 H         1 RES1    0.0000
     36 C15        4.1561   -0.1101    3.9751 C.ar      1 RES1    0.0000
     37 H16        3.8272   -0.7919    4.5499 H         1 RES1    0.0000
     38 C16        5.3608    0.5129    4.2699 C.ar      1 RES1    0.0000
     39 H17        5.8528    0.2525    5.0392 H         1 RES1    0.0000
     40 C17        5.1207    1.8837    2.3211 C.ar      1 RES1    0.0000
     41 H18        5.4496    2.5714    1.7548 H         1 RES1    0.0000
     42 C18        2.3444    3.2100   10.3199 C.3       1 RES1    0.0000
     43 H19        2.0579    4.0528   10.7294 H         1 RES1    0.0000
     44 H20        3.3199    3.1308   10.3834 H         1 RES1    0.0000
     45 H21        1.9244    2.4588   10.7885 H         1 RES1    0.0000
     46 H22        0.7246    0.3720    1.2837 H         1 RES1    0.0000
@<TRIPOS>BOND
     1    1    8 2
     2    2    8 2
     3    3    4 1
     4    4    5 1
     5    6    4 1
     6    7    3 1
     7    8   14 1
     8    9   10 1
     9   11   20 1
    10   12    4 1
    11   13   15 1
    12   14    7 ar
    13   15    9 ar
    14   16    9 ar
    15   17   16 1
    16   18    7 ar
    17   19   18 1
    18   20   21 1
    19   22   20 1
    20   23   13 1
    21   24   23 1
    22   25   23 1
    23   26   12 ar
    24   27   26 1
    25   28   11 1
    26   29   28 1
    27   30   28 1
    28   31   32 1
    29   33   13 1
    30   34   33 1
    31   35   33 1
    32   36   12 ar
    33   37   36 1
    34   38   31 ar
    35   39   38 1
    36   40   26 ar
    37   41   40 1
    38   42   11 1
    39   43   42 1
    40   44   42 1
    41   45   42 1
    42   46    3 1
    43   14   16 ar
    44   15   18 ar
    45   20   33 1
    46   23   28 1
    47   31   40 ar
    48   36   38 ar
@<TRIPOS>SUBSTRUCTURE
     1 RES1 1

@<TRIPOS>CRYSIN
  14.8320    4.8941   23.9340  90.0000 108.0150  90.0000  14 1

