# MOL2 file generated by ConQuest
# Please check atom types

@<TRIPOS>MOLECULE
ROYVIM
    57    57     2
SMALL
USER_CHARGES
****
Generated from CSD

@<TRIPOS>ATOM
      1 O1        14.9045    0.6528   -5.2396 O.3       1 RES1    0.0000
      2 O2        14.4157    2.4794   -6.4141 O.2       1 RES1    0.0000
      3 O3        12.4059    0.1079   -1.8439 O.2       1 RES1    0.0000
      4 O4         3.9139    1.7351    3.9359 O.2       1 RES1   -1.0000
      5 C1        14.2155    1.7514   -5.5357 C.2       1 RES1    0.0000
      6 N1        10.7136    3.5507  -10.7826 N.1       1 RES1    0.0000
      7 N2        12.6729    2.3262   -2.1380 N.am      1 RES1    0.0000
      8 N3         5.0274    1.7572    3.2893 N.pl3     1 RES1    1.0000
      9 C2        13.1113    1.9362   -4.5296 C.3       1 RES1    0.0000
     10 C3        12.1357    3.0243   -4.9999 C.3       1 RES1    0.0000
     11 C4        11.2676    2.5210   -6.1287 C.ar      1 RES1    0.0000
     12 C5        11.3560    3.0327   -7.3981 C.ar      1 RES1    0.0000
     13 C6        10.5577    2.5326   -8.4273 C.ar      1 RES1    0.0000
     14 C7         9.6777    1.4787   -8.1871 C.ar      1 RES1    0.0000
     15 C8         9.5865    0.9812   -6.9284 C.ar      1 RES1    0.0000
     16 C9        10.3632    1.4861   -5.8976 C.ar      1 RES1    0.0000
     17 C10       15.9487    0.3237   -6.2491 C.3       1 RES1    0.0000
     18 H1        16.3166   -0.5412   -6.0554 H         1 RES1    0.0000
     19 H2        16.6451    0.9834   -6.2157 H         1 RES1    0.0000
     20 H3        15.5552    0.3164   -7.1252 H         1 RES1    0.0000
     21 C11       13.7371    2.1767   -3.1302 C.3       1 RES1    0.0000
     22 C12       14.6840    3.3528   -3.0596 C.3       1 RES1    0.0000
     23 C13       10.6454    3.0938   -9.7450 C.1       1 RES1    0.0000
     24 C14       12.0590    1.2624   -1.6003 C.2       1 RES1    0.0000
     25 C15       10.9209    1.5198   -0.6695 C.ar      1 RES1    0.0000
     26 C16       10.6862    0.5901    0.3360 C.ar      1 RES1    0.0000
     27 C17        9.5881    0.7001    1.1601 C.ar      1 RES1    0.0000
     28 C18        8.6573    1.7145    1.0025 C.ar      1 RES1    0.0000
     29 C19        8.9162    2.6568    0.0089 C.ar      1 RES1    0.0000
     30 C20       10.0289    2.5674   -0.8073 C.ar      1 RES1    0.0000
     31 C21        7.4252    1.7630    1.8252 C.ar      1 RES1    0.0000
     32 C22        7.1459    0.8017    2.8041 C.ar      1 RES1    0.0000
     33 C23        5.9734    0.8260    3.5115 C.ar      1 RES1    0.0000
     34 C24        5.2766    2.7037    2.3647 C.ar      1 RES1    0.0000
     35 C25        6.4328    2.7105    1.6420 C.ar      1 RES1    0.0000
     36 H4        12.4090    3.1533   -1.9428 H         1 RES1    0.0000
     37 H5        12.6635    1.1213   -4.5062 H         1 RES1    0.0000
     38 H6        11.5222    3.3007   -4.2364 H         1 RES1    0.0000
     39 H7        12.6487    3.8429   -5.2570 H         1 RES1    0.0000
     40 H8        12.0079    3.7639   -7.5887 H         1 RES1    0.0000
     41 H9         9.1206    1.0686   -8.9030 H         1 RES1    0.0000
     42 H10        8.9477    0.3159   -6.6887 H         1 RES1    0.0000
     43 H11       10.2829    1.1634   -4.9523 H         1 RES1    0.0000
     44 H12       14.1763    1.4055   -2.8698 H         1 RES1    0.0000
     45 H13       15.4533    3.1585   -3.6523 H         1 RES1    0.0000
     46 H14       15.0239    3.4481   -2.1333 H         1 RES1    0.0000
     47 H15       14.2491    4.1798   -3.2920 H         1 RES1    0.0000
     48 H16       11.2961   -0.0790    0.4651 H         1 RES1    0.0000
     49 H17        9.4819    0.0263    1.8031 H         1 RES1    0.0000
     50 H18        8.2890    3.3954   -0.1571 H         1 RES1    0.0000
     51 H19       10.1314    3.1585   -1.4793 H         1 RES1    0.0000
     52 H20        7.7868    0.0632    3.0190 H         1 RES1    0.0000
     53 H21        5.7837    0.1474    4.2174 H         1 RES1    0.0000
     54 H22        4.5811    3.3691    2.2920 H         1 RES1    0.0000
     55 H23        6.4969    3.3586    1.0079 H         1 RES1    0.0000
     56 O5        14.6919    0.5685   -5.5713 Du        2 SUP2    0.0000
     57 O6        14.7063    2.5742   -6.2729 Du        2 SUP2    0.0000
@<TRIPOS>BOND
     1    1    5 1
     2    2    5 2
     3    3   24 2
     4    4    8 1
     5    5    9 1
     6    6   23 3
     7    7   21 1
     8    8   33 ar
     9    9   10 1
    10   10   11 1
    11   11   12 ar
    12   12   13 ar
    13   13   14 ar
    14   14   15 ar
    15   15   16 ar
    16   16   11 ar
    17   17    1 1
    18   18   17 1
    19   19   17 1
    20   20   17 1
    21   21    9 1
    22   22   21 1
    23   23   13 1
    24   24    7 1
    25   25   24 1
    26   26   25 ar
    27   27   26 ar
    28   28   27 ar
    29   29   28 ar
    30   30   25 ar
    31   31   28 1
    32   32   31 ar
    33   33   32 ar
    34   34    8 ar
    35   35   31 ar
    36   36    7 1
    37   37    9 1
    38   38   10 1
    39   39   10 1
    40   40   12 1
    41   41   14 1
    42   42   15 1
    43   43   16 1
    44   44   21 1
    45   45   22 1
    46   46   22 1
    47   47   22 1
    48   48   26 1
    49   49   27 1
    50   50   29 1
    51   51   30 1
    52   52   32 1
    53   53   33 1
    54   54   34 1
    55   55   35 1
    56   29   30 ar
    57   34   35 ar
@<TRIPOS>SUBSTRUCTURE
     1 RES1 1
     2 SUP2 56

@<TRIPOS>CRYSIN
  26.1795    5.2642   16.1978  90.0000 101.5000  90.0000   5 1

