# MOL2 file generated by ConQuest
# Please check atom types

@<TRIPOS>MOLECULE
ROZVUZ
    22    22     1
SMALL
USER_CHARGES
****
Generated from CSD

@<TRIPOS>ATOM
      1 O1        -1.8703   12.2302    1.1888 O.2       1 RES1    0.0000
      2 O2         0.3955    9.8960    3.5283 O.3       1 RES1    0.0000
      3 O3         1.9839   10.4380    5.0371 O.2       1 RES1   -1.0000
      4 O4         0.9957   14.4193    3.9969 O.2       1 RES1    0.0000
      5 N1         2.3178   13.1863    5.3338 N.am      1 RES1    0.0000
      6 H1         2.5819   12.3863    5.5894 H         1 RES1    0.0000
      7 N2        -0.4474   10.5667    2.6885 N.2       1 RES1    0.0000
      8 N3        -0.8948   14.0511    2.1256 N.am      1 RES1    0.0000
      9 H2        -0.3113   14.3345    2.7209 H         1 RES1    0.0000
     10 N4         1.1672   10.8712    4.2433 N.pl3     1 RES1    1.0000
     11 C1         2.9015   14.3832    5.9248 C.3       1 RES1    0.0000
     12 H3         3.5980   14.1246    6.5647 H         1 RES1    0.0000
     13 H4         2.2041   14.8928    6.3884 H         1 RES1    0.0000
     14 H5         3.2954   14.9373    5.2185 H         1 RES1    0.0000
     15 C2         1.3788   13.3216    4.4020 C.2       1 RES1    0.0000
     16 C3         0.7840   12.0728    3.8383 C.2       1 RES1    0.0000
     17 C4        -0.2310   11.8463    2.8466 C.2       1 RES1    0.0000
     18 C5        -1.0757   12.7514    1.9648 C.2       1 RES1    0.0000
     19 C6        -1.6396   15.0227    1.3402 C.3       1 RES1    0.0000
     20 H6        -1.5489   15.9091    1.7468 H         1 RES1    0.0000
     21 H7        -2.5857   14.7687    1.3187 H         1 RES1    0.0000
     22 H8        -1.2858   15.0439    0.4270 H         1 RES1    0.0000
@<TRIPOS>BOND
     1    1   18 2
     2    2    7 1
     3    3   10 1
     4    4   15 2
     5    5    6 1
     6    7   17 2
     7    8    9 1
     8   10    2 1
     9   11    5 1
    10   12   11 1
    11   13   11 1
    12   14   11 1
    13   15    5 1
    14   16   10 2
    15   17   16 1
    16   18    8 1
    17   19    8 1
    18   20   19 1
    19   21   19 1
    20   22   19 1
    21   15   16 1
    22   17   18 1
@<TRIPOS>SUBSTRUCTURE
     1 RES1 1

@<TRIPOS>CRYSIN
   4.6088   15.9043   11.5802  90.0000  98.7100  90.0000 231 1

