# MOL2 file generated by ConQuest
# Please check atom types

@<TRIPOS>MOLECULE
RRMBXZ
    42    45     1
SMALL
NO_CHARGES
****
Generated from CSD

@<TRIPOS>ATOM
      1 O1        -8.8181    2.1783    2.5735 O.3       1 RES1    0.0000
      2 N1        -7.7952    2.0866    3.6915 N.3       1 RES1    0.0000
      3 C1        -7.0590    3.7250    1.8308 C.ar      1 RES1    0.0000
      4 C2        -5.7719    4.2390    2.0299 C.ar      1 RES1    0.0000
      5 C3        -5.4404    5.4823    1.5655 C.ar      1 RES1    0.0000
      6 C4        -6.3789    6.2397    0.8873 C.ar      1 RES1    0.0000
      7 C5        -7.6360    5.7575    0.6674 C.ar      1 RES1    0.0000
      8 C6        -7.9901    4.4907    1.1410 C.ar      1 RES1    0.0000
      9 C7        -6.8079    1.1762    1.6147 C.ar      1 RES1    0.0000
     10 C8        -5.7626    1.2891    0.7074 C.ar      1 RES1    0.0000
     11 C9        -5.2362    0.1658    0.1046 C.ar      1 RES1    0.0000
     12 C10       -5.7401   -1.0868    0.3852 C.ar      1 RES1    0.0000
     13 C11       -6.7798   -1.2127    1.2841 C.ar      1 RES1    0.0000
     14 C12       -7.3006   -0.0929    1.8892 C.ar      1 RES1    0.0000
     15 C13       -9.1403    2.9264    5.5253 C.ar      1 RES1    0.0000
     16 C14       -9.1291    1.8043    6.3334 C.ar      1 RES1    0.0000
     17 C15      -10.1875    1.5385    7.1846 C.ar      1 RES1    0.0000
     18 C16      -11.2629    2.3783    7.2161 C.ar      1 RES1    0.0000
     19 C17      -11.2685    3.5298    6.4588 C.ar      1 RES1    0.0000
     20 C18      -10.2063    3.7874    5.6045 C.ar      1 RES1    0.0000
     21 C19       -7.9769    3.2287    4.6057 C.3       1 RES1    0.0000
     22 C20       -6.6618    3.3898    5.3746 C.3       1 RES1    0.0000
     23 C21       -7.4374    2.3618    2.2990 C.3       1 RES1    0.0000
     24 H1        -5.0769    3.5874    2.6296 H         1 RES1    0.0000
     25 H2        -4.5524    5.6810    1.6454 H         1 RES1    0.0000
     26 H3        -6.1635    7.0102    0.6151 H         1 RES1    0.0000
     27 H4        -8.2617    6.2809    0.2768 H         1 RES1    0.0000
     28 H5        -8.8612    4.1167    0.9688 H         1 RES1    0.0000
     29 H6        -5.4141    2.2113    0.3537 H         1 RES1    0.0000
     30 H7        -4.5524    0.2588   -0.5075 H         1 RES1    0.0000
     31 H8        -5.3392   -1.8584    0.0000 H         1 RES1    0.0000
     32 H9        -7.2501   -2.1642    1.4609 H         1 RES1    0.0000
     33 H10       -7.9807   -0.1411    2.4528 H         1 RES1    0.0000
     34 H11       -8.2992    1.0821    6.2512 H         1 RES1    0.0000
     35 H12      -10.1351    0.7292    7.8428 H         1 RES1    0.0000
     36 H13      -12.0272    2.1995    7.5660 H         1 RES1    0.0000
     37 H14      -12.1209    4.3167    6.5126 H         1 RES1    0.0000
     38 H15      -10.2100    4.5754    4.9286 H         1 RES1    0.0000
     39 H16       -8.1118    4.1637    4.0752 H         1 RES1    0.0000
     40 H17       -5.9387    3.8227    4.7826 H         1 RES1    0.0000
     41 H18       -6.3321    2.4465    5.6899 H         1 RES1    0.0000
     42 H19       -6.7442    4.0579    6.1128 H         1 RES1    0.0000
@<TRIPOS>BOND
     1    1    2 1
     2    2   21 1
     3    3    4 ar
     4    4    5 ar
     5    5    6 ar
     6    6    7 ar
     7    7    8 ar
     8    8    3 ar
     9    9   10 ar
    10   10   11 ar
    11   11   12 ar
    12   12   13 ar
    13   13   14 ar
    14   14    9 ar
    15   15   16 ar
    16   16   17 ar
    17   17   18 ar
    18   18   19 ar
    19   19   20 ar
    20   20   15 ar
    21   21   15 1
    22   22   21 1
    23   23    1 1
    24   24    4 1
    25   25    5 1
    26   26    6 1
    27   27    7 1
    28   28    8 1
    29   29   10 1
    30   30   11 1
    31   31   12 1
    32   32   13 1
    33   33   14 1
    34   34   16 1
    35   35   17 1
    36   36   18 1
    37   37   19 1
    38   38   20 1
    39   39   21 1
    40   40   22 1
    41   41   22 1
    42   42   22 1
    43    2   23 1
    44    3   23 1
    45    9   23 1
@<TRIPOS>SUBSTRUCTURE
     1 RES1 1

@<TRIPOS>CRYSIN
  18.7340   11.7620    7.6890  90.0000  90.0000  90.0000  19 1

