# MOL2 file generated by ConQuest
# Please check atom types

@<TRIPOS>MOLECULE
RUCPIQ
    56    60     1
SMALL
NO_CHARGES
****
Generated from CSD

@<TRIPOS>ATOM
      1 O1         5.0924   13.0435    2.3763 O.3       1 RES1    0.0000
      2 O2         6.7519   10.7824    1.0537 O.3       1 RES1    0.0000
      3 O3         4.6123   10.1545    1.1193 O.2       1 RES1    0.0000
      4 O4         6.6843    4.5117   -0.5199 O.3       1 RES1    0.0000
      5 O5         5.4833   13.7953    4.4351 O.2       1 RES1    0.0000
      6 C1         7.5281    3.3629   -0.5830 C.3       1 RES1    0.0000
      7 H1         8.4444    3.6432   -0.6488 H         1 RES1    0.0000
      8 H2         7.2981    2.8390   -1.3518 H         1 RES1    0.0000
      9 H3         7.4117    2.8370    0.2112 H         1 RES1    0.0000
     10 O6         9.5176    3.0095    8.8147 O.2       1 RES1    0.0000
     11 O7         8.0466    1.8489    7.8277 O.2       1 RES1    0.0000
     12 N1         8.5991    2.8921    8.0344 N.pl3     1 RES1    0.0000
     13 N2         6.2407    9.7194    5.1854 N.pl3     1 RES1    0.0000
     14 C2         6.1599    9.2469    3.9202 C.2       1 RES1    0.0000
     15 C3         8.1728    4.0924    7.2979 C.ar      1 RES1    0.0000
     16 C4         7.3378    6.3535    5.9761 C.ar      1 RES1    0.0000
     17 C5         6.8737    7.5972    5.3343 C.2       1 RES1    0.0000
     18 C6         5.6317   10.4271    1.6692 C.2       1 RES1    0.0000
     19 C7         8.2812    6.4294    6.9804 C.ar      1 RES1    0.0000
     20 H4         8.6462    7.2559    7.2032 H         1 RES1    0.0000
     21 C8         6.6507    6.9746    2.8190 C.ar      1 RES1    0.0000
     22 C9         6.5643    7.8681    3.9906 C.2       1 RES1    0.0000
     23 C10        5.8151   10.3674    3.1341 C.2       1 RES1    0.0000
     24 C11        8.6909    5.3015    7.6581 C.ar      1 RES1    0.0000
     25 H5         9.3102    5.3644    8.3507 H         1 RES1    0.0000
     26 C12        7.6303    5.9919    2.6954 C.ar      1 RES1    0.0000
     27 H6         8.2676    5.8973    3.3661 H         1 RES1    0.0000
     28 C13        6.6588    8.7993    6.0974 C.2       1 RES1    0.0000
     29 C14        5.7085   11.4917    3.9918 C.2       1 RES1    0.0000
     30 C15        5.8291    6.3252    0.6603 C.ar      1 RES1    0.0000
     31 H7         5.2373    6.4595   -0.0450 H         1 RES1    0.0000
     32 C16        5.9863   11.0499    5.3205 C.2       1 RES1    0.0000
     33 C17        5.7686    7.1335    1.7673 C.ar      1 RES1    0.0000
     34 H8         5.1214    7.8002    1.8100 H         1 RES1    0.0000
     35 C18        6.7678    5.3085    0.5876 C.ar      1 RES1    0.0000
     36 C19        6.0966   11.5317    6.6099 C.2       1 RES1    0.0000
     37 H9         5.9378   12.4287    6.7992 H         1 RES1    0.0000
     38 C20        6.8406    5.0973    5.6391 C.ar      1 RES1    0.0000
     39 H10        6.2182    5.0235    4.9511 H         1 RES1    0.0000
     40 C21        5.4220   12.8819    3.6524 C.2       1 RES1    0.0000
     41 C22        7.2490    3.9617    6.3017 C.ar      1 RES1    0.0000
     42 H11        6.9037    3.1272    6.0766 H         1 RES1    0.0000
     43 C23        6.7309    9.2981    7.3856 C.2       1 RES1    0.0000
     44 H12        6.9647    8.7416    8.0933 H         1 RES1    0.0000
     45 C24        7.6771    5.1577    1.6011 C.ar      1 RES1    0.0000
     46 H13        8.3255    4.4933    1.5503 H         1 RES1    0.0000
     47 C25        6.4487   10.6497    7.6096 C.2       1 RES1    0.0000
     48 H14        6.5006   10.9706    8.4800 H         1 RES1    0.0000
     49 C26        4.8852   14.4068    1.9590 C.3       1 RES1    0.0000
     50 H15        4.0834   14.7467    2.3630 H         1 RES1    0.0000
     51 H16        4.8005   14.4394    1.0031 H         1 RES1    0.0000
     52 H17        5.6331   14.9430    2.2325 H         1 RES1    0.0000
     53 C27        6.6519   10.9349   -0.3775 C.3       1 RES1    0.0000
     54 H18        6.4315   10.0898   -0.7746 H         1 RES1    0.0000
     55 H19        7.4919   11.2428   -0.7261 H         1 RES1    0.0000
     56 H20        5.9666   11.5749   -0.5841 H         1 RES1    0.0000
@<TRIPOS>BOND
     1    1   40 1
     2    2   18 1
     3    3   18 2
     4    4    6 1
     5    5   40 2
     6    6    7 1
     7    8    6 1
     8    9    6 1
     9   10   12 2
    10   11   12 2
    11   12   15 1
    12   13   14 1
    13   14   22 1
    14   15   24 ar
    15   16   17 1
    16   17   22 2
    17   18   23 1
    18   19   16 ar
    19   20   19 1
    20   21   22 1
    21   23   14 2
    22   24   19 ar
    23   25   24 1
    24   26   21 ar
    25   27   26 1
    26   28   13 1
    27   29   23 1
    28   30   31 1
    29   32   13 1
    30   33   21 ar
    31   34   33 1
    32   35    4 1
    33   36   32 1
    34   37   36 1
    35   38   16 ar
    36   39   38 1
    37   40   29 1
    38   41   15 ar
    39   42   41 1
    40   43   28 2
    41   44   43 1
    42   45   26 ar
    43   46   45 1
    44   47   36 2
    45   48   47 1
    46   49    1 1
    47   50   49 1
    48   51   49 1
    49   52   49 1
    50   53    2 1
    51   54   53 1
    52   55   53 1
    53   56   53 1
    54   17   28 1
    55   29   32 2
    56   30   33 ar
    57   30   35 ar
    58   35   45 ar
    59   38   41 ar
    60   43   47 1
@<TRIPOS>SUBSTRUCTURE
     1 RES1 1

@<TRIPOS>CRYSIN
   8.3310   11.6590   12.6230  66.5200  85.5600  88.9900   2 1

