# MOL2 file generated by ConQuest
# Please check atom types

@<TRIPOS>MOLECULE
RUCTUF
    42    43     1
SMALL
NO_CHARGES
****
Generated from CSD

@<TRIPOS>ATOM
      1 O1         5.1372   12.4703   13.6266 O.3       1 RES1    0.0000
      2 H1         4.8808   12.0290   14.3625 H         1 RES1    0.0000
      3 O2         4.3324   10.5752   15.1640 O.2       1 RES1    0.0000
      4 O3         3.9694    8.5422   14.2944 O.3       1 RES1    0.0000
      5 O4         6.4993   13.5383    9.8766 O.2       1 RES1    0.0000
      6 O5         5.5923    7.5152    9.9503 O.2       1 RES1    0.0000
      7 O6         5.6584    6.5021    7.6486 O.3       1 RES1    0.0000
      8 H2         5.6737    6.5574    8.5395 H         1 RES1    0.0000
      9 N1         3.6463   11.2578    5.5899 N.pl3     1 RES1    0.0000
     10 O7         3.3838   12.1890    6.3414 O.2       1 RES1    0.0000
     11 O8         3.5190   11.3173    4.3688 O.2       1 RES1    0.0000
     12 C1         5.1156   11.5830   12.6278 C.ar      1 RES1    0.0000
     13 C2         4.7296   10.2375   12.8473 C.ar      1 RES1    0.0000
     14 C3         4.7535    9.3299   11.8022 C.ar      1 RES1    0.0000
     15 H3         4.5132    8.4254   11.9657 H         1 RES1    0.0000
     16 C4         5.1237    9.7178   10.5129 C.ar      1 RES1    0.0000
     17 C5         5.4957   11.0429   10.3039 C.ar      1 RES1    0.0000
     18 H4         5.7508   11.3153    9.4299 H         1 RES1    0.0000
     19 C6         5.5076   11.9847   11.3317 C.ar      1 RES1    0.0000
     20 C7         5.2343    8.6193    9.5093 C.2       1 RES1    0.0000
     21 C8         4.9303    8.7728    8.0781 C.ar      1 RES1    0.0000
     22 C9         4.3819    9.9446    7.5266 C.ar      1 RES1    0.0000
     23 H5         4.1705   10.6834    8.0857 H         1 RES1    0.0000
     24 C10        4.1536   10.0139    6.1705 C.ar      1 RES1    0.0000
     25 C11        4.4064    8.9379    5.3196 C.ar      1 RES1    0.0000
     26 H6         4.2260    9.0082    4.3903 H         1 RES1    0.0000
     27 C12        4.9185    7.7769    5.8402 C.ar      1 RES1    0.0000
     28 H7         5.0947    7.0400    5.2671 H         1 RES1    0.0000
     29 C13        5.1831    7.6700    7.2115 C.ar      1 RES1    0.0000
     30 C14        4.3327    9.8118   14.2078 C.2       1 RES1    0.0000
     31 C15        3.6716    8.0514   15.6469 C.3       1 RES1    0.0000
     32 H8         2.9155    8.5580   16.0362 H         1 RES1    0.0000
     33 H9         4.4612    8.1632   16.2330 H         1 RES1    0.0000
     34 C16        3.3172    6.6026   15.5269 C.3       1 RES1    0.0000
     35 H10        2.5010    6.5096   14.9921 H         1 RES1    0.0000
     36 H11        3.1667    6.2279   16.4199 H         1 RES1    0.0000
     37 H12        4.0509    6.1215   15.0905 H         1 RES1    0.0000
     38 C17        5.9790   13.3708   10.9641 C.2       1 RES1    0.0000
     39 C18        5.8015   14.5195   11.9103 C.3       1 RES1    0.0000
     40 H13        6.0439   15.3549   11.4590 H         1 RES1    0.0000
     41 H14        6.3783   14.3908   12.6912 H         1 RES1    0.0000
     42 H15        4.8658   14.5630   12.1993 H         1 RES1    0.0000
@<TRIPOS>BOND
     1    1    2 1
     2    3   30 2
     3    4   30 1
     4    5   38 2
     5    6   20 2
     6    7    8 1
     7    9   10 2
     8   11    9 2
     9   12    1 1
    10   13   12 ar
    11   14   13 ar
    12   15   14 1
    13   16   14 ar
    14   17   16 ar
    15   18   17 1
    16   19   12 ar
    17   20   16 1
    18   21   20 1
    19   22   21 ar
    20   23   22 1
    21   24    9 1
    22   25   24 ar
    23   26   25 1
    24   27   25 ar
    25   28   27 1
    26   29    7 1
    27   30   13 1
    28   31    4 1
    29   32   31 1
    30   33   31 1
    31   34   31 1
    32   35   34 1
    33   36   34 1
    34   37   34 1
    35   38   19 1
    36   39   38 1
    37   40   39 1
    38   41   39 1
    39   42   39 1
    40   17   19 ar
    41   21   29 ar
    42   22   24 ar
    43   27   29 ar
@<TRIPOS>SUBSTRUCTURE
     1 RES1 1

@<TRIPOS>CRYSIN
   7.1158    9.5538   12.5740  81.2300  80.7100  82.2600   2 1

