# MOL2 file generated by ConQuest
# Please check atom types

@<TRIPOS>MOLECULE
RUCTAL
    33    33     1
SMALL
NO_CHARGES
****
Generated from CSD

@<TRIPOS>ATOM
      1 O1         5.2038   -2.1048    6.0032 O.2       1 RES1    0.0000
      2 N1         5.5867   -1.2393    6.8099 N.pl3     1 RES1    0.0000
      3 C1         6.5616   -0.2445    6.3970 C.ar      1 RES1    0.0000
      4 O2         5.1619   -1.1977    7.9652 O.2       1 RES1    0.0000
      5 N2         6.4377   -0.8766    4.0386 N.3       1 RES1    0.0000
      6 C2         7.0601    0.5651    7.4102 C.ar      1 RES1    0.0000
      7 H1         6.7743    0.4292    8.3064 H         1 RES1    0.0000
      8 O3         9.1071   -0.1141    2.9962 O.2       1 RES1    0.0000
      9 N3         8.9789    2.1352    2.9570 N.am      1 RES1    0.0000
     10 H2         8.6281    2.8612    3.3104 H         1 RES1    0.0000
     11 C3         7.9611    1.5589    7.1264 C.ar      1 RES1    0.0000
     12 H3         8.2875    2.1261    7.8153 H         1 RES1    0.0000
     13 C4         8.3901    1.7223    5.8132 C.ar      1 RES1    0.0000
     14 H4         9.0161    2.4092    5.6165 H         1 RES1    0.0000
     15 C5         7.9339    0.9157    4.7832 C.ar      1 RES1    0.0000
     16 C6         6.9525   -0.0923    5.0342 C.ar      1 RES1    0.0000
     17 C7         6.2264   -0.4398    2.6456 C.3       1 RES1    0.0000
     18 H5         7.0223   -0.6519    2.0973 H         1 RES1    0.0000
     19 H6         6.0744    0.5377    2.6140 H         1 RES1    0.0000
     20 C8         5.0288   -1.1653    2.1185 C.2       1 RES1    0.0000
     21 H7         4.1823   -0.9649    2.4986 H         1 RES1    0.0000
     22 C9         5.0804   -2.0596    1.1630 C.2       1 RES1    0.0000
     23 H8         5.9130   -2.2808    0.7640 H         1 RES1    0.0000
     24 H9         4.2839   -2.4873    0.8702 H         1 RES1    0.0000
     25 C10        8.6923    0.9344    3.4923 C.2       1 RES1    0.0000
     26 C11        9.8605    2.2539    1.8014 C.3       1 RES1    0.0000
     27 H10       10.5080    1.5047    1.8103 H         1 RES1    0.0000
     28 H11       10.3743    3.0976    1.8722 H         1 RES1    0.0000
     29 C12        9.1191    2.2413    0.5039 C.2       1 RES1    0.0000
     30 H12        8.5593    1.4970    0.3173 H         1 RES1    0.0000
     31 C13        9.1943    3.1945   -0.3884 C.2       1 RES1    0.0000
     32 H13        9.7455    3.9519   -0.2298 H         1 RES1    0.0000
     33 H14        8.6970    3.1290   -1.1956 H         1 RES1    0.0000
@<TRIPOS>BOND
     1    1    2 2
     2    2    3 1
     3    3    6 ar
     4    4    2 2
     5    5   16 1
     6    6    7 1
     7    8   25 2
     8    9   10 1
     9   11    6 ar
    10   12   11 1
    11   13   11 ar
    12   14   13 1
    13   15   13 ar
    14   16    3 ar
    15   17    5 1
    16   18   17 1
    17   19   17 1
    18   20   17 1
    19   21   20 1
    20   22   20 2
    21   23   22 1
    22   24   22 1
    23   25    9 1
    24   26    9 1
    25   27   26 1
    26   28   26 1
    27   29   26 1
    28   30   29 1
    29   31   29 2
    30   32   31 1
    31   33   31 1
    32   15   16 ar
    33   15   25 1
@<TRIPOS>SUBSTRUCTURE
     1 RES1 1

@<TRIPOS>CRYSIN
  11.1000    5.0730   11.9100  90.0000 101.6510  90.0000   4 1

