# MOL2 file generated by ConQuest
# Please check atom types

@<TRIPOS>MOLECULE
RUGJUZ
    16    16     1
SMALL
NO_CHARGES
****
Generated from CSD

@<TRIPOS>ATOM
      1 C1         2.2965    9.3720    1.8724 C.2       1 RES1    0.0000
      2 H1         2.7347    9.8019    1.1741 H         1 RES1    0.0000
      3 C2         1.1524    9.0356    3.6005 C.2       1 RES1    0.0000
      4 C3         1.5503    7.8078    3.1555 C.2       1 RES1    0.0000
      5 C4         2.9694    7.0944    1.1361 C.3       1 RES1    0.0000
      6 H2         3.3269    7.5724    0.3839 H         1 RES1    0.0000
      7 H3         2.3385    6.4393    0.8283 H         1 RES1    0.0000
      8 H4         3.6819    6.6569    1.6060 H         1 RES1    0.0000
      9 N1         2.2948    8.0381    2.0385 N.3       1 RES1    0.0000
     10 N2         1.6109   10.0067    2.8031 N.2       1 RES1    0.0000
     11 N3         1.3047    6.5004    3.6595 N.pl3     1 RES1    0.0000
     12 N4         0.4450    9.3821    4.8015 N.pl3     1 RES1    0.0000
     13 O1         2.0996    5.6287    3.3570 O.2       1 RES1    0.0000
     14 O2         0.3112    6.3331    4.3322 O.2       1 RES1    0.0000
     15 O3         0.6023    8.6929    5.7964 O.2       1 RES1    0.0000
     16 O4        -0.2524   10.3836    4.7733 O.2       1 RES1    0.0000
@<TRIPOS>BOND
     1    1    2 1
     2    3    4 2
     3    4    9 1
     4    5    6 1
     5    7    5 1
     6    8    5 1
     7    9    1 1
     8   10    1 2
     9   11    4 1
    10   12    3 1
    11   13   11 2
    12   14   11 2
    13   15   12 2
    14   16   12 2
    15    3   10 1
    16    5    9 1
@<TRIPOS>SUBSTRUCTURE
     1 RES1 1

@<TRIPOS>CRYSIN
   8.4120   12.6460    6.5630  90.0000  90.0000  90.0000  33 1

