# MOL2 file generated by ConQuest
# Please check atom types

@<TRIPOS>MOLECULE
RUGKAG01
    31    32     1
SMALL
NO_CHARGES
****
Generated from CSD

@<TRIPOS>ATOM
      1 C1        10.8666    4.9237   -2.0115 C.3       1 RES1    0.0000
      2 H1        11.3613    4.2232   -1.5790 H         1 RES1    0.0000
      3 H2        11.3174    5.1834   -2.8176 H         1 RES1    0.0000
      4 H3         9.9861    4.6080   -2.2256 H         1 RES1    0.0000
      5 C2        11.8134    7.0695   -1.2460 C.3       1 RES1    0.0000
      6 H4        11.4202    7.9151   -1.4751 H         1 RES1    0.0000
      7 H5        12.4287    6.8055   -1.9331 H         1 RES1    0.0000
      8 H6        12.2813    7.1498   -0.4115 H         1 RES1    0.0000
      9 C3         9.8262    6.1454   -0.1468 C.ar      1 RES1    0.0000
     10 C4         9.7341    7.2781    0.6976 C.ar      1 RES1    0.0000
     11 H7        10.3210    7.9892    0.5742 H         1 RES1    0.0000
     12 C5         8.7992    7.3410    1.6886 C.ar      1 RES1    0.0000
     13 H8         8.7640    8.1019    2.2229 H         1 RES1    0.0000
     14 C6         7.8849    6.2999    1.9343 C.ar      1 RES1    0.0000
     15 C7         7.9728    5.1765    1.0838 C.ar      1 RES1    0.0000
     16 H9         7.3852    4.4672    1.2085 H         1 RES1    0.0000
     17 C8         8.8996    5.1043    0.0813 C.ar      1 RES1    0.0000
     18 H10        8.9209    4.3508   -0.4634 H         1 RES1    0.0000
     19 C9         6.9535    6.4792    2.9926 C.2       1 RES1    0.0000
     20 H11        7.0629    7.2893    3.4369 H         1 RES1    0.0000
     21 C10        5.9273    5.7232    3.5071 C.2       1 RES1    0.0000
     22 C11        5.3921    4.4274    3.1291 C.2       1 RES1    0.0000
     23 C12        5.1149    6.1180    4.6306 C.2       1 RES1    0.0000
     24 C13        5.2486    7.3553    5.4439 C.3       1 RES1    0.0000
     25 H12        4.6477    7.3136    6.1916 H         1 RES1    0.0000
     26 H13        5.0341    8.1188    4.9024 H         1 RES1    0.0000
     27 H14        6.1514    7.4332    5.7623 H         1 RES1    0.0000
     28 N1        10.7682    6.0682   -1.1209 N.pl3     1 RES1    0.0000
     29 N2         4.1952    5.2662    4.9225 N.2       1 RES1    0.0000
     30 O1         5.6825    3.5980    2.3014 O.2       1 RES1    0.0000
     31 O2         4.3280    4.1821    3.9706 O.3       1 RES1    0.0000
@<TRIPOS>BOND
     1    1    2 1
     2    3    1 1
     3    4    1 1
     4    5    6 1
     5    7    5 1
     6    8    5 1
     7    9   10 ar
     8   10   11 1
     9   12   10 ar
    10   13   12 1
    11   14   12 ar
    12   15   14 ar
    13   16   15 1
    14   17    9 ar
    15   18   17 1
    16   19   14 1
    17   20   19 1
    18   21   19 2
    19   22   21 1
    20   23   21 1
    21   24   23 1
    22   25   24 1
    23   26   24 1
    24   27   24 1
    25   28    1 1
    26   29   23 2
    27   30   22 2
    28   31   22 1
    29    5   28 1
    30    9   28 1
    31   15   17 ar
    32   29   31 1
@<TRIPOS>SUBSTRUCTURE
     1 RES1 1

@<TRIPOS>CRYSIN
  13.9750    6.2270   15.0990  90.0000 115.1200  90.0000 231 1

