# MOL2 file generated by ConQuest
# Please check atom types

@<TRIPOS>MOLECULE
RUGMEM
    43    46     1
SMALL
NO_CHARGES
****
Generated from CSD

@<TRIPOS>ATOM
      1 O1        -2.9393    5.2133   -0.4215 O.3       1 RES1    0.0000
      2 O2        -0.0875    7.4585    2.3422 O.2       1 RES1    0.0000
      3 O3        -6.3640    5.6681   -0.3503 O.2       1 RES1    0.0000
      4 O4        -5.1295    4.4327   -1.6511 O.2       1 RES1    0.0000
      5 N1         0.9388    4.9220   -1.2578 N.pl3     1 RES1    0.0000
      6 N2        -0.4156    4.9371   -1.1180 N.2       1 RES1    0.0000
      7 N3        -5.2726    5.2091   -0.7108 N.pl3     1 RES1    0.0000
      8 C1         3.0857    5.8340    2.4892 C.ar      1 RES1    0.0000
      9 H1         2.8610    5.0174    2.1044 H         1 RES1    0.0000
     10 C2         4.3121    5.9877    3.1254 C.ar      1 RES1    0.0000
     11 H2         4.8907    5.2613    3.1797 H         1 RES1    0.0000
     12 C3         4.6934    7.2034    3.6835 C.ar      1 RES1    0.0000
     13 C4         3.8057    8.2692    3.5932 C.ar      1 RES1    0.0000
     14 H3         4.0490    9.0963    3.9421 H         1 RES1    0.0000
     15 C5         2.5677    8.1238    2.9952 C.ar      1 RES1    0.0000
     16 H4         1.9797    8.8433    2.9691 H         1 RES1    0.0000
     17 C6         2.1937    6.8989    2.4282 C.ar      1 RES1    0.0000
     18 C7         0.8240    6.8081    1.8374 C.2       1 RES1    0.0000
     19 C8         0.5941    5.9945    0.6367 C.2       1 RES1    0.0000
     20 C9        -0.6337    5.5999    0.0211 C.2       1 RES1    0.0000
     21 C10       -2.0250    5.8332    0.3998 C.2       1 RES1    0.0000
     22 C11       -2.6649    6.5808    1.3387 C.2       1 RES1    0.0000
     23 H5        -2.2684    7.0732    2.0202 H         1 RES1    0.0000
     24 C12       -4.0509    6.4634    1.0769 C.2       1 RES1    0.0000
     25 H6        -4.7484    6.8686    1.5387 H         1 RES1    0.0000
     26 C13       -4.1422    5.6438    0.0197 C.2       1 RES1    0.0000
     27 C14        1.5598    5.5310   -0.2327 C.2       1 RES1    0.0000
     28 H7         2.4797    5.6241   -0.1284 H         1 RES1    0.0000
     29 C15        1.5208    4.3084   -2.4144 C.ar      1 RES1    0.0000
     30 C16        0.7165    3.5949   -3.2808 C.ar      1 RES1    0.0000
     31 H8        -0.1988    3.5328   -3.1276 H         1 RES1    0.0000
     32 C17        1.2833    2.9723   -4.3816 C.ar      1 RES1    0.0000
     33 H9         0.7469    2.4807   -4.9612 H         1 RES1    0.0000
     34 C18        2.6391    3.0768   -4.6225 C.ar      1 RES1    0.0000
     35 H10        3.0157    2.6632   -5.3644 H         1 RES1    0.0000
     36 C19        3.4324    3.8002   -3.7547 C.ar      1 RES1    0.0000
     37 H11        4.3452    3.8714   -3.9180 H         1 RES1    0.0000
     38 C20        2.8834    4.4228   -2.6421 C.ar      1 RES1    0.0000
     39 H12        3.4211    4.9091   -2.0583 H         1 RES1    0.0000
     40 C21        6.0174    7.3746    4.3806 C.3       1 RES1    0.0000
     41 H13        6.4502    8.1684    4.0564 H         1 RES1    0.0000
     42 H14        6.5733    6.6119    4.2029 H         1 RES1    0.0000
     43 H15        5.8737    7.4519    5.3263 H         1 RES1    0.0000
@<TRIPOS>BOND
     1    1   21 1
     2    2   18 2
     3    3    7 2
     4    4    7 2
     5    5    6 1
     6    6   20 2
     7    7   26 1
     8    8    9 1
     9   10    8 ar
    10   11   10 1
    11   12   10 ar
    12   13   12 ar
    13   14   13 1
    14   15   13 ar
    15   16   15 1
    16   17    8 ar
    17   18   17 1
    18   19   18 1
    19   20   19 1
    20   21   20 1
    21   22   21 2
    22   23   22 1
    23   24   22 1
    24   25   24 1
    25   26    1 1
    26   27    5 1
    27   28   27 1
    28   29    5 1
    29   30   29 ar
    30   31   30 1
    31   32   30 ar
    32   33   32 1
    33   34   32 ar
    34   35   34 1
    35   36   34 ar
    36   37   36 1
    37   38   29 ar
    38   39   38 1
    39   40   12 1
    40   41   40 1
    41   42   40 1
    42   43   40 1
    43   15   17 ar
    44   19   27 2
    45   24   26 2
    46   36   38 ar
@<TRIPOS>SUBSTRUCTURE
     1 RES1 1

@<TRIPOS>CRYSIN
  11.3859    7.5746   21.0008  90.0000 107.2020  90.0000  14 1

