# MOL2 file generated by ConQuest
# Please check atom types

@<TRIPOS>MOLECULE
RUGNIR
    20    20     1
SMALL
NO_CHARGES
****
Generated from CSD

@<TRIPOS>ATOM
      1 O1         0.3443   11.4316    4.3536 O.3       1 RES1    0.0000
      2 O2        -0.7135   10.1714    5.8952 O.2       1 RES1    0.0000
      3 O3         0.2493    4.8174    1.5284 O.2       1 RES1    0.0000
      4 O4         0.9840    6.2080    0.0338 O.2       1 RES1    0.0000
      5 N1         0.5465    5.9513    1.1531 N.pl3     1 RES1    0.0000
      6 C1         0.5316    9.3958    2.5672 C.ar      1 RES1    0.0000
      7 H1         0.7401   10.2825    2.2977 H         1 RES1    0.0000
      8 C2         0.7007    8.3453    1.6774 C.ar      1 RES1    0.0000
      9 H2         1.0317    8.4964    0.7997 H         1 RES1    0.0000
     10 C3         0.3728    7.0670    2.1049 C.ar      1 RES1    0.0000
     11 C4        -0.1107    6.7937    3.3792 C.ar      1 RES1    0.0000
     12 H3        -0.3299    5.9070    3.6391 H         1 RES1    0.0000
     13 C5        -0.2630    7.8551    4.2601 C.ar      1 RES1    0.0000
     14 H4        -0.5851    7.6965    5.1398 H         1 RES1    0.0000
     15 C6         0.0546    9.1545    3.8598 C.ar      1 RES1    0.0000
     16 C7        -0.1542   10.2778    4.8263 C.2       1 RES1    0.0000
     17 C8         0.1126   12.6009    5.1823 C.3       1 RES1    0.0000
     18 H5        -0.8477   12.6908    5.3590 H         1 RES1    0.0000
     19 H6         0.4354   13.4001    4.7161 H         1 RES1    0.0000
     20 H7         0.5929   12.5011    6.0303 H         1 RES1    0.0000
@<TRIPOS>BOND
     1    1   16 1
     2    2   16 2
     3    3    5 2
     4    4    5 2
     5    5   10 1
     6    6    7 1
     7    8    6 ar
     8    9    8 1
     9   10    8 ar
    10   11   10 ar
    11   12   11 1
    12   13   11 ar
    13   14   13 1
    14   15    6 ar
    15   16   15 1
    16   17    1 1
    17   18   17 1
    18   19   17 1
    19   20   17 1
    20   13   15 ar
@<TRIPOS>SUBSTRUCTURE
     1 RES1 1

@<TRIPOS>CRYSIN
   7.1090   17.0920    7.1930  90.0000 116.2920  90.0000  14 1

