# MOL2 file generated by ConQuest
# Please check atom types

@<TRIPOS>MOLECULE
RUGQOA
    36    39     1
SMALL
NO_CHARGES
****
Generated from CSD

@<TRIPOS>ATOM
      1 O1         3.5262    1.6342    1.6564 O.2       1 RES1    0.0000
      2 O2         2.9999    1.1041    3.7132 O.2       1 RES1    0.0000
      3 O3         0.8853    5.6521    0.2259 O.2       1 RES1    0.0000
      4 O4        -0.4391    6.3129    1.8421 O.2       1 RES1    0.0000
      5 O5         5.9338    4.3335    1.6895 O.2       1 RES1    0.0000
      6 O6         6.1547    4.6603    3.8287 O.2       1 RES1    0.0000
      7 O7         3.6731    7.1386    0.5871 O.2       1 RES1    0.0000
      8 O8         3.0598    8.2728    2.3387 O.2       1 RES1    0.0000
      9 O9         3.8447    3.6139    6.7391 O.2       1 RES1    0.0000
     10 O10       -0.7163    6.5128    4.8254 O.2       1 RES1    0.0000
     11 O11        0.9777    7.8500    4.8775 O.2       1 RES1    0.0000
     12 N1         1.9633    2.7844    2.7240 N.3       1 RES1    0.0000
     13 N2         0.7744    4.4738    2.0984 N.3       1 RES1    0.0000
     14 N3         4.0964    4.3010    2.9833 N.3       1 RES1    0.0000
     15 N4         2.8046    6.0754    2.3353 N.3       1 RES1    0.0000
     16 N5         2.6611    3.7888    4.8106 N.am      1 RES1    0.0000
     17 N6         1.2575    5.7628    4.1158 N.3       1 RES1    0.0000
     18 N7         2.9031    1.7857    2.6968 N.pl3     1 RES1    0.0000
     19 N8         0.3766    5.5670    1.3433 N.pl3     1 RES1    0.0000
     20 N9         5.5106    4.4741    2.8142 N.pl3     1 RES1    0.0000
     21 N10        3.2322    7.2425    1.7197 N.pl3     1 RES1    0.0000
     22 N11        0.4470    6.7834    4.6229 N.pl3     1 RES1    0.0000
     23 C1         2.0240    3.8254    1.7101 C.3       1 RES1    0.0000
     24 H1         1.9668    3.4418    0.7877 H         1 RES1    0.0000
     25 C2         1.5453    3.3403    4.0246 C.3       1 RES1    0.0000
     26 H2         0.9970    2.6773    4.5338 H         1 RES1    0.0000
     27 C3         0.6653    4.5624    3.5752 C.3       1 RES1    0.0000
     28 H3        -0.2825    4.4571    3.8756 H         1 RES1    0.0000
     29 C4         3.2815    4.7780    1.8679 C.3       1 RES1    0.0000
     30 H4         3.8078    4.8519    1.0199 H         1 RES1    0.0000
     31 C5         3.4945    4.8055    4.2355 C.3       1 RES1    0.0000
     32 H5         4.2055    5.0863    4.8802 H         1 RES1    0.0000
     33 C6         2.6321    6.0401    3.7893 C.3       1 RES1    0.0000
     34 H6         2.9498    6.8849    4.2182 H         1 RES1    0.0000
     35 C7         2.9322    3.2425    6.0463 C.2       1 RES1    0.0000
     36 H7         2.3751    2.5419    6.3657 H         1 RES1    0.0000
@<TRIPOS>BOND
     1    1   18 2
     2    2   18 2
     3    3   19 2
     4    4   19 2
     5    5   20 2
     6    6   20 2
     7    7   21 2
     8    8   21 2
     9    9   35 2
    10   10   22 2
    11   11   22 2
    12   12   18 1
    13   13   19 1
    14   14   20 1
    15   15   21 1
    16   16   25 1
    17   17   22 1
    18   23   12 1
    19   24   23 1
    20   25   12 1
    21   26   25 1
    22   27   13 1
    23   28   27 1
    24   29   14 1
    25   30   29 1
    26   31   14 1
    27   32   31 1
    28   33   15 1
    29   34   33 1
    30   35   16 1
    31   36   35 1
    32   13   23 1
    33   15   29 1
    34   16   31 1
    35   17   27 1
    36   17   33 1
    37   23   29 1
    38   25   27 1
    39   31   33 1
@<TRIPOS>SUBSTRUCTURE
     1 RES1 1

@<TRIPOS>CRYSIN
   8.8000   12.5340   12.8290  90.0000  90.0000  90.0000  19 1

