# MOL2 file generated by ConQuest
# Please check atom types

@<TRIPOS>MOLECULE
RUGSAO
    56    59     1
SMALL
NO_CHARGES
****
Generated from CSD

@<TRIPOS>ATOM
      1 N1         6.4133    7.2021    1.7868 N.am      1 RES1    0.0000
      2 N2         6.7154    5.9553    1.2256 N.2       1 RES1    0.0000
      3 N3         3.2024    6.1462    4.0949 N.pl3     1 RES1    0.0000
      4 H1         3.5711    6.9192    4.1609 H         1 RES1    0.0000
      5 N4        -2.0471    4.4967    7.2063 N.2       1 RES1    0.0000
      6 O1         4.8838    8.0826    3.3067 O.2       1 RES1    0.0000
      7 O2        -3.0825    4.3299    8.1527 O.3       1 RES1    0.0000
      8 C1         5.3147    7.1577    2.6052 C.2       1 RES1    0.0000
      9 C2         4.8566    5.8006    2.4897 C.2       1 RES1    0.0000
     10 C3         5.7860    5.1386    1.6190 C.2       1 RES1    0.0000
     11 C4         5.8413    3.7236    1.1940 C.3       1 RES1    0.0000
     12 H2         6.6235    3.5818    0.6561 H         1 RES1    0.0000
     13 H3         5.0572    3.5124    0.6809 H         1 RES1    0.0000
     14 H4         5.8789    3.1577    1.9684 H         1 RES1    0.0000
     15 C5         7.3278    8.2804    1.6217 C.ar      1 RES1    0.0000
     16 C6         6.8372    9.5627    1.4979 C.ar      1 RES1    0.0000
     17 H5         5.9200    9.7125    1.4704 H         1 RES1    0.0000
     18 C7         7.7028   10.6096    1.4168 C.ar      1 RES1    0.0000
     19 H6         7.3714   11.4768    1.3521 H         1 RES1    0.0000
     20 C8         9.0434   10.4052    1.4305 C.ar      1 RES1    0.0000
     21 H7         9.6275   11.1264    1.3728 H         1 RES1    0.0000
     22 C9         9.5363    9.1218    1.5296 C.ar      1 RES1    0.0000
     23 H8        10.4551    8.9772    1.5282 H         1 RES1    0.0000
     24 C10        8.6774    8.0573    1.6286 C.ar      1 RES1    0.0000
     25 H9         9.0091    7.1919    1.7015 H         1 RES1    0.0000
     26 C11        3.7623    5.3226    3.2270 C.2       1 RES1    0.0000
     27 C12        3.2702    3.9401    3.1348 C.ar      1 RES1    0.0000
     28 C13        3.5034    3.0759    4.1885 C.ar      1 RES1    0.0000
     29 H10        3.9765    3.3632    4.9354 H         1 RES1    0.0000
     30 C14        3.0267    1.7811    4.1211 C.ar      1 RES1    0.0000
     31 H11        3.1974    1.1953    4.8226 H         1 RES1    0.0000
     32 C15        2.3159    1.3491    3.0550 C.ar      1 RES1    0.0000
     33 H12        1.9828    0.4817    3.0289 H         1 RES1    0.0000
     34 C16        2.0948    2.2257    2.0028 C.ar      1 RES1    0.0000
     35 H13        1.6069    1.9414    1.2641 H         1 RES1    0.0000
     36 C17        2.5778    3.4829    2.0399 C.ar      1 RES1    0.0000
     37 H14        2.4399    4.0481    1.3136 H         1 RES1    0.0000
     38 C18        2.0750    5.9330    4.9326 C.ar      1 RES1    0.0000
     39 C19        2.1514    6.2755    6.2490 C.ar      1 RES1    0.0000
     40 H15        2.9546    6.5953    6.5915 H         1 RES1    0.0000
     41 C20        1.0576    6.1552    7.0798 C.ar      1 RES1    0.0000
     42 H16        1.1247    6.4076    7.9725 H         1 RES1    0.0000
     43 C21       -0.1341    5.6620    6.5942 C.ar      1 RES1    0.0000
     44 C22       -0.2022    5.3172    5.2559 C.ar      1 RES1    0.0000
     45 H17       -0.9982    4.9767    4.9161 H         1 RES1    0.0000
     46 C23        0.8725    5.4639    4.4168 C.ar      1 RES1    0.0000
     47 H18        0.7977    5.2526    3.5145 H         1 RES1    0.0000
     48 C24       -1.3055    5.4755    7.4993 C.2       1 RES1    0.0000
     49 C25       -1.4803    6.3231    8.6850 C.3       1 RES1    0.0000
     50 H19       -2.4018    6.3097    8.9546 H         1 RES1    0.0000
     51 H20       -1.2210    7.2230    8.4746 H         1 RES1    0.0000
     52 H21       -0.9330    5.9897    9.3989 H         1 RES1    0.0000
     53 C26       -3.7425    3.0908    7.9216 C.3       1 RES1    0.0000
     54 H22       -4.5411    3.2436    7.4113 H         1 RES1    0.0000
     55 H23       -3.9717    2.6878    8.7621 H         1 RES1    0.0000
     56 H24       -3.1595    2.5035    7.4333 H         1 RES1    0.0000
@<TRIPOS>BOND
     1    1    2 1
     2    2   10 2
     3    3    4 1
     4    5    7 1
     5    6    8 2
     6    7   53 1
     7    8    1 1
     8    9    8 1
     9   10    9 1
    10   11   10 1
    11   12   11 1
    12   13   11 1
    13   14   11 1
    14   15    1 1
    15   16   15 ar
    16   17   16 1
    17   18   16 ar
    18   19   18 1
    19   20   18 ar
    20   21   20 1
    21   22   20 ar
    22   23   22 1
    23   24   15 ar
    24   25   24 1
    25   26    3 1
    26   27   26 1
    27   28   27 ar
    28   29   28 1
    29   30   28 ar
    30   31   30 1
    31   32   30 ar
    32   33   32 1
    33   34   32 ar
    34   35   34 1
    35   36   27 ar
    36   37   36 1
    37   38    3 1
    38   39   38 ar
    39   40   39 1
    40   41   39 ar
    41   42   41 1
    42   43   41 ar
    43   44   43 ar
    44   45   44 1
    45   46   38 ar
    46   47   46 1
    47   48    5 2
    48   49   48 1
    49   50   49 1
    50   51   49 1
    51   52   49 1
    52   53   54 1
    53   55   53 1
    54   56   53 1
    55    9   26 2
    56   22   24 ar
    57   34   36 ar
    58   43   48 1
    59   44   46 ar
@<TRIPOS>SUBSTRUCTURE
     1 RES1 1

@<TRIPOS>CRYSIN
   7.3550   11.1609   14.9700  68.5360  76.6540  76.1820   2 1

