# MOL2 file generated by ConQuest
# Please check atom types

@<TRIPOS>MOLECULE
RUHHEH
    28    29     1
SMALL
NO_CHARGES
****
Generated from CSD

@<TRIPOS>ATOM
      1 O1         8.1104    3.5639    3.0740 O.2       1 RES1    0.0000
      2 O2         3.1341    0.7322    4.1336 O.3       1 RES1    0.0000
      3 H1         2.2625    0.1892    3.6752 H         1 RES1    0.0000
      4 O3         4.2646    0.4146    2.2361 O.2       1 RES1    0.0000
      5 N1         7.2359    2.9617    3.8539 N.pl3     1 RES1    0.0000
      6 C1         6.2428    2.2493    3.2407 C.ar      1 RES1    0.0000
      7 C2         5.2736    1.6421    4.0117 C.ar      1 RES1    0.0000
      8 C3         5.3551    1.7153    5.3949 C.ar      1 RES1    0.0000
      9 H2         4.7180    1.2990    5.9292 H         1 RES1    0.0000
     10 C4         6.3957    2.4146    5.9612 C.ar      1 RES1    0.0000
     11 H3         6.4696    2.4615    6.8869 H         1 RES1    0.0000
     12 C5         7.3206    3.0407    5.1752 C.ar      1 RES1    0.0000
     13 H4         8.0123    3.5228    5.5677 H         1 RES1    0.0000
     14 C6         4.1903    0.8696    3.3456 C.2       1 RES1    0.0000
     15 C1A        6.2521    2.2493    1.7527 C.ar      1 RES1    0.0000
     16 N1A        5.2589    2.9617    1.1395 N.pl3     1 RES1    0.0000
     17 O1A        4.3845    3.5639    1.9195 O.2       1 RES1    0.0000
     18 C5A        5.1743    3.0407   -0.1818 C.ar      1 RES1    0.0000
     19 C4A        6.0991    2.4146   -0.9677 C.ar      1 RES1    0.0000
     20 C3A        7.1398    1.7153   -0.4015 C.ar      1 RES1    0.0000
     21 C2A        7.2212    1.6421    0.9817 C.ar      1 RES1    0.0000
     22 C6A        8.3045    0.8696    1.6478 C.2       1 RES1    0.0000
     23 O2A        9.3607    0.7322    0.8599 O.3       1 RES1    0.0000
     24 H1A       10.2324    0.1892    1.3183 H         1 RES1    0.0000
     25 O3A        8.2302    0.4146    2.7574 O.2       1 RES1    0.0000
     26 H2A        7.7769    1.2990   -0.9358 H         1 RES1    0.0000
     27 H3A        6.0252    2.4615   -1.8935 H         1 RES1    0.0000
     28 H4A        4.4825    3.5228   -0.5742 H         1 RES1    0.0000
@<TRIPOS>BOND
     1    1    5 1
     2    2    3 1
     3    4   14 2
     4    5    6 ar
     5    6    7 ar
     6    7    8 ar
     7    8    9 1
     8   10    8 ar
     9   11   10 1
    10   12    5 ar
    11   13   12 1
    12   14    2 1
    13   15    6 1
    14   16   15 ar
    15   17   16 1
    16   18   16 ar
    17   19   18 ar
    18   20   19 ar
    19   21   15 ar
    20   22   21 1
    21   23   22 1
    22   24   23 1
    23   25   22 2
    24   26   20 1
    25   27   19 1
    26   28   18 1
    27    7   14 1
    28   10   12 ar
    29   20   21 ar
@<TRIPOS>SUBSTRUCTURE
     1 RES1 1

@<TRIPOS>CRYSIN
  13.6330    8.2270   10.2430  90.0000 102.8400  90.0000  15 1

