# MOL2 file generated by ConQuest
# Please check atom types

@<TRIPOS>MOLECULE
RUJBAA
    47    52     1
SMALL
NO_CHARGES
****
Generated from CSD

@<TRIPOS>ATOM
      1 C1         2.6000    2.1403    0.7493 C.3       1 RES1    0.0000
      2 C2         3.2010    1.3804    1.9350 C.ar      1 RES1    0.0000
      3 C3         4.0216    0.2698    1.8557 C.ar      1 RES1    0.0000
      4 H1         4.2340   -0.1085    1.0327 H         1 RES1    0.0000
      5 C4         4.5230   -0.2678    3.0426 C.ar      1 RES1    0.0000
      6 H2         5.0713   -1.0181    3.0100 H         1 RES1    0.0000
      7 C5         4.2170    0.2965    4.2589 C.ar      1 RES1    0.0000
      8 H3         4.5671   -0.0723    5.0382 H         1 RES1    0.0000
      9 C6         3.3891    1.4130    4.3362 C.ar      1 RES1    0.0000
     10 H4         3.1828    1.7910    5.1600 H         1 RES1    0.0000
     11 C7         2.8782    1.9515    3.1702 C.ar      1 RES1    0.0000
     12 C8         1.9888    3.1849    3.0443 C.3       1 RES1    0.0000
     13 H5         1.7574    3.5821    3.9098 H         1 RES1    0.0000
     14 C9         2.7701    4.1322    2.1433 C.ar      1 RES1    0.0000
     15 C10        3.1895    5.4074    2.4818 C.ar      1 RES1    0.0000
     16 H6         2.9536    5.7763    3.3021 H         1 RES1    0.0000
     17 C11        3.9663    6.1298    1.5843 C.ar      1 RES1    0.0000
     18 H7         4.2350    6.9953    1.7958 H         1 RES1    0.0000
     19 C12        4.3402    5.5692    0.3803 C.ar      1 RES1    0.0000
     20 H8         4.8659    6.0590   -0.2100 H         1 RES1    0.0000
     21 C13        3.9407    4.2811    0.0382 C.ar      1 RES1    0.0000
     22 H9         4.2138    3.8995   -0.7656 H         1 RES1    0.0000
     23 C14        3.1308    3.5747    0.9113 C.ar      1 RES1    0.0000
     24 C15        1.0885    2.1684    1.0116 C.ar      1 RES1    0.0000
     25 C16        0.0967    1.6466    0.1975 C.ar      1 RES1    0.0000
     26 H10        0.3088    1.2847   -0.6326 H         1 RES1    0.0000
     27 C17       -1.2238    1.6733    0.6418 C.ar      1 RES1    0.0000
     28 H11       -1.9000    1.3302    0.1032 H         1 RES1    0.0000
     29 C18       -1.5342    2.2047    1.8758 C.ar      1 RES1    0.0000
     30 H12       -2.4174    2.2036    2.1662 H         1 RES1    0.0000
     31 C19       -0.5442    2.7417    2.6909 C.ar      1 RES1    0.0000
     32 H13       -0.7617    3.1092    3.5171 H         1 RES1    0.0000
     33 C20        0.7724    2.7234    2.2559 C.ar      1 RES1    0.0000
     34 C21        2.7901    1.9289   -1.6896 C.ar      1 RES1    0.0000
     35 C22        3.4620    1.2048   -2.6766 C.ar      1 RES1    0.0000
     36 H14        3.9319    0.4340   -2.4508 H         1 RES1    0.0000
     37 C23        3.4286    1.6320   -3.9857 C.ar      1 RES1    0.0000
     38 H15        3.8787    1.1614   -4.6492 H         1 RES1    0.0000
     39 C24        2.7138    2.7736   -4.2942 C.ar      1 RES1    0.0000
     40 C25        1.9963    3.4715   -3.3403 C.ar      1 RES1    0.0000
     41 H16        1.5023    4.2224   -3.5792 H         1 RES1    0.0000
     42 C26        2.0239    3.0390   -2.0263 C.ar      1 RES1    0.0000
     43 H17        1.5343    3.4870   -1.3745 H         1 RES1    0.0000
     44 O1         2.9859    1.4446   -0.4286 O.3       1 RES1    0.0000
     45 N1         2.7588    3.2827   -5.6575 N.pl3     1 RES1    0.0000
     46 O2         3.2980    2.5937   -6.5143 O.2       1 RES1    0.0000
     47 O3         2.2746    4.3789   -5.8921 O.2       1 RES1    0.0000
@<TRIPOS>BOND
     1    1    2 1
     2    2    3 ar
     3    3    4 1
     4    5    3 ar
     5    6    5 1
     6    7    5 ar
     7    8    7 1
     8    9    7 ar
     9   10    9 1
    10   11    2 ar
    11   12   11 1
    12   13   12 1
    13   14   12 1
    14   15   14 ar
    15   16   15 1
    16   17   15 ar
    17   18   17 1
    18   19   17 ar
    19   20   19 1
    20   21   19 ar
    21   22   21 1
    22   23    1 1
    23   24    1 1
    24   25   24 ar
    25   26   25 1
    26   27   25 ar
    27   28   27 1
    28   29   27 ar
    29   30   29 1
    30   31   29 ar
    31   32   31 1
    32   33   12 1
    33   34   35 ar
    34   35   36 1
    35   37   35 ar
    36   38   37 1
    37   39   37 ar
    38   40   39 ar
    39   41   40 1
    40   42   34 ar
    41   43   42 1
    42   44    1 1
    43   45   39 1
    44   46   45 2
    45   47   45 2
    46    9   11 ar
    47   14   23 ar
    48   21   23 ar
    49   24   33 ar
    50   31   33 ar
    51   34   44 1
    52   40   42 ar
@<TRIPOS>SUBSTRUCTURE
     1 RES1 1

@<TRIPOS>CRYSIN
  11.5872   13.3959   12.7941  90.0000 103.7440  90.0000 231 1

