# MOL2 file generated by ConQuest
# Please check atom types

@<TRIPOS>MOLECULE
RUJJEM
    39    41     1
SMALL
NO_CHARGES
****
Generated from CSD

@<TRIPOS>ATOM
      1 N1         8.6738    7.6458    1.0437 N.am      1 RES1    0.0000
      2 N2         9.6970    7.3240    1.9137 N.2       1 RES1    0.0000
      3 N3        12.0455    4.0423    0.9061 N.pl3     1 RES1    0.0000
      4 O1         8.2371    9.5875    2.0972 O.2       1 RES1    0.0000
      5 O2         6.0379   10.8441    1.5161 O.3       1 RES1    0.0000
      6 H1         6.6694   10.6125    1.9855 H         1 RES1    0.0000
      7 O3        11.5603    4.6590   -0.0327 O.2       1 RES1    0.0000
      8 O4        12.4541    2.8859    0.7959 O.2       1 RES1    0.0000
      9 O5        12.4977    6.2652    5.9511 O.3       1 RES1    0.0000
     10 H2        13.1044    5.9114    6.3735 H         1 RES1    0.0000
     11 C1         7.0269    9.1288    0.1093 C.ar      1 RES1    0.0000
     12 C2         6.0650   10.1543    0.3473 C.ar      1 RES1    0.0000
     13 C3         5.1448   10.4639   -0.6105 C.ar      1 RES1    0.0000
     14 H3         4.5180   11.1310   -0.4416 H         1 RES1    0.0000
     15 C4         5.1236    9.7960   -1.8460 C.ar      1 RES1    0.0000
     16 C5         4.1705   10.1031   -2.8561 C.ar      1 RES1    0.0000
     17 H4         3.5152   10.7438   -2.6951 H         1 RES1    0.0000
     18 C6         4.2151    9.4657   -4.0534 C.ar      1 RES1    0.0000
     19 H5         3.5845    9.6738   -4.7051 H         1 RES1    0.0000
     20 C7         5.1919    8.4989   -4.3272 C.ar      1 RES1    0.0000
     21 H6         5.2113    8.0803   -5.1580 H         1 RES1    0.0000
     22 C8         6.1127    8.1703   -3.3798 C.ar      1 RES1    0.0000
     23 H7         6.7583    7.5264   -3.5651 H         1 RES1    0.0000
     24 C9         6.0938    8.8044   -2.1159 C.ar      1 RES1    0.0000
     25 C10        7.0325    8.5031   -1.1163 C.ar      1 RES1    0.0000
     26 H8         7.6809    7.8591   -1.2890 H         1 RES1    0.0000
     27 C11        8.0216    8.8117    1.1571 C.2       1 RES1    0.0000
     28 C12       10.1610    6.1550    1.7686 C.2       1 RES1    0.0000
     29 H9         9.7942    5.5927    1.1248 H         1 RES1    0.0000
     30 C13       11.2713    5.6750    2.6024 C.ar      1 RES1    0.0000
     31 C14       12.1622    4.6728    2.2046 C.ar      1 RES1    0.0000
     32 C15       13.1934    4.2424    3.0214 C.ar      1 RES1    0.0000
     33 H10       13.7797    3.5848    2.7234 H         1 RES1    0.0000
     34 C16       13.3500    4.7853    4.2702 C.ar      1 RES1    0.0000
     35 H11       14.0561    4.5170    4.8126 H         1 RES1    0.0000
     36 C17       12.4468    5.7389    4.7164 C.ar      1 RES1    0.0000
     37 C18       11.4341    6.1814    3.8782 C.ar      1 RES1    0.0000
     38 H12       10.8487    6.8361    4.1823 H         1 RES1    0.0000
     39 H13        8.4096    7.0285    0.4473 H         1 RES1    0.0000
@<TRIPOS>BOND
     1    1    2 1
     2    2   28 2
     3    3    7 2
     4    4   27 2
     5    5    6 1
     6    8    3 2
     7    9   10 1
     8   11   12 ar
     9   12    5 1
    10   13   12 ar
    11   14   13 1
    12   15   13 ar
    13   16   15 ar
    14   17   16 1
    15   18   16 ar
    16   19   18 1
    17   20   18 ar
    18   21   20 1
    19   22   20 ar
    20   23   22 1
    21   24   15 ar
    22   25   11 ar
    23   26   25 1
    24   27    1 1
    25   28   29 1
    26   30   28 1
    27   31    3 1
    28   32   31 ar
    29   33   32 1
    30   34   32 ar
    31   35   34 1
    32   36    9 1
    33   37   30 ar
    34   38   37 1
    35   39    1 1
    36   11   27 1
    37   22   24 ar
    38   24   25 ar
    39   30   31 ar
    40   34   36 ar
    41   36   37 ar
@<TRIPOS>SUBSTRUCTURE
     1 RES1 1

@<TRIPOS>CRYSIN
  10.1588    8.2562   19.5268  90.0000 104.8670  90.0000 231 1

