# MOL2 file generated by ConQuest
# Please check atom types

@<TRIPOS>MOLECULE
RUJPIW
    53    55     1
SMALL
NO_CHARGES
****
Generated from CSD

@<TRIPOS>ATOM
      1 O1         7.8951    6.4648    4.0153 O.2       1 RES1    0.0000
      2 O2         7.2154    6.0163    1.9395 O.3       1 RES1    0.0000
      3 O3         1.4042    2.5672    3.0556 O.2       1 RES1    0.0000
      4 O4         0.6231    3.9281    4.5123 O.2       1 RES1    0.0000
      5 O5         3.8077    8.2088   -0.4596 O.2       1 RES1    0.0000
      6 O6         3.0647   10.2292    0.1100 O.3       1 RES1    0.0000
      7 N1         5.2333    9.8274    3.7226 N.3       1 RES1    0.0000
      8 N2         1.3920    3.6502    3.6109 N.pl3     1 RES1    0.0000
      9 C1         7.0649    9.0133    5.0592 C.3       1 RES1    0.0000
     10 H1         6.7129    8.5396    5.8172 H         1 RES1    0.0000
     11 H2         7.1242    9.9486    5.2655 H         1 RES1    0.0000
     12 H3         7.9379    8.6765    4.8487 H         1 RES1    0.0000
     13 C2         6.1503    8.8177    3.8750 C.2       1 RES1    0.0000
     14 C3         6.1805    7.8018    2.9843 C.2       1 RES1    0.0000
     15 C4         5.1137    7.6926    1.9019 C.3       1 RES1    0.0000
     16 H4         5.5454    7.4043    1.0703 H         1 RES1    0.0000
     17 C5         4.4416    9.0295    1.6534 C.2       1 RES1    0.0000
     18 C6         4.4584   10.0042    2.5916 C.2       1 RES1    0.0000
     19 C7         3.7379   11.3170    2.5760 C.3       1 RES1    0.0000
     20 H5         4.1088   11.8779    1.8902 H         1 RES1    0.0000
     21 H6         3.8370   11.7464    3.4281 H         1 RES1    0.0000
     22 H7         2.8065   11.1689    2.3989 H         1 RES1    0.0000
     23 C8         7.1775    6.7340    3.0659 C.2       1 RES1    0.0000
     24 C9         8.1782    4.9495    1.8483 C.3       1 RES1    0.0000
     25 H8         9.0642    5.3095    1.9293 H         1 RES1    0.0000
     26 H9         8.0881    4.5089    0.9999 H         1 RES1    0.0000
     27 H10        8.0235    4.3178    2.5554 H         1 RES1    0.0000
     28 C10        4.1057    6.6166    2.3226 C.ar      1 RES1    0.0000
     29 C11        4.1279    5.3471    1.7683 C.ar      1 RES1    0.0000
     30 H11        4.7514    5.1505    1.1055 H         1 RES1    0.0000
     31 C12        3.2460    4.3704    2.1782 C.ar      1 RES1    0.0000
     32 H12        3.2673    3.5216    1.7982 H         1 RES1    0.0000
     33 C13        2.3354    4.6791    3.1603 C.ar      1 RES1    0.0000
     34 C14        2.2910    5.9214    3.7469 C.ar      1 RES1    0.0000
     35 H13        1.6722    6.1068    4.4163 H         1 RES1    0.0000
     36 C15        3.1812    6.8883    3.3234 C.ar      1 RES1    0.0000
     37 H14        3.1609    7.7323    3.7138 H         1 RES1    0.0000
     38 C16        3.7560    9.1014    0.3520 C.2       1 RES1    0.0000
     39 C17        2.3259   10.2540   -1.1316 C.3       1 RES1    0.0000
     40 H15        1.7712    9.4605   -1.1975 H         1 RES1    0.0000
     41 H16        2.9443   10.2523   -1.8784 H         1 RES1    0.0000
     42 C18        1.4663   11.4749   -1.1932 C.ar      1 RES1    0.0000
     43 C19        0.5211   11.5466   -2.2083 C.ar      1 RES1    0.0000
     44 H17        0.4364   10.8453   -2.8137 H         1 RES1    0.0000
     45 C20       -0.2975   12.6630   -2.3202 C.ar      1 RES1    0.0000
     46 H18       -0.9258   12.7017   -3.0055 H         1 RES1    0.0000
     47 C21       -0.1954   13.6966   -1.4472 C.ar      1 RES1    0.0000
     48 H19       -0.7486   14.4398   -1.5321 H         1 RES1    0.0000
     49 C22        0.7258   13.6370   -0.4434 C.ar      1 RES1    0.0000
     50 H20        0.7956   14.3371    0.1644 H         1 RES1    0.0000
     51 C23        1.5605   12.5316   -0.3246 C.ar      1 RES1    0.0000
     52 H21        2.1935   12.5084    0.3561 H         1 RES1    0.0000
     53 H22        5.2321   10.5129    4.2773 H         1 RES1    0.0000
@<TRIPOS>BOND
     1    1   23 2
     2    2   23 1
     3    3    8 2
     4    4    8 2
     5    5   38 2
     6    6   38 1
     7    7   13 1
     8    8   33 1
     9    9   10 1
    10   11    9 1
    11   12    9 1
    12   13    9 1
    13   14   13 2
    14   15   14 1
    15   16   15 1
    16   17   15 1
    17   18    7 1
    18   19   18 1
    19   20   19 1
    20   21   19 1
    21   22   19 1
    22   23   14 1
    23   24    2 1
    24   25   24 1
    25   26   24 1
    26   27   24 1
    27   28   15 1
    28   29   28 ar
    29   30   29 1
    30   31   29 ar
    31   32   31 1
    32   33   31 ar
    33   34   33 ar
    34   35   34 1
    35   36   28 ar
    36   37   36 1
    37   38   17 1
    38   39    6 1
    39   40   39 1
    40   41   39 1
    41   42   39 1
    42   43   42 ar
    43   44   43 1
    44   45   43 ar
    45   46   45 1
    46   47   45 ar
    47   48   47 1
    48   49   47 ar
    49   50   49 1
    50   51   42 ar
    51   52   51 1
    52   53    7 1
    53   17   18 2
    54   34   36 ar
    55   49   51 ar
@<TRIPOS>SUBSTRUCTURE
     1 RES1 1

@<TRIPOS>CRYSIN
   9.6527   11.0430   19.8830  90.0000 100.2300  90.0000 231 1

