# MOL2 file generated by ConQuest
# Please check atom types

@<TRIPOS>MOLECULE
RUJSEV
    40    41     1
SMALL
NO_CHARGES
****
Generated from CSD

@<TRIPOS>ATOM
      1 O1        -1.0089    2.9951    6.6320 O.2       1 RES1    0.0000
      2 O2         0.1753    4.7196    6.2663 O.2       1 RES1    0.0000
      3 O3         0.1674    0.9734    5.3521 O.3       1 RES1    0.0000
      4 N1         0.0527    3.5234    6.4476 N.pl3     1 RES1    0.0000
      5 C1         1.2698    2.7168    6.4771 C.ar      1 RES1    0.0000
      6 C2         2.3800    3.2862    7.0681 C.ar      1 RES1    0.0000
      7 H1         2.3248    4.1372    7.4393 H         1 RES1    0.0000
      8 C3         3.5637    2.5962    7.1066 C.ar      1 RES1    0.0000
      9 H2         4.3142    2.9665    7.5124 H         1 RES1    0.0000
     10 C4         3.6202    1.3455    6.5344 C.ar      1 RES1    0.0000
     11 H3         4.4256    0.8805    6.5431 H         1 RES1    0.0000
     12 C5         2.5151    0.7645    5.9480 C.ar      1 RES1    0.0000
     13 H4         2.5842   -0.0833    5.5723 H         1 RES1    0.0000
     14 C6         1.2960    1.4391    5.9146 C.ar      1 RES1    0.0000
     15 C7         0.2320   -0.2691    4.6345 C.3       1 RES1    0.0000
     16 H5         0.4956   -0.9888    5.2296 H         1 RES1    0.0000
     17 H6         0.8809   -0.2097    3.9161 H         1 RES1    0.0000
     18 C8        -1.1405   -0.5266    4.0781 C.3       1 RES1    0.0000
     19 H7        -1.7676   -0.5805    4.8030 H         1 RES1    0.0000
     20 H8        -1.1381   -1.3763    3.6300 H         1 RES1    0.0000
     21 O1B       -1.7240   -2.9951    0.5377 O.2       1 RES1    0.0000
     22 O2B       -2.9082   -4.7196    0.9034 O.2       1 RES1    0.0000
     23 O3B       -2.9004   -0.9734    1.8176 O.3       1 RES1    0.0000
     24 N1B       -2.7857   -3.5234    0.7221 N.pl3     1 RES1    0.0000
     25 C1B       -4.0028   -2.7168    0.6926 C.ar      1 RES1    0.0000
     26 C2B       -5.1130   -3.2862    0.1016 C.ar      1 RES1    0.0000
     27 H1B       -5.0578   -4.1372   -0.2696 H         1 RES1    0.0000
     28 C3B       -6.2967   -2.5962    0.0631 C.ar      1 RES1    0.0000
     29 H2B       -7.0471   -2.9665   -0.3427 H         1 RES1    0.0000
     30 C4B       -6.3532   -1.3455    0.6352 C.ar      1 RES1    0.0000
     31 H3B       -7.1585   -0.8805    0.6266 H         1 RES1    0.0000
     32 C5B       -5.2481   -0.7645    1.2217 C.ar      1 RES1    0.0000
     33 H4B       -5.3172    0.0833    1.5974 H         1 RES1    0.0000
     34 C6B       -4.0290   -1.4391    1.2551 C.ar      1 RES1    0.0000
     35 C7B       -2.9649    0.2691    2.5352 C.3       1 RES1    0.0000
     36 H5B       -3.2286    0.9888    1.9401 H         1 RES1    0.0000
     37 H6B       -3.6138    0.2097    3.2536 H         1 RES1    0.0000
     38 C8B       -1.5925    0.5266    3.0916 C.3       1 RES1    0.0000
     39 H7B       -0.9653    0.5805    2.3667 H         1 RES1    0.0000
     40 H8B       -1.5949    1.3763    3.5397 H         1 RES1    0.0000
@<TRIPOS>BOND
     1    1    4 2
     2    2    4 2
     3    3   14 1
     4    4    5 1
     5    5    6 ar
     6    6    7 1
     7    8    6 ar
     8    9    8 1
     9   10    8 ar
    10   11   10 1
    11   12   10 ar
    12   13   12 1
    13   14    5 ar
    14   15    3 1
    15   16   15 1
    16   17   15 1
    17   18   15 1
    18   19   18 1
    19   20   18 1
    20   21   24 2
    21   22   24 2
    22   23   34 1
    23   24   25 1
    24   25   26 ar
    25   26   27 1
    26   28   26 ar
    27   29   28 1
    28   30   28 ar
    29   31   30 1
    30   32   30 ar
    31   33   32 1
    32   34   25 ar
    33   35   23 1
    34   36   35 1
    35   37   35 1
    36   38   18 1
    37   39   38 1
    38   40   38 1
    39   12   14 ar
    40   32   34 ar
    41   35   38 1
@<TRIPOS>SUBSTRUCTURE
     1 RES1 1

@<TRIPOS>CRYSIN
   7.7977   13.8880    7.6729  90.0000 110.8660  90.0000  14 1

