# MOL2 file generated by ConQuest
# Please check atom types

@<TRIPOS>MOLECULE
RUJVEZ
    81    84     1
SMALL
NO_CHARGES
****
Generated from CSD

@<TRIPOS>ATOM
      1 C1         4.6998    4.3367    4.5574 C.ar      1 RES1    0.0000
      2 H1         4.1091    4.0635    5.2219 H         1 RES1    0.0000
      3 C2         5.4936    5.4600    4.7798 C.ar      1 RES1    0.0000
      4 H2         5.4752    5.9094    5.5921 H         1 RES1    0.0000
      5 C3         6.3292    5.8926    3.7175 C.ar      1 RES1    0.0000
      6 H3         6.8364    6.6654    3.8211 H         1 RES1    0.0000
      7 C4         6.4008    5.2038    2.5667 C.ar      1 RES1    0.0000
      8 H4         6.9507    5.4957    1.8760 H         1 RES1    0.0000
      9 C5         5.6534    4.0635    2.4258 C.ar      1 RES1    0.0000
     10 H5         5.7424    3.5616    1.6467 H         1 RES1    0.0000
     11 C6         4.7650    3.6315    3.4080 C.ar      1 RES1    0.0000
     12 C7         3.9333    2.4478    3.1351 C.2       1 RES1    0.0000
     13 H6         4.2465    1.8606    2.4852 H         1 RES1    0.0000
     14 C8         2.7968    2.1363    3.7137 C.2       1 RES1    0.0000
     15 H7         2.4724    2.7069    4.3723 H         1 RES1    0.0000
     16 C9         1.9937    0.9240    3.3799 C.3       1 RES1    0.0000
     17 H8         2.4715    0.4158    2.6911 H         1 RES1    0.0000
     18 C10        0.7007    2.3629    1.8500 C.ar      1 RES1    0.0000
     19 C11        0.1718    3.5864    2.1161 C.ar      1 RES1    0.0000
     20 H9        -0.2128    3.7569    2.9452 H         1 RES1    0.0000
     21 C12        0.2068    4.5690    1.1577 C.ar      1 RES1    0.0000
     22 H10       -0.1801    5.3949    1.3345 H         1 RES1    0.0000
     23 C13        0.8125    4.3462   -0.0732 C.ar      1 RES1    0.0000
     24 C14        0.8421    5.4308   -1.1286 C.3       1 RES1    0.0000
     25 H11        1.5732    6.0270   -0.9518 H         1 RES1    0.0000
     26 H12        0.0164    5.9199   -1.1079 H         1 RES1    0.0000
     27 H13        0.9561    5.0316   -1.9934 H         1 RES1    0.0000
     28 C15        1.3432    3.1240   -0.3144 C.ar      1 RES1    0.0000
     29 H14        1.7517    2.9589   -1.1342 H         1 RES1    0.0000
     30 C16        1.2916    2.1126    0.6313 C.ar      1 RES1    0.0000
     31 H15        1.6523    1.2747    0.4462 H         1 RES1    0.0000
     32 C17       -0.4207    0.5095    2.9947 C.2       1 RES1    0.0000
     33 C18       -1.6504    1.0246    2.2812 C.2       1 RES1    0.0000
     34 C19       -3.5562    2.3759    2.5184 C.3       1 RES1    0.0000
     35 H16       -3.3442    3.0555    1.8746 H         1 RES1    0.0000
     36 H17       -4.0856    2.7552    3.2243 H         1 RES1    0.0000
     37 H18       -4.0493    1.6737    2.0901 H         1 RES1    0.0000
     38 C20       -0.4159   -0.6533    3.6752 C.2       1 RES1    0.0000
     39 C21       -1.6614   -1.4120    3.7656 C.2       1 RES1    0.0000
     40 C22       -2.6448   -3.4549    4.4193 C.3       1 RES1    0.0000
     41 H19       -3.3488   -2.9589    4.8447 H         1 RES1    0.0000
     42 H20       -2.4349   -4.2273    4.9483 H         1 RES1    0.0000
     43 H21       -2.9323   -3.7338    3.5462 H         1 RES1    0.0000
     44 C23        2.0806   -3.3623    3.9681 C.ar      1 RES1    0.0000
     45 H22        2.0620   -3.4650    4.8917 H         1 RES1    0.0000
     46 C24        2.6807   -4.3289    3.1911 C.ar      1 RES1    0.0000
     47 H23        3.0695   -5.0778    3.5835 H         1 RES1    0.0000
     48 C25        2.6943   -4.1677    1.8341 C.ar      1 RES1    0.0000
     49 C26        2.1362   -3.0736    1.2306 C.ar      1 RES1    0.0000
     50 H24        2.1603   -2.9799    0.3053 H         1 RES1    0.0000
     51 C27        1.5374   -2.1126    2.0208 C.ar      1 RES1    0.0000
     52 H25        1.1500   -1.3671    1.6204 H         1 RES1    0.0000
     53 C28        1.5037   -2.2390    3.3945 C.ar      1 RES1    0.0000
     54 C29        0.8440   -1.1951    4.2777 C.3       1 RES1    0.0000
     55 H26        0.6038   -1.6317    5.1210 H         1 RES1    0.0000
     56 C30        1.7954    0.0034    4.6216 C.3       1 RES1    0.0000
     57 C31        1.1148    0.8316    5.6485 C.1       1 RES1    0.0000
     58 C32        3.1955   -0.5237    5.0442 C.2       1 RES1    0.0000
     59 C33        3.6357   -0.6592    6.4891 C.3       1 RES1    0.0000
     60 C34        4.0089    0.7640    6.9736 C.3       1 RES1    0.0000
     61 H27        4.6567    1.1445    6.3768 H         1 RES1    0.0000
     62 H28        4.3778    0.7140    7.8577 H         1 RES1    0.0000
     63 H29        3.2222    1.3146    6.9860 H         1 RES1    0.0000
     64 C35        2.5548   -1.2472    7.3972 C.3       1 RES1    0.0000
     65 H30        1.7530   -0.7245    7.3217 H         1 RES1    0.0000
     66 H31        2.8597   -1.2348    8.3066 H         1 RES1    0.0000
     67 H32        2.3721   -2.1525    7.1324 H         1 RES1    0.0000
     68 C36        4.8727   -1.5855    6.5246 C.3       1 RES1    0.0000
     69 H33        4.6232   -2.4633    6.2303 H         1 RES1    0.0000
     70 H34        5.2115   -1.6317    7.4225 H         1 RES1    0.0000
     71 H35        5.5526   -1.2348    5.9444 H         1 RES1    0.0000
     72 N1         0.6826    1.3096    2.8454 N.pl3     1 RES1    0.0000
     73 N2         3.3050   -5.2011    1.0016 N.pl3     1 RES1    0.0000
     74 N3         0.5820    1.5042    6.3816 N.1       1 RES1    0.0000
     75 O1        -1.9190    0.7550    1.1549 O.2       1 RES1    0.0000
     76 O2        -2.3420    1.8423    3.0660 O.3       1 RES1    0.0000
     77 O3        -2.7457   -1.0330    3.4038 O.2       1 RES1    0.0000
     78 O4        -1.4733   -2.6212    4.2974 O.3       1 RES1    0.0000
     79 O5         3.2497   -5.0856   -0.2155 O.2       1 RES1    0.0000
     80 O6         3.8487   -6.1383    1.5583 O.2       1 RES1    0.0000
     81 O7         3.9225   -0.8381    4.1421 O.2       1 RES1    0.0000
@<TRIPOS>BOND
     1    1    2 1
     2    3    1 ar
     3    4    3 1
     4    5    3 ar
     5    6    5 1
     6    7    5 ar
     7    8    7 1
     8    9    7 ar
     9   10    9 1
    10   11    1 ar
    11   12   11 1
    12   13   12 1
    13   14   12 2
    14   15   14 1
    15   16   14 1
    16   17   16 1
    17   18   19 ar
    18   19   20 1
    19   21   19 ar
    20   22   21 1
    21   23   21 ar
    22   24   23 1
    23   25   24 1
    24   26   24 1
    25   27   24 1
    26   28   23 ar
    27   29   28 1
    28   30   18 ar
    29   31   30 1
    30   32   33 1
    31   33   75 2
    32   34   35 1
    33   36   34 1
    34   37   34 1
    35   38   32 2
    36   39   38 1
    37   40   41 1
    38   42   40 1
    39   43   40 1
    40   44   45 1
    41   46   44 ar
    42   47   46 1
    43   48   46 ar
    44   49   48 ar
    45   50   49 1
    46   51   49 ar
    47   52   51 1
    48   53   44 ar
    49   54   38 1
    50   55   54 1
    51   56   16 1
    52   57   56 1
    53   58   56 1
    54   59   58 1
    55   60   59 1
    56   61   60 1
    57   62   60 1
    58   63   60 1
    59   64   59 1
    60   65   64 1
    61   66   64 1
    62   67   64 1
    63   68   59 1
    64   69   68 1
    65   70   68 1
    66   71   68 1
    67   72   16 1
    68   73   48 1
    69   74   57 3
    70   76   33 1
    71   77   39 2
    72   78   39 1
    73   79   73 2
    74   80   73 2
    75   81   58 2
    76    9   11 ar
    77   18   72 1
    78   28   30 ar
    79   32   72 1
    80   34   76 1
    81   40   78 1
    82   51   53 ar
    83   53   54 1
    84   54   56 1
@<TRIPOS>SUBSTRUCTURE
     1 RES1 1

@<TRIPOS>CRYSIN
  12.9560   21.0000   13.8171  90.0000  91.1150  90.0000  14 1

