# MOL2 file generated by ConQuest
# Please check atom types

@<TRIPOS>MOLECULE
RUJVID
    81    84     1
SMALL
NO_CHARGES
****
Generated from CSD

@<TRIPOS>ATOM
      1 C1         4.2423    0.9428    9.6952 C.ar      1 RES1    0.0000
      2 H1         3.7477    0.5895    8.9910 H         1 RES1    0.0000
      3 C2         5.1943    0.1691   10.3186 C.ar      1 RES1    0.0000
      4 H2         5.3367   -0.7043   10.0326 H         1 RES1    0.0000
      5 C3         5.9337    0.6703   11.3531 C.ar      1 RES1    0.0000
      6 H3         6.5879    0.1489   11.7584 H         1 RES1    0.0000
      7 C4         5.7050    1.9350   11.7833 C.ar      1 RES1    0.0000
      8 H4         6.1945    2.2759   12.4969 H         1 RES1    0.0000
      9 C5         4.7529    2.7205   11.1733 C.ar      1 RES1    0.0000
     10 H5         4.6029    3.5848   11.4834 H         1 RES1    0.0000
     11 C6         4.0184    2.2430   10.1099 C.ar      1 RES1    0.0000
     12 C7         3.0447    3.1271    9.4492 C.2       1 RES1    0.0000
     13 H6         2.7234    3.8549    9.9308 H         1 RES1    0.0000
     14 C8         2.6000    2.9576    8.2300 C.2       1 RES1    0.0000
     15 H7         2.9141    2.2077    7.7762 H         1 RES1    0.0000
     16 C9         1.6459    3.8317    7.4832 C.3       1 RES1    0.0000
     17 H8         2.1118    4.1692    6.6913 H         1 RES1    0.0000
     18 C10        1.6792    6.3008    7.9316 C.ar      1 RES1    0.0000
     19 C11        2.9950    6.6246    8.1861 C.ar      1 RES1    0.0000
     20 H9         3.5754    5.9869    8.5362 H         1 RES1    0.0000
     21 C12        3.4431    7.8999    7.9186 C.ar      1 RES1    0.0000
     22 H10        4.3309    8.1100    8.0988 H         1 RES1    0.0000
     23 C13        2.6234    8.8746    7.3929 C.ar      1 RES1    0.0000
     24 C14        3.1314   10.2728    7.1343 C.3       1 RES1    0.0000
     25 H11        3.8909   10.4465    7.6960 H         1 RES1    0.0000
     26 H12        2.4379   10.9072    7.3301 H         1 RES1    0.0000
     27 H13        3.3886   10.3543    6.2127 H         1 RES1    0.0000
     28 C15        1.3260    8.5184    7.1313 C.ar      1 RES1    0.0000
     29 H14        0.7524    9.1476    6.7584 H         1 RES1    0.0000
     30 C16        0.8462    7.2502    7.4035 C.ar      1 RES1    0.0000
     31 H15       -0.0436    7.0421    7.2283 H         1 RES1    0.0000
     32 C17        0.2586    4.7739    9.2240 C.2       1 RES1    0.0000
     33 C18        0.1528    5.8694   10.2550 C.2       1 RES1    0.0000
     34 C19       -1.3115    7.4467   11.2034 C.3       1 RES1    0.0000
     35 H16       -1.3474    6.9967   12.0508 H         1 RES1    0.0000
     36 H17       -2.1571    7.8639   11.0265 H         1 RES1    0.0000
     37 H18       -0.6226    8.1151   11.2257 H         1 RES1    0.0000
     38 C20       -0.4411    3.6136    9.3271 C.2       1 RES1    0.0000
     39 C21       -1.0837    3.3102   10.6029 C.2       1 RES1    0.0000
     40 C22       -2.2385    1.6667   11.8433 C.3       1 RES1    0.0000
     41 H19       -1.5708    1.6611   12.5337 H         1 RES1    0.0000
     42 H20       -2.5984    0.7826   11.7389 H         1 RES1    0.0000
     43 H21       -2.9429    2.2733   12.0854 H         1 RES1    0.0000
     44 C23       -2.8966    3.1657    7.8238 C.ar      1 RES1    0.0000
     45 H22       -2.7024    4.0354    8.0880 H         1 RES1    0.0000
     46 C24       -4.1854    2.8439    7.4520 C.ar      1 RES1    0.0000
     47 H23       -4.8600    3.4838    7.4643 H         1 RES1    0.0000
     48 C25       -4.4440    1.5475    7.0622 C.ar      1 RES1    0.0000
     49 C26       -3.4719    0.5929    7.0258 C.ar      1 RES1    0.0000
     50 H24       -3.6730   -0.2726    6.7519 H         1 RES1    0.0000
     51 C27       -2.1892    0.9257    7.3985 C.ar      1 RES1    0.0000
     52 H25       -1.5195    0.2815    7.3734 H         1 RES1    0.0000
     53 C28       -1.8877    2.2188    7.8104 C.ar      1 RES1    0.0000
     54 C29       -0.4588    2.5758    8.2242 C.3       1 RES1    0.0000
     55 H26       -0.0500    1.7621    8.5860 H         1 RES1    0.0000
     56 C30        0.3921    3.0073    6.9853 C.3       1 RES1    0.0000
     57 C31       -0.3986    3.9067    6.1339 C.1       1 RES1    0.0000
     58 C32        0.8849    1.7057    6.2218 C.2       1 RES1    0.0000
     59 C33        1.2634    1.7024    4.7372 C.3       1 RES1    0.0000
     60 C34        2.0439    2.9411    4.3034 C.3       1 RES1    0.0000
     61 H27        2.2502    2.8780    3.3673 H         1 RES1    0.0000
     62 H28        2.8588    2.9991    4.8073 H         1 RES1    0.0000
     63 H29        1.5130    3.7249    4.4630 H         1 RES1    0.0000
     64 C35        2.1349    0.4644    4.4782 C.3       1 RES1    0.0000
     65 H30        2.3660    0.4241    3.5470 H         1 RES1    0.0000
     66 H31        1.6488   -0.3269    4.7207 H         1 RES1    0.0000
     67 H32        2.9357    0.5213    5.0044 H         1 RES1    0.0000
     68 C36       -0.0357    1.5639    3.9426 C.3       1 RES1    0.0000
     69 H33       -0.5588    2.3630    4.0429 H         1 RES1    0.0000
     70 H34       -0.5327    0.8116    4.2703 H         1 RES1    0.0000
     71 H35        0.1692    1.4314    3.0143 H         1 RES1    0.0000
     72 N1         1.1795    4.9826    8.2422 N.pl3     1 RES1    0.0000
     73 N2        -5.8075    1.1800    6.6475 N.pl3     1 RES1    0.0000
     74 N3        -1.0275    4.6237    5.5133 N.1       1 RES1    0.0000
     75 O1         1.0235    6.1535   11.0036 O.2       1 RES1    0.0000
     76 O2        -1.0197    6.4889   10.1629 O.3       1 RES1    0.0000
     77 O3        -1.0988    4.0180   11.5770 O.2       1 RES1    0.0000
     78 O4        -1.6470    2.0890   10.6086 O.3       1 RES1    0.0000
     79 O5        -6.0406    0.0058    6.4041 O.2       1 RES1    0.0000
     80 O6        -6.6338    2.0667    6.5672 O.2       1 RES1    0.0000
     81 O7         0.9645    0.7040    6.8688 O.2       1 RES1    0.0000
@<TRIPOS>BOND
     1    1    2 1
     2    3    1 ar
     3    4    3 1
     4    5    3 ar
     5    6    5 1
     6    7    5 ar
     7    8    7 1
     8    9    7 ar
     9   10    9 1
    10   11    1 ar
    11   12   11 1
    12   13   12 1
    13   14   12 2
    14   15   14 1
    15   16   14 1
    16   17   16 1
    17   18   19 ar
    18   19   20 1
    19   21   19 ar
    20   22   21 1
    21   23   21 ar
    22   24   23 1
    23   25   24 1
    24   26   24 1
    25   27   24 1
    26   28   23 ar
    27   29   28 1
    28   30   18 ar
    29   31   30 1
    30   32   33 1
    31   33   75 2
    32   34   35 1
    33   36   34 1
    34   37   34 1
    35   38   32 2
    36   39   38 1
    37   40   41 1
    38   42   40 1
    39   43   40 1
    40   44   45 1
    41   46   44 ar
    42   47   46 1
    43   48   46 ar
    44   49   48 ar
    45   50   49 1
    46   51   49 ar
    47   52   51 1
    48   53   44 ar
    49   54   38 1
    50   55   54 1
    51   56   16 1
    52   57   56 1
    53   58   56 1
    54   59   58 1
    55   60   59 1
    56   61   60 1
    57   62   60 1
    58   63   60 1
    59   64   59 1
    60   65   64 1
    61   66   64 1
    62   67   64 1
    63   68   59 1
    64   69   68 1
    65   70   68 1
    66   71   68 1
    67   72   16 1
    68   73   48 1
    69   74   57 3
    70   76   33 1
    71   77   39 2
    72   78   39 1
    73   79   73 2
    74   80   73 2
    75   81   58 2
    76    9   11 ar
    77   18   72 1
    78   28   30 ar
    79   32   72 1
    80   34   76 1
    81   40   78 1
    82   51   53 ar
    83   53   54 1
    84   54   56 1
@<TRIPOS>SUBSTRUCTURE
     1 RES1 1

@<TRIPOS>CRYSIN
  11.8752   12.6226   22.3800  90.0000 104.6280  90.0000  14 1

