# MOL2 file generated by ConQuest
# Please check atom types

@<TRIPOS>MOLECULE
RUJXAW
    78    83     1
SMALL
NO_CHARGES
****
Generated from CSD

@<TRIPOS>ATOM
      1 O1         0.8402    1.5407    6.2964 O.3       1 RES1    0.0000
      2 O2         2.7434    2.5652    7.0743 O.3       1 RES1    0.0000
      3 O3         0.4133   -2.0730    4.1567 O.3       1 RES1    0.0000
      4 H1        -0.2350   -2.3907    3.7685 H         1 RES1    0.0000
      5 O4         1.7285    1.0778   -2.5431 O.2       1 RES1    0.0000
      6 O5         3.2510   -0.3301   -3.1916 O.3       1 RES1    0.0000
      7 N1         0.7007   -0.7769    3.6239 N.2       1 RES1    0.0000
      8 C1         2.2582    1.6042    6.1380 C.3       1 RES1    0.0000
      9 C2         2.5723    2.0986    4.7281 C.3       1 RES1    0.0000
     10 H2         2.0392    2.9098    4.5932 H         1 RES1    0.0000
     11 C3         2.8215    0.2512    6.4396 C.3       1 RES1    0.0000
     12 H3         2.5548   -0.0124    7.3345 H         1 RES1    0.0000
     13 H4         3.7909    0.2987    6.4203 H         1 RES1    0.0000
     14 C4         2.3500   -0.8113    5.4386 C.3       1 RES1    0.0000
     15 H5         3.1130   -1.3370    5.1522 H         1 RES1    0.0000
     16 H6         1.7282   -1.4100    5.8833 H         1 RES1    0.0000
     17 C5         3.2400    0.8916    2.5885 C.3       1 RES1    0.0000
     18 C6         2.1093    1.0800    3.6432 C.3       1 RES1    0.0000
     19 H7         1.3287    1.4567    3.1874 H         1 RES1    0.0000
     20 C7         1.7000   -0.2395    4.2655 C.2       1 RES1    0.0000
     21 C8         2.7889   -0.0840    1.5242 C.3       1 RES1    0.0000
     22 H8         2.8639   -0.9836    1.8794 H         1 RES1    0.0000
     23 H9         1.8510    0.0781    1.3342 H         1 RES1    0.0000
     24 C9         3.5862    1.4086   -0.3208 C.3       1 RES1    0.0000
     25 H10        2.6508    1.7014   -0.2946 H         1 RES1    0.0000
     26 C10        3.5565   -0.0146    0.2299 C.3       1 RES1    0.0000
     27 H11        3.1439   -0.6039   -0.4213 H         1 RES1    0.0000
     28 H12        4.4649   -0.3213    0.3786 H         1 RES1    0.0000
     29 C11        3.9708    1.4743   -1.8147 C.3       1 RES1    0.0000
     30 C12        3.8883    2.9734   -2.2608 C.3       1 RES1    0.0000
     31 H13        4.2276    3.0573   -3.1654 H         1 RES1    0.0000
     32 H14        2.9620    3.2574   -2.2608 H         1 RES1    0.0000
     33 C13        4.6967    3.8854   -1.3314 C.3       1 RES1    0.0000
     34 H15        5.6355    3.6437   -1.3810 H         1 RES1    0.0000
     35 H16        4.6084    4.8047   -1.6261 H         1 RES1    0.0000
     36 C14        4.3193    2.3491    0.6843 C.3       1 RES1    0.0000
     37 C15        3.4725    2.3315    2.0019 C.3       1 RES1    0.0000
     38 H17        2.5898    2.6915    1.7775 H         1 RES1    0.0000
     39 C16        4.2300    3.7729    0.0895 C.3       1 RES1    0.0000
     40 H18        3.3079    4.0709    0.1377 H         1 RES1    0.0000
     41 H19        4.7587    4.3717    0.6389 H         1 RES1    0.0000
     42 C17        4.0354    3.2092    3.1296 C.3       1 RES1    0.0000
     43 H20        4.9453    3.4648    2.9148 H         1 RES1    0.0000
     44 H21        3.5055    4.0183    3.2026 H         1 RES1    0.0000
     45 C18        4.0173    2.4783    4.4459 C.3       1 RES1    0.0000
     46 H22        4.3587    3.0581    5.1577 H         1 RES1    0.0000
     47 C19        4.8911    1.2749    4.2999 C.2       1 RES1    0.0000
     48 C20        4.4663    0.4651    3.3334 C.2       1 RES1    0.0000
     49 H23        4.9108   -0.3264    3.1296 H         1 RES1    0.0000
     50 C21        6.1477    1.0646    5.1770 C.3       1 RES1    0.0000
     51 H24        5.8728    1.2216    6.1036 H         1 RES1    0.0000
     52 C22        6.6664   -0.3834    5.1068 C.3       1 RES1    0.0000
     53 H25        7.4455   -0.4710    5.6616 H         1 RES1    0.0000
     54 H26        6.8942   -0.5988    4.1994 H         1 RES1    0.0000
     55 H27        5.9842   -0.9836    5.4166 H         1 RES1    0.0000
     56 C23        7.2021    2.1052    4.8507 C.3       1 RES1    0.0000
     57 H28        6.8163    2.9821    4.9140 H         1 RES1    0.0000
     58 H29        7.5291    1.9613    3.9598 H         1 RES1    0.0000
     59 H30        7.9286    2.0300    5.4744 H         1 RES1    0.0000
     60 C24        5.7753    1.9934    0.8771 C.3       1 RES1    0.0000
     61 H31        6.2256    2.0154    0.0289 H         1 RES1    0.0000
     62 H32        5.8418    1.1121    1.2516 H         1 RES1    0.0000
     63 H33        6.1831    2.6265    1.4719 H         1 RES1    0.0000
     64 C25        5.3605    0.9471   -2.1451 C.3       1 RES1    0.0000
     65 H34        5.4285    0.0292   -1.8711 H         1 RES1    0.0000
     66 H35        6.0206    1.4692   -1.6825 H         1 RES1    0.0000
     67 H36        5.5102    1.0091   -3.0910 H         1 RES1    0.0000
     68 C26        2.8972    0.7506   -2.5238 C.2       1 RES1    0.0000
     69 C27        2.2194   -1.0997   -3.8428 C.3       1 RES1    0.0000
     70 H37        2.6155   -1.8503   -4.2917 H         1 RES1    0.0000
     71 H38        1.7645   -0.5484   -4.4830 H         1 RES1    0.0000
     72 H39        1.5923   -1.4137   -3.1874 H         1 RES1    0.0000
     73 C28        1.6164    3.1347    7.6581 C.3       1 RES1    0.0000
     74 H40        1.6811    4.1023    7.6264 H         1 RES1    0.0000
     75 H41        1.5549    2.8646    8.5875 H         1 RES1    0.0000
     76 C29        0.4273    2.6908    6.9297 C.3       1 RES1    0.0000
     77 H42       -0.3062    2.5082    7.5383 H         1 RES1    0.0000
     78 H43        0.1435    3.3589    6.2867 H         1 RES1    0.0000
@<TRIPOS>BOND
     1    1    8 1
     2    2    8 1
     3    3    4 1
     4    5   68 2
     5    6   68 1
     6    7    3 1
     7    8    9 1
     8    9   10 1
     9   11    8 1
    10   12   11 1
    11   13   11 1
    12   14   11 1
    13   15   14 1
    14   16   14 1
    15   17   18 1
    16   18    9 1
    17   19   18 1
    18   20    7 2
    19   21   17 1
    20   22   21 1
    21   23   21 1
    22   24   25 1
    23   26   21 1
    24   27   26 1
    25   28   26 1
    26   29   24 1
    27   30   29 1
    28   31   30 1
    29   32   30 1
    30   33   30 1
    31   34   33 1
    32   35   33 1
    33   36   24 1
    34   37   17 1
    35   38   37 1
    36   39   33 1
    37   40   39 1
    38   41   39 1
    39   42   37 1
    40   43   42 1
    41   44   42 1
    42   45    9 1
    43   46   45 1
    44   47   45 1
    45   48   17 1
    46   49   48 1
    47   50   47 1
    48   51   50 1
    49   52   50 1
    50   53   52 1
    51   54   52 1
    52   55   52 1
    53   56   50 1
    54   57   56 1
    55   58   56 1
    56   59   56 1
    57   60   36 1
    58   61   60 1
    59   62   60 1
    60   63   60 1
    61   64   29 1
    62   65   64 1
    63   66   64 1
    64   67   64 1
    65   68   29 1
    66   69    6 1
    67   70   69 1
    68   71   69 1
    69   72   69 1
    70   73    2 1
    71   74   73 1
    72   75   73 1
    73   76    1 1
    74   77   76 1
    75   78   76 1
    76   14   20 1
    77   18   20 1
    78   24   26 1
    79   36   37 1
    80   36   39 1
    81   42   45 1
    82   47   48 2
    83   73   76 1
@<TRIPOS>SUBSTRUCTURE
     1 RES1 1

@<TRIPOS>CRYSIN
  13.7850    7.3020   13.8170  90.0000  94.7990  90.0000   4 1

