# MOL2 file generated by ConQuest
# Please check atom types

@<TRIPOS>MOLECULE
RULFIN
    41    42     1
SMALL
NO_CHARGES
****
Generated from CSD

@<TRIPOS>ATOM
      1 C1        -1.4232   14.9723   12.8971 C.3       1 RES1    0.0000
      2 C2         0.0979   14.9708   12.8770 C.3       1 RES1    0.0000
      3 C3         0.7484   13.5823   13.0959 C.3       1 RES1    0.0000
      4 C4         0.4155   12.5704   11.9923 C.3       1 RES1    0.0000
      5 C5         1.4944   11.5178   11.8391 C.2       1 RES1    0.0000
      6 C6         0.6647   16.0060   13.8366 C.3       1 RES1    0.0000
      7 N1         0.5484   15.4346   11.4779 N.pl3     1 RES1    0.0000
      8 O1        -0.2724   15.7588   10.6552 O.2       1 RES1    0.0000
      9 O2         1.7467   15.4768   11.2535 O.2       1 RES1    0.0000
     10 C7         0.4534   13.0168   14.4750 C.ar      1 RES1    0.0000
     11 C8         1.4185   13.0996   15.4783 C.ar      1 RES1    0.0000
     12 C9         1.1906   12.5821   16.7407 C.ar      1 RES1    0.0000
     13 C10       -0.0030   11.9598   17.0271 C.ar      1 RES1    0.0000
     14 C11       -0.9627   11.8493   16.0511 C.ar      1 RES1    0.0000
     15 C12       -0.7442   12.3712   14.7797 C.ar      1 RES1    0.0000
     16 O3         2.5710   11.6297   12.3900 O.2       1 RES1    0.0000
     17 C13        1.2202   10.3445   10.9543 C.ar      1 RES1    0.0000
     18 C14        2.1936    9.3588   10.8412 C.ar      1 RES1    0.0000
     19 C15        1.9799    8.2494   10.0550 C.ar      1 RES1    0.0000
     20 C16        0.7834    8.1055    9.3709 C.ar      1 RES1    0.0000
     21 C17       -0.1745    9.0782    9.4676 C.ar      1 RES1    0.0000
     22 C18        0.0297   10.1977   10.2557 C.ar      1 RES1    0.0000
     23 H1        -1.7514   14.3136   12.2805 H         1 RES1    0.0000
     24 H2        -1.7455   15.8402   12.6399 H         1 RES1    0.0000
     25 H3        -1.7324   14.7658   13.7818 H         1 RES1    0.0000
     26 H4         1.7176   13.7234   13.0576 H         1 RES1    0.0000
     27 H5        -0.4261   12.1357   12.2021 H         1 RES1    0.0000
     28 H6         0.3068   13.0415   11.1513 H         1 RES1    0.0000
     29 H7         1.6208   16.0292   13.7563 H         1 RES1    0.0000
     30 H8         0.4255   15.7734   14.7377 H         1 RES1    0.0000
     31 H9         0.3051   16.8711   13.6249 H         1 RES1    0.0000
     32 H10        2.2322   13.5096   15.2941 H         1 RES1    0.0000
     33 H11        1.8452   12.6562   17.3974 H         1 RES1    0.0000
     34 H12       -0.1591   11.6152   17.8772 H         1 RES1    0.0000
     35 H13       -1.7663   11.4218   16.2409 H         1 RES1    0.0000
     36 H14       -1.4030   12.2898   14.1284 H         1 RES1    0.0000
     37 H15        2.9972    9.4504   11.2991 H         1 RES1    0.0000
     38 H16        2.6381    7.5966    9.9838 H         1 RES1    0.0000
     39 H17        0.6321    7.3524    8.8492 H         1 RES1    0.0000
     40 H18       -0.9722    8.9851    8.9988 H         1 RES1    0.0000
     41 H19       -0.6291   10.8519   10.3159 H         1 RES1    0.0000
@<TRIPOS>BOND
     1    1    2 1
     2    2    3 1
     3    3    4 1
     4    4    5 1
     5    5   16 2
     6    6    2 1
     7    7    2 1
     8    8    7 2
     9    9    7 2
    10   10    3 1
    11   11   10 ar
    12   12   11 ar
    13   13   12 ar
    14   14   13 ar
    15   15   10 ar
    16   17    5 1
    17   18   17 ar
    18   19   18 ar
    19   20   19 ar
    20   21   20 ar
    21   22   17 ar
    22   23    1 1
    23   24    1 1
    24   25    1 1
    25   26    3 1
    26   27    4 1
    27   28    4 1
    28   29    6 1
    29   30    6 1
    30   31    6 1
    31   32   11 1
    32   33   12 1
    33   34   13 1
    34   35   14 1
    35   36   15 1
    36   37   18 1
    37   38   19 1
    38   39   20 1
    39   40   21 1
    40   41   22 1
    41   14   15 ar
    42   21   22 ar
@<TRIPOS>SUBSTRUCTURE
     1 RES1 1

@<TRIPOS>CRYSIN
   5.9350   14.5390   18.2420  90.0000  90.0000  90.0000  19 1

