# MOL2 file generated by ConQuest
# Please check atom types

@<TRIPOS>MOLECULE
RULKIS
    30    31     1
SMALL
NO_CHARGES
****
Generated from CSD

@<TRIPOS>ATOM
      1 N1         0.0141    1.7741    5.2782 N.2       1 RES1    0.0000
      2 N2        -1.9951    1.5001    4.3130 N.2       1 RES1    0.0000
      3 N3         0.1337    4.4170    2.4429 N.am      1 RES1    0.0000
      4 O1        -0.9771    1.4649    6.2522 O.3       1 RES1    0.0000
      5 O2        -1.6709    3.2882    1.6706 O.2       1 RES1    0.0000
      6 C1        -3.3306    0.9579    6.3458 C.3       1 RES1    0.0000
      7 C2        -2.1193    1.3221    5.5768 C.2       1 RES1    0.0000
      8 C3        -0.6533    1.7799    4.1681 C.2       1 RES1    0.0000
      9 C4        -0.0094    2.0282    2.8419 C.3       1 RES1    0.0000
     10 C5        -0.2198    0.8408    1.9191 C.3       1 RES1    0.0000
     11 C6        -0.5954    3.3034    2.2535 C.2       1 RES1    0.0000
     12 C7        -0.1604    5.7438    2.0618 C.ar      1 RES1    0.0000
     13 C8         0.6595    6.7450    2.5611 C.ar      1 RES1    0.0000
     14 C9         0.4206    8.0553    2.2245 C.ar      1 RES1    0.0000
     15 C10       -0.6208    8.3961    1.3998 C.ar      1 RES1    0.0000
     16 C11       -1.4190    7.3995    0.8960 C.ar      1 RES1    0.0000
     17 C12       -1.1988    6.0798    1.2148 C.ar      1 RES1    0.0000
     18 H1         0.8811    4.3058    2.8531 H         1 RES1    0.0000
     19 H2        -3.5334    1.6570    6.9722 H         1 RES1    0.0000
     20 H3        -3.1740    0.1382    6.8206 H         1 RES1    0.0000
     21 H4        -4.0694    0.8443    5.7440 H         1 RES1    0.0000
     22 H5         0.9532    2.1558    2.9779 H         1 RES1    0.0000
     23 H6         0.2293    1.0000    1.0855 H         1 RES1    0.0000
     24 H7        -1.1592    0.7225    1.7598 H         1 RES1    0.0000
     25 H8         0.1383    0.0492    2.3281 H         1 RES1    0.0000
     26 H9         1.3687    6.5307    3.1228 H         1 RES1    0.0000
     27 H10        0.9742    8.7228    2.5611 H         1 RES1    0.0000
     28 H11       -0.7837    9.2860    1.1858 H         1 RES1    0.0000
     29 H12       -2.1212    7.6209    0.3277 H         1 RES1    0.0000
     30 H13       -1.7463    5.4159    0.8604 H         1 RES1    0.0000
@<TRIPOS>BOND
     1    1    4 1
     2    2    7 2
     3    3   11 1
     4    4    7 1
     5    5   11 2
     6    6    7 1
     7    8    1 2
     8    9    8 1
     9   10    9 1
    10   11    9 1
    11   12    3 1
    12   13   12 ar
    13   14   13 ar
    14   15   14 ar
    15   16   15 ar
    16   17   12 ar
    17   18    3 1
    18   19    6 1
    19   20    6 1
    20   21    6 1
    21   22    9 1
    22   23   10 1
    23   24   10 1
    24   25   10 1
    25   26   13 1
    26   27   14 1
    27   28   15 1
    28   29   16 1
    29   30   17 1
    30    2    8 1
    31   16   17 ar
@<TRIPOS>SUBSTRUCTURE
     1 RES1 1

@<TRIPOS>CRYSIN
   9.2294   11.7100   11.1879  90.0000  95.0340  90.0000  14 2

