# MOL2 file generated by ConQuest
# Please check atom types

@<TRIPOS>MOLECULE
RUPFIS
    45    29     2
SMALL
NO_CHARGES
****
Generated from CSD

@<TRIPOS>ATOM
      1 O1        -3.5419    1.7548   10.4988 O.2       1 RES1    0.0000
      2 O2         0.7968    1.9630    6.1199 O.2       1 RES1    0.0000
      3 N1        -0.6877    2.5050    7.6241 N.3       1 RES1    0.0000
      4 N2         0.3419    2.8420    6.8789 N.2       1 RES1    0.0000
      5 C1        -1.3251    1.1412    7.5969 C.3       1 RES1    0.0000
      6 C2        -2.6450    1.1811    8.3882 C.3       1 RES1    0.0000
      7 H1        -3.3448    1.5236    7.8111 H         1 RES1    0.0000
      8 H2        -2.8772    0.2638    8.6014 H         1 RES1    0.0000
      9 C3        -2.6434    1.9266    9.6808 C.2       1 RES1    0.0000
     10 C4        -1.5541    2.9316    9.8585 C.3       1 RES1    0.0000
     11 H3        -0.7874    2.4816   10.2467 H         1 RES1    0.0000
     12 H4        -1.8456    3.6160   10.4814 H         1 RES1    0.0000
     13 C5        -1.1378    3.5933    8.5527 C.3       1 RES1    0.0000
     14 C6        -1.7587    0.7621    6.1808 C.3       1 RES1    0.0000
     15 H5        -0.9888    0.7255    5.6082 H         1 RES1    0.0000
     16 H6        -2.3738    1.4197    5.8481 H         1 RES1    0.0000
     17 H7        -2.1870   -0.0973    6.1966 H         1 RES1    0.0000
     18 C7        -0.3362    0.1217    8.1514 C.3       1 RES1    0.0000
     19 H8        -0.0663    0.3842    9.0340 H         1 RES1    0.0000
     20 H9         0.4337    0.0841    7.5794 H         1 RES1    0.0000
     21 H10       -0.7503   -0.7437    8.1873 H         1 RES1    0.0000
     22 C8        -2.3054    4.3656    7.9044 C.3       1 RES1    0.0000
     23 H11       -2.0080    4.7670    7.0843 H         1 RES1    0.0000
     24 H12       -2.6037    5.0522    8.5061 H         1 RES1    0.0000
     25 H13       -3.0302    3.7628    7.7209 H         1 RES1    0.0000
     26 C9        -0.0185    4.5752    8.8290 C.3       1 RES1    0.0000
     27 H14        0.7299    4.1255    9.2277 H         1 RES1    0.0000
     28 H15       -0.3348    5.2583    9.4235 H         1 RES1    0.0000
     29 H16        0.2536    4.9747    7.9987 H         1 RES1    0.0000
     30 C10       -0.3737    3.4083   10.0212 Du        2 SUP2    0.0000
     31 C11       -2.2062    1.0190    8.9305 Du        2 SUP2    0.0000
     32 C12       -3.0313    2.1386    9.2626 Du        2 SUP2    0.0000
     33 C13       -2.6025    3.4495    8.7429 Du        2 SUP2    0.0000
     34 C14       -0.7454    4.9813    8.0335 Du        2 SUP2    0.0000
     35 H17       -0.5776    2.5459   10.3912 Du        2 SUP2    0.0000
     36 H18        0.5746    3.4808    9.8858 Du        2 SUP2    0.0000
     37 H19       -0.6642    4.0942   10.6249 Du        2 SUP2    0.0000
     38 H20       -1.6157    0.8409    9.6655 Du        2 SUP2    0.0000
     39 H21       -2.7813    0.2556    8.8351 Du        2 SUP2    0.0000
     40 H22       -3.0467    3.5995    7.9044 Du        2 SUP2    0.0000
     41 H23       -2.8998    4.1255    9.3559 Du        2 SUP2    0.0000
     42 H24       -1.1731    5.1363    7.1878 Du        2 SUP2    0.0000
     43 H25       -1.0316    5.6458    8.6629 Du        2 SUP2    0.0000
     44 H26        0.2073    5.0341    7.9239 Du        2 SUP2    0.0000
     45 O3        -3.9240    2.0842    9.9433 Du        2 SUP2    0.0000
@<TRIPOS>BOND
     1    1    9 2
     2    2    4 2
     3    3    4 1
     4    5    3 1
     5    6    5 1
     6    7    6 1
     7    8    6 1
     8    9    6 1
     9   10    9 1
    10   11   10 1
    11   12   10 1
    12   13    3 1
    13   14    5 1
    14   15   14 1
    15   16   14 1
    16   17   14 1
    17   18    5 1
    18   19   18 1
    19   20   18 1
    20   21   18 1
    21   22   13 1
    22   23   22 1
    23   24   22 1
    24   25   22 1
    25   26   13 1
    26   27   26 1
    27   28   26 1
    28   29   26 1
    29   10   13 1
@<TRIPOS>SUBSTRUCTURE
     1 RES1 1
     2 SUP2 30

@<TRIPOS>CRYSIN
   6.0613   16.4890   10.2529  90.0000  91.1660  90.0000 231 1

