# MOL2 file generated by ConQuest
# Please check atom types

@<TRIPOS>MOLECULE
RUPFEO
    31    31     1
SMALL
NO_CHARGES
****
Generated from CSD

@<TRIPOS>ATOM
      1 O1        -3.1431    8.8736    0.8497 O.2       1 RES1    0.0000
      2 H1        -6.2546    4.3816    4.2485 H         1 RES1    0.0000
      3 N1        -3.5920    7.0474    1.9774 N.3       1 RES1    0.0000
      4 O2        -5.6855    4.6590    4.8150 O.3       1 RES1    0.0000
      5 N2        -2.7724    7.7377    1.1892 N.2       1 RES1    0.0000
      6 C1        -5.6509    6.5325    3.2758 C.3       1 RES1    0.0000
      7 H2        -6.3213    6.9602    3.8301 H         1 RES1    0.0000
      8 H3        -6.1181    5.9903    2.6211 H         1 RES1    0.0000
      9 C2        -4.8289    5.6173    4.1493 C.3       1 RES1    0.0000
     10 H4        -4.3539    6.1500    4.8208 H         1 RES1    0.0000
     11 C3        -3.8255    4.9112    3.2717 C.3       1 RES1    0.0000
     12 H5        -4.3054    4.3785    2.6182 H         1 RES1    0.0000
     13 H6        -3.3056    4.3028    3.8214 H         1 RES1    0.0000
     14 C4        -2.8604    5.8432    2.5282 C.3       1 RES1    0.0000
     15 C5        -5.7777    8.1097    1.3935 C.3       1 RES1    0.0000
     16 H7        -5.9816    7.3721    0.8137 H         1 RES1    0.0000
     17 H8        -5.3318    8.7958    0.8921 H         1 RES1    0.0000
     18 H9        -6.5906    8.4606    1.7633 H         1 RES1    0.0000
     19 C6        -4.5299    8.7916    3.4743 C.3       1 RES1    0.0000
     20 H10       -3.9572    8.4764    4.1766 H         1 RES1    0.0000
     21 H11       -5.3403    9.1384    3.8550 H         1 RES1    0.0000
     22 H12       -4.0846    9.4872    2.9844 H         1 RES1    0.0000
     23 C7        -2.2610    5.0341    1.3767 C.3       1 RES1    0.0000
     24 H13       -2.9623    4.7441    0.7899 H         1 RES1    0.0000
     25 H14       -1.8018    4.2681    1.7290 H         1 RES1    0.0000
     26 H15       -1.6422    5.5826    0.8892 H         1 RES1    0.0000
     27 C8        -1.7605    6.3213    3.4789 C.3       1 RES1    0.0000
     28 H16       -1.1563    6.8971    3.0053 H         1 RES1    0.0000
     29 H17       -1.2794    5.5637    3.8196 H         1 RES1    0.0000
     30 H18       -2.1554    6.8036    4.2091 H         1 RES1    0.0000
     31 C9        -4.8653    7.6305    2.5259 C.3       1 RES1    0.0000
@<TRIPOS>BOND
     1    1    5 2
     2    2    4 1
     3    3    5 1
     4    4    9 1
     5    6    7 1
     6    8    6 1
     7    9    6 1
     8   10    9 1
     9   11    9 1
    10   12   11 1
    11   13   11 1
    12   14    3 1
    13   15   16 1
    14   17   15 1
    15   18   15 1
    16   19   20 1
    17   21   19 1
    18   22   19 1
    19   23   14 1
    20   24   23 1
    21   25   23 1
    22   26   23 1
    23   27   14 1
    24   28   27 1
    25   29   27 1
    26   30   27 1
    27   31    3 1
    28    6   31 1
    29   11   14 1
    30   15   31 1
    31   19   31 1
@<TRIPOS>SUBSTRUCTURE
     1 RES1 1

@<TRIPOS>CRYSIN
  12.1330   12.1330    5.8040  90.0000  90.0000 120.0000 145 1

