# MOL2 file generated by ConQuest
# Please check atom types

@<TRIPOS>MOLECULE
RUPQIC
    48    51     1
SMALL
NO_CHARGES
****
Generated from CSD

@<TRIPOS>ATOM
      1 C1         1.6142    8.8671   11.6383 C.ar      1 RES1    0.0000
      2 C2         0.5789    9.4297   10.8981 C.ar      1 RES1    0.0000
      3 C3         0.4298   10.8273   10.9086 C.ar      1 RES1    0.0000
      4 C4         1.2817   11.6106   11.6620 C.ar      1 RES1    0.0000
      5 H1         1.1793   12.5346   11.6462 H         1 RES1    0.0000
      6 C5         2.2714   11.0667   12.4299 C.ar      1 RES1    0.0000
      7 C6         3.1601   11.9456   13.2796 C.3       1 RES1    0.0000
      8 H2         3.5380   12.6340   12.7109 H         1 RES1    0.0000
      9 H3         2.6039   12.3900   13.9406 H         1 RES1    0.0000
     10 C7         4.2383   11.2943   13.9683 C.3       1 RES1    0.0000
     11 H4         5.0561   11.5666   13.5236 H         1 RES1    0.0000
     12 H5         4.2673   11.6733   14.8602 H         1 RES1    0.0000
     13 C8         4.3040    9.9503   14.1147 C.3       1 RES1    0.0000
     14 H6         4.0032    9.7478   15.0145 H         1 RES1    0.0000
     15 H7         5.2419    9.7064   14.0712 H         1 RES1    0.0000
     16 C9         3.5746    9.0398   13.1964 C.3       1 RES1    0.0000
     17 H8         3.2068    8.3101   13.7189 H         1 RES1    0.0000
     18 H9         4.2130    8.6586   12.5724 H         1 RES1    0.0000
     19 C10        2.4547    9.6724   12.4061 C.ar      1 RES1    0.0000
     20 C11        1.7974    7.3839   11.5499 C.ar      1 RES1    0.0000
     21 C12        2.6317    6.8920   10.5511 C.ar      1 RES1    0.0000
     22 C13        2.7846    5.5001   10.4257 C.ar      1 RES1    0.0000
     23 C14        2.1134    4.6506   11.2820 C.ar      1 RES1    0.0000
     24 H10        2.2247    3.7336   11.1831 H         1 RES1    0.0000
     25 C15        1.2868    5.1161   12.2729 C.ar      1 RES1    0.0000
     26 C16        0.5814    4.1714   13.2162 C.3       1 RES1    0.0000
     27 H11        0.0860    3.5266   12.6872 H         1 RES1    0.0000
     28 H12        1.2526    3.6813   13.7176 H         1 RES1    0.0000
     29 C17       -0.3337    4.7878   14.1583 C.3       1 RES1    0.0000
     30 H13       -1.2261    4.7181   13.7862 H         1 RES1    0.0000
     31 H14       -0.3223    4.2520   14.9670 H         1 RES1    0.0000
     32 C18       -0.1390    6.1100   14.5303 C.3       1 RES1    0.0000
     33 H15        0.5461    6.1253   15.2164 H         1 RES1    0.0000
     34 H16       -0.9607    6.4259   14.9393 H         1 RES1    0.0000
     35 C19        0.2503    7.0924   13.4801 C.3       1 RES1    0.0000
     36 H17        0.7041    7.8374   13.9023 H         1 RES1    0.0000
     37 H18       -0.5536    7.4366   13.0605 H         1 RES1    0.0000
     38 C20        1.1389    6.5246   12.4206 C.ar      1 RES1    0.0000
     39 N1        -0.5979   11.4662   10.1289 N.pl3     1 RES1    0.0000
     40 N2         3.6277    4.9447    9.3993 N.pl3     1 RES1    0.0000
     41 O1        -0.2212    8.5968   10.2001 O.3       1 RES1    0.0000
     42 O2        -1.3841   10.7722    9.4731 O.2       1 RES1    0.0000
     43 O3        -0.6687   12.6878   10.1210 O.2       1 RES1    0.0000
     44 O4         3.2574    7.7899    9.7449 O.3       1 RES1    0.0000
     45 O5         4.2105    5.7071    8.6182 O.2       1 RES1    0.0000
     46 O6         3.7718    3.7401    9.3425 O.2       1 RES1    0.0000
     47 H19       -0.8570    9.0899    9.8267 H         1 RES1    0.0000
     48 H20        3.6391    7.0532    8.9678 H         1 RES1    0.0000
@<TRIPOS>BOND
     1    1    2 ar
     2    2    3 ar
     3    3    4 ar
     4    4    5 1
     5    6    4 ar
     6    7    6 1
     7    8    7 1
     8    9    7 1
     9   10    7 1
    10   11   10 1
    11   12   10 1
    12   13   10 1
    13   14   13 1
    14   15   13 1
    15   16   13 1
    16   17   16 1
    17   18   16 1
    18   19    1 ar
    19   20    1 1
    20   21   20 ar
    21   22   21 ar
    22   23   22 ar
    23   24   23 1
    24   25   23 ar
    25   26   25 1
    26   27   26 1
    27   28   26 1
    28   29   26 1
    29   30   29 1
    30   31   29 1
    31   32   29 1
    32   33   32 1
    33   34   32 1
    34   35   32 1
    35   36   35 1
    36   37   35 1
    37   38   20 ar
    38   39    3 1
    39   40   22 1
    40   41    2 1
    41   42   39 2
    42   43   39 2
    43   44   21 1
    44   45   40 2
    45   46   40 2
    46   47   41 1
    47   48   44 1
    48    6   19 ar
    49   16   19 1
    50   25   38 ar
    51   35   38 1
@<TRIPOS>SUBSTRUCTURE
     1 RES1 1

@<TRIPOS>CRYSIN
  12.6402   21.7827   13.1938  90.0000  90.0000  90.0000  61 1

