# MOL2 file generated by ConQuest
# Please check atom types

@<TRIPOS>MOLECULE
RUQCUC
    41    42     1
SMALL
USER_CHARGES
****
Generated from CSD

@<TRIPOS>ATOM
      1 O1         2.8930    6.6533    3.4332 O.3       1 RES1    0.0000
      2 O2         5.4994    8.2302    7.5376 O.2       1 RES1   -1.0000
      3 O3         1.5223    8.3782    3.9013 O.3       1 RES1    0.0000
      4 O4         1.6607    5.2563    6.5906 O.3       1 RES1    0.0000
      5 H1         1.2001    4.4851    6.0833 H         1 RES1    0.0000
      6 N1         5.0819    7.0862    8.0057 N.pl3     1 RES1    1.0000
      7 C1         2.4238    7.8983    2.9193 C.3       1 RES1    0.0000
      8 C2         4.0966    6.4219    7.5063 C.2       1 RES1    0.0000
      9 H2         3.8628    5.6088    7.8910 H         1 RES1    0.0000
     10 C3         3.3300    6.9044    6.3491 C.3       1 RES1    0.0000
     11 H3         3.9295    7.3379    5.7202 H         1 RES1    0.0000
     12 H4         2.6782    7.5597    6.6438 H         1 RES1    0.0000
     13 C4         1.9294    6.1302    4.3623 C.3       1 RES1    0.0000
     14 H5         1.5114    5.3321    3.9757 H         1 RES1    0.0000
     15 C5         2.6150    5.7527    5.6568 C.3       1 RES1    0.0000
     16 H6         3.2679    5.0464    5.4703 H         1 RES1    0.0000
     17 C6         5.7733    7.5297   10.3101 C.ar      1 RES1    0.0000
     18 C7         0.8992    7.2250    4.4670 C.3       1 RES1    0.0000
     19 H7         0.0976    6.9913    3.9731 H         1 RES1    0.0000
     20 H8         0.6604    7.3849    5.3940 H         1 RES1    0.0000
     21 C8         5.8606    6.5758    9.1529 C.3       1 RES1    0.0000
     22 H9         6.7880    6.4649    8.8935 H         1 RES1    0.0000
     23 H10        5.5161    5.7097    9.4197 H         1 RES1    0.0000
     24 C9         1.7319    7.6875    1.5982 C.3       1 RES1    0.0000
     25 H11        1.4241    8.5316    1.2603 H         1 RES1    0.0000
     26 H12        0.9837    7.0992    1.7182 H         1 RES1    0.0000
     27 H13        2.3480    7.2980    0.9735 H         1 RES1    0.0000
     28 C10        3.5734    8.8493    2.8293 C.3       1 RES1    0.0000
     29 H14        3.2679    9.6883    2.4760 H         1 RES1    0.0000
     30 H15        4.2459    8.4837    2.2497 H         1 RES1    0.0000
     31 H16        3.9450    8.9861    3.7047 H         1 RES1    0.0000
     32 C11        4.7368    7.4638   11.1915 C.ar      1 RES1    0.0000
     33 H17        4.1017    6.7915   11.0958 H         1 RES1    0.0000
     34 C12        6.7059    8.5226   10.4874 C.ar      1 RES1    0.0000
     35 H18        7.4254    8.5845    9.9012 H         1 RES1    0.0000
     36 C13        4.6093    8.3588   12.2088 C.ar      1 RES1    0.0000
     37 H19        3.8852    8.3029   12.7903 H         1 RES1    0.0000
     38 C14        6.5916    9.4296   11.5228 C.ar      1 RES1    0.0000
     39 H20        7.2307   10.0969   11.6325 H         1 RES1    0.0000
     40 C15        5.5448    9.3417   12.3751 C.ar      1 RES1    0.0000
     41 H21        5.4615    9.9500   13.0744 H         1 RES1    0.0000
@<TRIPOS>BOND
     1    1    7 1
     2    2    6 1
     3    3    7 1
     4    4    5 1
     5    6    8 2
     6    7   24 1
     7    8    9 1
     8   10    8 1
     9   11   10 1
    10   12   10 1
    11   13    1 1
    12   14   13 1
    13   15    4 1
    14   16   15 1
    15   17   21 1
    16   18    3 1
    17   19   18 1
    18   20   18 1
    19   21    6 1
    20   22   21 1
    21   23   21 1
    22   24   25 1
    23   26   24 1
    24   27   24 1
    25   28    7 1
    26   29   28 1
    27   30   28 1
    28   31   28 1
    29   32   17 ar
    30   33   32 1
    31   34   17 ar
    32   35   34 1
    33   36   32 ar
    34   37   36 1
    35   38   34 ar
    36   39   38 1
    37   40   36 ar
    38   41   40 1
    39   10   15 1
    40   13   15 1
    41   13   18 1
    42   38   40 ar
@<TRIPOS>SUBSTRUCTURE
     1 RES1 1

@<TRIPOS>CRYSIN
   5.7423    9.9890   26.3120  90.0000  90.0000  90.0000  19 1

