# MOL2 file generated by ConQuest
# Please check atom types

@<TRIPOS>MOLECULE
RUQWEG
    35    36     1
SMALL
NO_CHARGES
****
Generated from CSD

@<TRIPOS>ATOM
      1 C1         0.5422    8.8738   -0.6180 C.ar      1 RES1    0.0000
      2 C2         0.7155   10.2363   -0.6100 C.ar      1 RES1    0.0000
      3 H1         0.0363   10.8010   -0.9015 H         1 RES1    0.0000
      4 C3         1.9136   10.7525   -0.1633 C.ar      1 RES1    0.0000
      5 H2         2.0393   11.6746   -0.1421 H         1 RES1    0.0000
      6 C4         2.9351    9.9088    0.2543 C.ar      1 RES1    0.0000
      7 C5         2.7277    8.5292    0.2135 C.ar      1 RES1    0.0000
      8 H3         3.4093    7.9551    0.4766 H         1 RES1    0.0000
      9 C6         1.5271    8.0084   -0.2114 C.ar      1 RES1    0.0000
     10 H4         1.3856    7.0886   -0.2223 H         1 RES1    0.0000
     11 C7         4.2353   10.4572    0.7106 C.2       1 RES1    0.0000
     12 C8         4.2875   11.7989    1.3796 C.3       1 RES1    0.0000
     13 H5         5.1958   12.0037    1.6150 H         1 RES1    0.0000
     14 H6         3.7474   11.7824    2.1725 H         1 RES1    0.0000
     15 H7         3.9531   12.4690    0.7784 H         1 RES1    0.0000
     16 C9         7.5492    9.4127    0.7674 C.2       1 RES1    0.0000
     17 C10        8.8486    9.9964    1.2069 C.ar      1 RES1    0.0000
     18 C11        9.0017   11.2594    1.7987 C.ar      1 RES1    0.0000
     19 C12       10.2605   11.6770    2.2214 C.ar      1 RES1    0.0000
     20 H8        10.3646   12.5128    2.6171 H         1 RES1    0.0000
     21 C13       11.3546   10.8507    2.0516 C.ar      1 RES1    0.0000
     22 H9        12.1917   11.1313    2.3445 H         1 RES1    0.0000
     23 C14       11.2215    9.6160    1.4547 C.ar      1 RES1    0.0000
     24 H10       11.9639    9.0679    1.3373 H         1 RES1    0.0000
     25 C15        9.9788    9.2029    1.0349 C.ar      1 RES1    0.0000
     26 H11        9.8907    8.3718    0.6260 H         1 RES1    0.0000
     27 N1        -0.7400    8.3292   -1.0750 N.pl3     1 RES1    0.0000
     28 N2         5.2413    9.6966    0.4949 N.2       1 RES1    0.0000
     29 N3         6.4593   10.1906    0.8687 N.am      1 RES1    0.0000
     30 H12        6.5274   10.9940    1.1668 H         1 RES1    0.0000
     31 O1        -1.5715    9.1153   -1.4940 O.2       1 RES1    0.0000
     32 O2        -0.9087    7.1348   -1.0589 O.2       1 RES1    0.0000
     33 O3         7.9196   12.0514    1.9597 O.3       1 RES1    0.0000
     34 H13        8.1303   12.7176    2.3890 H         1 RES1    0.0000
     35 O4         7.4807    8.2677    0.3229 O.2       1 RES1    0.0000
@<TRIPOS>BOND
     1    1    2 ar
     2    2    3 1
     3    4    2 ar
     4    5    4 1
     5    6    4 ar
     6    7    6 ar
     7    8    7 1
     8    9    1 ar
     9   10    9 1
    10   11    6 1
    11   12   11 1
    12   13   12 1
    13   14   12 1
    14   15   12 1
    15   16   17 1
    16   17   18 ar
    17   18   19 ar
    18   19   20 1
    19   21   19 ar
    20   22   21 1
    21   23   21 ar
    22   24   23 1
    23   25   17 ar
    24   26   25 1
    25   27    1 1
    26   28   11 2
    27   29   16 1
    28   30   29 1
    29   31   27 2
    30   32   27 2
    31   33   18 1
    32   34   33 1
    33   35   16 2
    34    7    9 ar
    35   23   25 ar
    36   28   29 1
@<TRIPOS>SUBSTRUCTURE
     1 RES1 1

@<TRIPOS>CRYSIN
  16.0680   11.8380    7.2901  90.0000  91.3900  90.0000  14 1

