# MOL2 file generated by ConQuest
# Please check atom types

@<TRIPOS>MOLECULE
RURSII
    48    52     1
SMALL
NO_CHARGES
****
Generated from CSD

@<TRIPOS>ATOM
      1 C1         3.9500    9.1353    9.7758 C.2       1 RES1    0.0000
      2 C2         4.9743    7.6459   11.3712 C.ar      1 RES1    0.0000
      3 C3         5.1111    6.3346   11.7984 C.ar      1 RES1    0.0000
      4 H1         4.6977    5.6391   11.3396 H         1 RES1    0.0000
      5 C4         5.8737    6.0846   12.9183 C.ar      1 RES1    0.0000
      6 H2         5.9668    5.2101   13.2210 H         1 RES1    0.0000
      7 C5         6.5021    7.1075   13.6003 C.ar      1 RES1    0.0000
      8 H3         7.0171    6.9160   14.3504 H         1 RES1    0.0000
      9 C6         6.3685    8.4117   13.1736 C.ar      1 RES1    0.0000
     10 H4         6.7896    9.0995   13.6369 H         1 RES1    0.0000
     11 C7         5.5960    8.6979   12.0414 C.ar      1 RES1    0.0000
     12 C8         5.4086   10.0087   11.4862 C.2       1 RES1    0.0000
     13 C9         4.6785   10.2322   10.3866 C.2       1 RES1    0.0000
     14 C10        4.5838   11.5874    9.7442 C.3       1 RES1    0.0000
     15 H5         3.6421   11.7648    9.5391 H         1 RES1    0.0000
     16 C11        5.0544   12.6231   10.7216 C.2       1 RES1    0.0000
     17 C12        5.7728   12.3142   11.8713 C.2       1 RES1    0.0000
     18 C13        6.8795   12.7727   14.0273 C.3       1 RES1    0.0000
     19 H6         7.1214   13.5656   14.5122 H         1 RES1    0.0000
     20 H7         7.6681   12.2604   13.8374 H         1 RES1    0.0000
     21 H8         6.2747   12.2473   14.5558 H         1 RES1    0.0000
     22 C14        5.3722   11.6342    8.4409 C.2       1 RES1    0.0000
     23 C15        4.7608   12.0306    7.3276 C.2       1 RES1    0.0000
     24 H9         3.8653   12.2728    7.3962 H         1 RES1    0.0000
     25 C16        6.6316   11.6774    5.9729 C.ar      1 RES1    0.0000
     26 C17        7.1500   11.6426    4.6896 C.ar      1 RES1    0.0000
     27 H10        6.6492   11.9468    3.9683 H         1 RES1    0.0000
     28 C18        8.4122   11.1522    4.5028 C.ar      1 RES1    0.0000
     29 H11        8.7644   11.1298    3.6421 H         1 RES1    0.0000
     30 C19        9.1911   10.6824    5.5636 C.ar      1 RES1    0.0000
     31 C20       10.5264   10.0212    5.3168 C.3       1 RES1    0.0000
     32 H12       10.7293   10.0499    4.3792 H         1 RES1    0.0000
     33 H13       10.4887    9.1068    5.6069 H         1 RES1    0.0000
     34 H14       11.2091   10.4844    5.8061 H         1 RES1    0.0000
     35 C21        8.6685   10.7708    6.8402 C.ar      1 RES1    0.0000
     36 H15        9.1859   10.4982    7.5631 H         1 RES1    0.0000
     37 C22        7.3760   11.2620    7.0685 C.ar      1 RES1    0.0000
     38 C23        6.7834   11.2790    8.4136 C.2       1 RES1    0.0000
     39 N1         4.7087   13.9293   10.4310 N.pl3     1 RES1    0.0000
     40 N2         6.2341   13.1457   12.7817 N.3       1 RES1    0.0000
     41 O1         3.1702    9.2420    8.8681 O.2       1 RES1    0.0000
     42 O2         4.1580    7.8684   10.2828 O.3       1 RES1    0.0000
     43 O3         6.0348   11.0173   12.1853 O.3       1 RES1    0.0000
     44 O4         5.1546   14.8801   11.1373 O.2       1 RES1    0.0000
     45 O5         3.9502   14.1572    9.4705 O.2       1 RES1    0.0000
     46 O6         5.3315   12.1105    6.1070 O.3       1 RES1    0.0000
     47 O7         7.4160   10.9986    9.4263 O.2       1 RES1    0.0000
     48 H16        6.0125   13.9905   12.6009 H         1 RES1    0.0000
@<TRIPOS>BOND
     1    1   13 1
     2    2    3 ar
     3    3    4 1
     4    5    3 ar
     5    6    5 1
     6    7    5 ar
     7    8    7 1
     8    9    7 ar
     9   10    9 1
    10   11    2 ar
    11   12   11 1
    12   13   12 2
    13   14   13 1
    14   15   14 1
    15   16   14 1
    16   17   16 2
    17   18   19 1
    18   20   18 1
    19   21   18 1
    20   22   14 1
    21   23   22 2
    22   24   23 1
    23   25   26 ar
    24   26   27 1
    25   28   26 ar
    26   29   28 1
    27   30   28 ar
    28   31   30 1
    29   32   31 1
    30   33   31 1
    31   34   31 1
    32   35   30 ar
    33   36   35 1
    34   37   25 ar
    35   38   22 1
    36   39   16 1
    37   40   17 1
    38   41    1 2
    39   42    1 1
    40   43   12 1
    41   44   39 2
    42   45   39 2
    43   46   23 1
    44   47   38 2
    45   48   40 1
    46    2   42 1
    47    9   11 ar
    48   17   43 1
    49   18   40 1
    50   25   46 1
    51   35   37 ar
    52   37   38 1
@<TRIPOS>SUBSTRUCTURE
     1 RES1 1

@<TRIPOS>CRYSIN
   8.0828   11.2035   13.4718  68.5800  78.8770  76.5780   2 1

