# MOL2 file generated by ConQuest
# Please check atom types

@<TRIPOS>MOLECULE
RUSJUL
    26    27     1
SMALL
NO_CHARGES
****
Generated from CSD

@<TRIPOS>ATOM
      1 O1         6.2322    8.1501    8.1743 O.2       1 RES1    0.0000
      2 O2         6.6742    9.8777    6.9440 O.2       1 RES1    0.0000
      3 O3         4.9801    7.3415    0.8948 O.2       1 RES1    0.0000
      4 N1         6.3828    8.6904    7.0788 N.pl3     1 RES1    0.0000
      5 N2         5.1795    4.0597    2.6017 N.2       1 RES1    0.0000
      6 C1         5.6782    5.8070    4.8257 C.ar      1 RES1    0.0000
      7 H1         5.4514    4.9074    4.8907 H         1 RES1    0.0000
      8 C2         5.8685    6.5458    5.9809 C.ar      1 RES1    0.0000
      9 H2         5.7738    6.1505    6.8178 H         1 RES1    0.0000
     10 C3         6.2021    7.8814    5.8663 C.ar      1 RES1    0.0000
     11 C4         6.3670    8.4870    4.6371 C.ar      1 RES1    0.0000
     12 H3         6.5952    9.3867    4.5826 H         1 RES1    0.0000
     13 C5         6.1881    7.7406    3.4898 C.ar      1 RES1    0.0000
     14 H4         6.3126    8.1396    2.6589 H         1 RES1    0.0000
     15 C6         5.8221    6.3900    3.5585 C.ar      1 RES1    0.0000
     16 C7         5.5901    5.5585    2.3364 C.3       1 RES1    0.0000
     17 C8         4.9672    6.1436    1.1014 C.2       1 RES1    0.0000
     18 C9         4.3446    5.1879    0.1228 C.3       1 RES1    0.0000
     19 H5         3.9756    5.6802   -0.6140 H         1 RES1    0.0000
     20 H6         3.6471    4.6926    0.5585 H         1 RES1    0.0000
     21 H7         5.0138    4.5807   -0.2017 H         1 RES1    0.0000
     22 C10        6.3306    4.2832    2.1741 C.2       1 RES1    0.0000
     23 C11        7.6098    3.6711    1.7922 C.3       1 RES1    0.0000
     24 H8         7.5357    2.7153    1.8478 H         1 RES1    0.0000
     25 H9         8.2999    3.9741    2.3870 H         1 RES1    0.0000
     26 H10        7.8286    3.9227    0.8927 H         1 RES1    0.0000
@<TRIPOS>BOND
     1    1    4 2
     2    2    4 2
     3    3   17 2
     4    4   10 1
     5    5   16 1
     6    6    7 1
     7    8    6 ar
     8    9    8 1
     9   10    8 ar
    10   11   10 ar
    11   12   11 1
    12   13   11 ar
    13   14   13 1
    14   15    6 ar
    15   16   15 1
    16   17   16 1
    17   18   17 1
    18   19   18 1
    19   20   18 1
    20   21   18 1
    21   22    5 2
    22   23   22 1
    23   24   23 1
    24   25   23 1
    25   26   23 1
    26   13   15 ar
    27   16   22 1
@<TRIPOS>SUBSTRUCTURE
     1 RES1 1

@<TRIPOS>CRYSIN
   6.9189    7.0620   11.9470  74.4800  74.7100  66.3900   2 1

