# MOL2 file generated by ConQuest
# Please check atom types

@<TRIPOS>MOLECULE
RUSWAF
    53    54     1
SMALL
NO_CHARGES
****
Generated from CSD

@<TRIPOS>ATOM
      1 C1         5.4189    1.6432    4.2036 C.ar      1 RES1    0.0000
      2 C2         6.1371    2.3926    5.1446 C.ar      1 RES1    0.0000
      3 H1         6.5878    3.1567    4.8672 H         1 RES1    0.0000
      4 C3         6.1896    2.0252    6.4574 C.ar      1 RES1    0.0000
      5 H2         6.6621    2.5395    7.0697 H         1 RES1    0.0000
      6 C4         5.5347    0.8830    6.8683 C.ar      1 RES1    0.0000
      7 H3         5.5738    0.6145    7.7579 H         1 RES1    0.0000
      8 C5         4.8188    0.1416    5.9458 C.ar      1 RES1    0.0000
      9 H4         4.3697   -0.6185    6.2355 H         1 RES1    0.0000
     10 C6         4.7437    0.4889    4.6022 C.ar      1 RES1    0.0000
     11 C7         5.2616    3.3878    2.4901 C.2       1 RES1    0.0000
     12 C8         5.4416    4.8400    0.5527 C.3       1 RES1    0.0000
     13 C9         6.5886    5.6482    1.1115 C.3       1 RES1    0.0000
     14 H5         6.3961    5.8913    2.0196 H         1 RES1    0.0000
     15 H6         6.7067    6.4417    0.5855 H         1 RES1    0.0000
     16 H7         7.3929    5.1232    1.0848 H         1 RES1    0.0000
     17 C10        4.0943    5.4986    0.7355 C.3       1 RES1    0.0000
     18 H8         3.3995    4.8600    0.5629 H         1 RES1    0.0000
     19 H9         4.0121    6.2333    0.1233 H         1 RES1    0.0000
     20 H10        4.0161    5.8219    1.6354 H         1 RES1    0.0000
     21 C11        5.6255    4.5100   -0.9184 C.3       1 RES1    0.0000
     22 H11        6.4478    4.0304   -1.0375 H         1 RES1    0.0000
     23 H12        5.6521    5.3236   -1.4279 H         1 RES1    0.0000
     24 H13        4.8916    3.9690   -1.2183 H         1 RES1    0.0000
     25 C12        3.9065   -0.3046    3.6098 C.3       1 RES1    0.0000
     26 H14        3.7414    0.2752    2.8353 H         1 RES1    0.0000
     27 C13        2.5467   -0.6746    4.2036 C.3       1 RES1    0.0000
     28 H15        2.0155   -1.1302    3.5318 H         1 RES1    0.0000
     29 H16        2.6750   -1.2838    4.9473 H         1 RES1    0.0000
     30 C14        4.6083   -1.5897    3.0859 C.3       1 RES1    0.0000
     31 C15        6.0151   -1.2384    2.5969 C.2       1 RES1    0.0000
     32 C16        6.3468   -2.7239    4.2776 C.3       1 RES1    0.0000
     33 H17        6.5862   -2.3832    5.1548 H         1 RES1    0.0000
     34 H18        6.6754   -3.6336    4.2056 H         1 RES1    0.0000
     35 C17        4.8908   -2.7052    4.1173 C.3       1 RES1    0.0000
     36 H19        4.4550   -2.5088    4.9617 H         1 RES1    0.0000
     37 H20        4.5708   -3.5615    3.7906 H         1 RES1    0.0000
     38 C18        3.8713   -2.1254    1.8573 C.2       1 RES1    0.0000
     39 C19        3.9206   -3.7432    0.1356 C.3       1 RES1    0.0000
     40 H21        3.6116   -3.0432   -0.4438 H         1 RES1    0.0000
     41 H22        3.1797   -4.2976    0.3904 H         1 RES1    0.0000
     42 H23        4.5755   -4.2735   -0.3226 H         1 RES1    0.0000
     43 N1         5.3986    2.0840    2.8603 N.am      1 RES1    0.0000
     44 H24        5.4776    1.4935    2.2394 H         1 RES1    0.0000
     45 N2         1.8152    0.5344    4.6741 N.pl3     1 RES1    0.0000
     46 O1         4.9784    4.2709    3.2544 O.2       1 RES1    0.0000
     47 O2         5.4486    3.5041    1.1933 O.3       1 RES1    0.0000
     48 O3         1.9216    1.5630    4.0762 O.2       1 RES1    0.0000
     49 O4         1.1564    0.4355    5.6664 O.2       1 RES1    0.0000
     50 O5         6.2889   -0.4555    1.7484 O.2       1 RES1    0.0000
     51 O6         6.9446   -1.9023    3.2523 O.3       1 RES1    0.0000
     52 O7         2.8385   -1.6872    1.4271 O.2       1 RES1    0.0000
     53 O8         4.5207   -3.1541    1.3318 O.3       1 RES1    0.0000
@<TRIPOS>BOND
     1    1    2 ar
     2    2    3 1
     3    4    2 ar
     4    5    4 1
     5    6    4 ar
     6    7    6 1
     7    8    6 ar
     8    9    8 1
     9   10    1 ar
    10   11   43 1
    11   12   13 1
    12   13   14 1
    13   15   13 1
    14   16   13 1
    15   17   12 1
    16   18   17 1
    17   19   17 1
    18   20   17 1
    19   21   12 1
    20   22   21 1
    21   23   21 1
    22   24   21 1
    23   25   10 1
    24   26   25 1
    25   27   25 1
    26   28   27 1
    27   29   27 1
    28   30   25 1
    29   31   30 1
    30   32   33 1
    31   34   32 1
    32   35   30 1
    33   36   35 1
    34   37   35 1
    35   38   30 1
    36   39   40 1
    37   41   39 1
    38   42   39 1
    39   43    1 1
    40   44   43 1
    41   45   27 1
    42   46   11 2
    43   47   11 1
    44   48   45 2
    45   49   45 2
    46   50   31 2
    47   51   31 1
    48   52   38 2
    49   53   38 1
    50    8   10 ar
    51   12   47 1
    52   32   35 1
    53   32   51 1
    54   39   53 1
@<TRIPOS>SUBSTRUCTURE
     1 RES1 1

@<TRIPOS>CRYSIN
   7.8240   13.3590   20.5454  90.0000  90.0000  90.0000  19 1

