# MOL2 file generated by ConQuest
# Please check atom types

@<TRIPOS>MOLECULE
RUTCUE
    24    26     1
SMALL
NO_CHARGES
****
Generated from CSD

@<TRIPOS>ATOM
      1 O1         0.7570    7.9332    6.6177 O.3       1 RES1    0.0000
      2 N1         1.4037    9.1792    6.3796 N.2       1 RES1    0.0000
      3 C1         2.0175    9.0495    5.2389 C.2       1 RES1    0.0000
      4 C2         1.8054    7.7591    4.6737 C.2       1 RES1    0.0000
      5 N2         2.3762    7.3222    3.4806 N.2       1 RES1    0.0000
      6 C3         1.9434    6.3561    2.8051 C.2       1 RES1    0.0000
      7 N3         0.7881    5.5471    3.0888 N.pl3     1 RES1    0.0000
      8 N4         0.1259    4.9258    2.0658 N.2       1 RES1    0.0000
      9 N5        -0.8708    4.3250    2.6147 N.2       1 RES1    0.0000
     10 N6        -0.9019    4.5298    3.9588 N.2       1 RES1    0.0000
     11 C4         0.1328    5.2911    4.2424 C.2       1 RES1    0.0000
     12 C5         0.5001    5.7280    5.6117 C.3       1 RES1    0.0000
     13 C6         1.0346    7.1242    5.5817 C.2       1 RES1    0.0000
     14 O2         2.4849    5.9226    1.6760 O.3       1 RES1    0.0000
     15 C7         3.6281    6.6599    1.2162 C.3       1 RES1    0.0000
     16 C8         2.8159   10.1555    4.6485 C.3       1 RES1    0.0000
     17 H1         1.1416    5.0794    5.9327 H         1 RES1    0.0000
     18 H2        -0.2931    5.6188    6.1844 H         1 RES1    0.0000
     19 H3         4.2851    6.7111    1.7767 H         1 RES1    0.0000
     20 H4         3.9316    6.3152    0.4993 H         1 RES1    0.0000
     21 H5         3.3660    7.6567    1.1264 H         1 RES1    0.0000
     22 H6         3.7454    9.8516    4.3941 H         1 RES1    0.0000
     23 H7         2.7142   10.9065    5.2035 H         1 RES1    0.0000
     24 H8         2.4607   10.3978    3.7438 H         1 RES1    0.0000
@<TRIPOS>BOND
     1    1    2 1
     2    2    3 2
     3    3    4 1
     4    4    5 1
     5    5    6 2
     6    6    7 1
     7    7    8 1
     8    8    9 2
     9    9   10 1
    10   10   11 2
    11   11    7 1
    12   12   11 1
    13   13    1 1
    14   14    6 1
    15   15   14 1
    16   16    3 1
    17   17   12 1
    18   18   12 1
    19   19   15 1
    20   20   15 1
    21   21   15 1
    22   22   16 1
    23   23   16 1
    24   24   16 1
    25    4   13 2
    26   12   13 1
@<TRIPOS>SUBSTRUCTURE
     1 RES1 1

@<TRIPOS>CRYSIN
  17.2440   34.1360    6.8020  90.0000  90.0000  90.0000  43 1

