# MOL2 file generated by ConQuest
# Please check atom types

@<TRIPOS>MOLECULE
RUTPED
    61    65     1
SMALL
NO_CHARGES
****
Generated from CSD

@<TRIPOS>ATOM
      1 C1         7.6895    6.2559   14.0722 C.ar      1 RES1    0.0000
      2 H1         7.0008    6.1508   14.6884 H         1 RES1    0.0000
      3 C2         7.7099    7.3423   13.2379 C.ar      1 RES1    0.0000
      4 H2         7.0422    7.9853   13.3033 H         1 RES1    0.0000
      5 C3         8.7183    7.4935   12.2952 C.ar      1 RES1    0.0000
      6 H3         8.7180    8.2342   11.7328 H         1 RES1    0.0000
      7 C4         9.7204    6.5499   12.1876 C.ar      1 RES1    0.0000
      8 C5         9.7082    5.4643   13.0700 C.ar      1 RES1    0.0000
      9 H4        10.3893    4.8328   13.0348 H         1 RES1    0.0000
     10 C6         8.6927    5.3247   13.9897 C.ar      1 RES1    0.0000
     11 H5         8.6877    4.5905   14.5606 H         1 RES1    0.0000
     12 C7         7.7530   11.1461   10.6631 C.ar      1 RES1    0.0000
     13 H6         7.3662   11.7579   11.2470 H         1 RES1    0.0000
     14 C8         9.0970   10.9441   10.6823 C.ar      1 RES1    0.0000
     15 H7         9.6331   11.4369   11.2598 H         1 RES1    0.0000
     16 C9         9.6670   10.0112    9.8434 C.ar      1 RES1    0.0000
     17 H8        10.5883    9.8807    9.8619 H         1 RES1    0.0000
     18 C10        8.8905    9.2648    8.9710 C.ar      1 RES1    0.0000
     19 C11        7.5397    9.5087    8.9499 C.ar      1 RES1    0.0000
     20 H9         6.9992    9.0316    8.3617 H         1 RES1    0.0000
     21 C12        6.9678   10.4457    9.7809 C.ar      1 RES1    0.0000
     22 H10        6.0530   10.6042    9.7447 H         1 RES1    0.0000
     23 C13        6.4994    4.3269    5.9559 C.ar      1 RES1    0.0000
     24 H11        6.0651    3.8966    5.2548 H         1 RES1    0.0000
     25 C14        5.8012    5.1678    6.7529 C.ar      1 RES1    0.0000
     26 H12        4.9004    5.3288    6.5909 H         1 RES1    0.0000
     27 C15        6.4585    5.8018    7.8333 C.ar      1 RES1    0.0000
     28 H13        5.9824    6.3602    8.4043 H         1 RES1    0.0000
     29 C16        7.8052    5.5907    8.0380 C.ar      1 RES1    0.0000
     30 C17        8.4779    4.7194    7.1940 C.ar      1 RES1    0.0000
     31 H14        9.3838    4.5527    7.3261 H         1 RES1    0.0000
     32 C18        7.8052    4.1003    6.1590 C.ar      1 RES1    0.0000
     33 H15        8.2632    3.5188    5.5958 H         1 RES1    0.0000
     34 C19        8.4968    6.2042    9.2309 C.3       1 RES1    0.0000
     35 H16        7.8916    6.8275    9.6637 H         1 RES1    0.0000
     36 H17        8.7092    5.5053    9.8683 H         1 RES1    0.0000
     37 C20        9.5113    8.1792    8.1461 C.3       1 RES1    0.0000
     38 H18        8.9432    8.0100    7.3794 H         1 RES1    0.0000
     39 H19       10.3665    8.4937    7.8141 H         1 RES1    0.0000
     40 C21       11.8864    3.3472    5.8398 C.ar      1 RES1    0.0000
     41 C22       12.2277    3.2298    7.1697 C.ar      1 RES1    0.0000
     42 H20       12.2961    2.3938    7.5712 H         1 RES1    0.0000
     43 C23       12.4628    4.3778    7.8876 C.ar      1 RES1    0.0000
     44 H21       12.6956    4.3138    8.7858 H         1 RES1    0.0000
     45 C24       12.3616    5.6252    7.3037 C.ar      1 RES1    0.0000
     46 C25       12.0367    5.7032    5.9551 C.ar      1 RES1    0.0000
     47 H22       11.9794    6.5368    5.5447 H         1 RES1    0.0000
     48 C26       11.7972    4.5675    5.2159 C.ar      1 RES1    0.0000
     49 H23       11.5792    4.6242    4.3130 H         1 RES1    0.0000
     50 C27       12.6547    6.8792    8.0924 C.3       1 RES1    0.0000
     51 H24       13.6159    6.9843    8.1785 H         1 RES1    0.0000
     52 H25       12.3129    7.6470    7.6074 H         1 RES1    0.0000
     53 C28       10.7452    6.8546    9.8093 C.2       1 RES1    0.0000
     54 C29       10.7986    6.6599   11.1846 C.2       1 RES1    0.0000
     55 N1        12.0983    6.5211   11.5411 N.2       1 RES1    0.0000
     56 N2        12.8641    6.6460   10.4831 N.2       1 RES1    0.0000
     57 N3        12.0549    6.8455    9.4242 N.pl3     1 RES1    0.0000
     58 N4         9.7249    6.9063    8.8644 N.3       1 RES1    0.0000
     59 N5        11.5922    2.1343    5.0718 N.pl3     1 RES1    0.0000
     60 O1        11.6540    1.0593    5.6412 O.2       1 RES1    0.0000
     61 O2        11.3242    2.2394    3.8830 O.2       1 RES1    0.0000
@<TRIPOS>BOND
     1    1    2 1
     2    3    1 ar
     3    4    3 1
     4    5    3 ar
     5    6    5 1
     6    7    5 ar
     7    8    7 ar
     8    9    8 1
     9   10    1 ar
    10   11   10 1
    11   12   13 1
    12   14   12 ar
    13   15   14 1
    14   16   14 ar
    15   17   16 1
    16   18   16 ar
    17   19   18 ar
    18   20   19 1
    19   21   12 ar
    20   22   21 1
    21   23   24 1
    22   25   23 ar
    23   26   25 1
    24   27   25 ar
    25   28   27 1
    26   29   27 ar
    27   30   29 ar
    28   31   30 1
    29   32   23 ar
    30   33   32 1
    31   34   29 1
    32   35   34 1
    33   36   34 1
    34   37   18 1
    35   38   37 1
    36   39   37 1
    37   40   41 ar
    38   41   42 1
    39   43   41 ar
    40   44   43 1
    41   45   43 ar
    42   46   45 ar
    43   47   46 1
    44   48   40 ar
    45   49   48 1
    46   50   45 1
    47   51   50 1
    48   52   50 1
    49   53   54 2
    50   54    7 1
    51   55   54 1
    52   56   55 2
    53   57   50 1
    54   58   34 1
    55   59   40 1
    56   60   59 2
    57   61   59 2
    58    8   10 ar
    59   19   21 ar
    60   30   32 ar
    61   37   58 1
    62   46   48 ar
    63   53   57 1
    64   53   58 1
    65   56   57 1
@<TRIPOS>SUBSTRUCTURE
     1 RES1 1

@<TRIPOS>CRYSIN
  14.1870    8.2120   21.4700  90.0000  97.0170  90.0000  14 1

