# MOL2 file generated by ConQuest
# Please check atom types

@<TRIPOS>MOLECULE
RUTQOO
    42    44     1
SMALL
NO_CHARGES
****
Generated from CSD

@<TRIPOS>ATOM
      1 O1         6.9735    4.8200    1.9732 O.3       1 RES1    0.0000
      2 O2        11.3588    3.8143    0.7827 O.3       1 RES1    0.0000
      3 O3         0.4475    4.0944    7.0674 O.2       1 RES1    0.0000
      4 O4         1.5409    3.0454    8.5819 O.2       1 RES1    0.0000
      5 N1         5.9947    3.8327    4.1688 N.2       1 RES1    0.0000
      6 N2         1.4666    3.5704    7.4876 N.pl3     1 RES1    0.0000
      7 C1         2.6527    3.6010    6.6385 C.ar      1 RES1    0.0000
      8 C2         3.8009    3.0034    7.0706 C.ar      1 RES1    0.0000
      9 C3         4.9292    3.0502    6.2721 C.ar      1 RES1    0.0000
     10 C4         4.9040    3.7060    5.0537 C.ar      1 RES1    0.0000
     11 C5         3.7226    4.2971    4.6483 C.ar      1 RES1    0.0000
     12 C6         2.5965    4.2416    5.4345 C.ar      1 RES1    0.0000
     13 C7         7.1183    3.2435    4.3681 C.2       1 RES1    0.0000
     14 C8         8.2189    3.3893    3.4575 C.ar      1 RES1    0.0000
     15 C9         9.4347    2.7710    3.7135 C.ar      1 RES1    0.0000
     16 C10       10.5236    2.8953    2.8730 C.ar      1 RES1    0.0000
     17 C11       10.3811    3.6565    1.7137 C.ar      1 RES1    0.0000
     18 C12        9.1831    4.2808    1.4202 C.ar      1 RES1    0.0000
     19 C13        8.1161    4.1745    2.2802 C.ar      1 RES1    0.0000
     20 C14       12.6548    3.3323    1.0694 C.3       1 RES1    0.0000
     21 C15       13.5321    3.5551   -0.1299 C.ar      1 RES1    0.0000
     22 C16       14.4999    2.6381   -0.4370 C.ar      1 RES1    0.0000
     23 C17       15.3532    2.8437   -1.5098 C.ar      1 RES1    0.0000
     24 C18       15.2323    3.9567   -2.2785 C.ar      1 RES1    0.0000
     25 C19       14.2704    4.8593   -1.9884 C.ar      1 RES1    0.0000
     26 C20       13.4259    4.6709   -0.9179 C.ar      1 RES1    0.0000
     27 H1         6.4165    4.6834    2.5592 H         1 RES1    0.0000
     28 H2         3.8246    2.5700    7.8930 H         1 RES1    0.0000
     29 H3         5.7121    2.6368    6.5566 H         1 RES1    0.0000
     30 H4         3.6888    4.7389    3.8307 H         1 RES1    0.0000
     31 H5         1.8042    4.6363    5.1494 H         1 RES1    0.0000
     32 H6         7.2534    2.6391    5.1467 H         1 RES1    0.0000
     33 H7         9.5196    2.2528    4.4810 H         1 RES1    0.0000
     34 H8        11.3315    2.4822    3.0754 H         1 RES1    0.0000
     35 H9         9.0986    4.7746    0.6369 H         1 RES1    0.0000
     36 H10       12.6165    2.3866    1.2802 H         1 RES1    0.0000
     37 H11       13.0192    3.8013    1.8366 H         1 RES1    0.0000
     38 H12       14.5862    1.8695    0.0797 H         1 RES1    0.0000
     39 H13       16.0118    2.2167   -1.7046 H         1 RES1    0.0000
     40 H14       15.8058    4.0953   -2.9971 H         1 RES1    0.0000
     41 H15       14.1776    5.6178   -2.5180 H         1 RES1    0.0000
     42 H16       12.7756    5.3076   -0.7280 H         1 RES1    0.0000
@<TRIPOS>BOND
     1    1   19 1
     2    2   17 1
     3    3    6 2
     4    4    6 2
     5    5   10 1
     6    6    7 1
     7    7    8 ar
     8    8    9 ar
     9    9   10 ar
    10   10   11 ar
    11   11   12 ar
    12   12    7 ar
    13   13    5 2
    14   14   13 1
    15   15   14 ar
    16   16   15 ar
    17   17   16 ar
    18   18   17 ar
    19   19   14 ar
    20   20    2 1
    21   21   20 1
    22   22   21 ar
    23   23   22 ar
    24   24   23 ar
    25   25   24 ar
    26   26   21 ar
    27   27    1 1
    28   28    8 1
    29   29    9 1
    30   30   11 1
    31   31   12 1
    32   32   13 1
    33   33   15 1
    34   34   16 1
    35   35   18 1
    36   36   20 1
    37   37   20 1
    38   38   22 1
    39   39   23 1
    40   40   24 1
    41   41   25 1
    42   42   26 1
    43   18   19 ar
    44   25   26 ar
@<TRIPOS>SUBSTRUCTURE
     1 RES1 1

@<TRIPOS>CRYSIN
  15.3407    9.5618   11.7616  90.0000 100.6150  90.0000  14 1

