# MOL2 file generated by ConQuest
# Please check atom types

@<TRIPOS>MOLECULE
RUVSAC
    22    22     1
SMALL
NO_CHARGES
****
Generated from CSD

@<TRIPOS>ATOM
      1 O1         6.3060    3.4356    2.9730 O.2       1 RES1    0.0000
      2 O2         6.0296    5.4842    2.4305 O.2       1 RES1    0.0000
      3 O3         1.4299    5.6452    0.4442 O.3       1 RES1    0.0000
      4 O4         0.6979    3.1983    0.2369 O.3       1 RES1    0.0000
      5 N1         5.6614    4.3227    2.4440 N.pl3     1 RES1    0.0000
      6 C1         4.3636    3.9942    1.8523 C.ar      1 RES1    0.0000
      7 C2         3.5529    5.0297    1.4296 C.ar      1 RES1    0.0000
      8 C3         2.3216    4.7326    0.8912 C.ar      1 RES1    0.0000
      9 C4         1.9229    3.3805    0.7754 C.ar      1 RES1    0.0000
     10 C5         2.7686    2.3765    1.1893 C.ar      1 RES1    0.0000
     11 C6         3.9998    2.6751    1.7379 C.ar      1 RES1    0.0000
     12 C7         1.8246    7.0188    0.4725 C.3       1 RES1    0.0000
     13 C8         0.2026    1.8595    0.1447 C.3       1 RES1    0.0000
     14 H1         3.8181    5.9001    1.5488 H         1 RES1    0.0000
     15 H2         2.5011    1.4540    1.0715 H         1 RES1    0.0000
     16 H3         4.5629    2.0102    2.0610 H         1 RES1    0.0000
     17 H4         1.0299    7.4658    0.0915 H         1 RES1    0.0000
     18 H5         2.0226    7.3201    1.4061 H         1 RES1    0.0000
     19 H6         2.6103    7.1306   -0.0512 H         1 RES1    0.0000
     20 H7        -0.6869    1.9851   -0.1615 H         1 RES1    0.0000
     21 H8         0.7814    1.3786   -0.5230 H         1 RES1    0.0000
     22 H9         0.1782    1.4213    1.0601 H         1 RES1    0.0000
@<TRIPOS>BOND
     1    1    5 2
     2    2    5 2
     3    3    8 1
     4    4    9 1
     5    5    6 1
     6    6    7 ar
     7    7    8 ar
     8    8    9 ar
     9    9   10 ar
    10   10   11 ar
    11   11    6 ar
    12   12    3 1
    13   13    4 1
    14   14    7 1
    15   15   10 1
    16   16   11 1
    17   17   12 1
    18   18   12 1
    19   19   12 1
    20   20   13 1
    21   21   13 1
    22   22   13 1
@<TRIPOS>SUBSTRUCTURE
     1 RES1 1

@<TRIPOS>CRYSIN
  10.3810   12.5560    6.8830  90.0000 102.0700  90.0000  14 1

