# MOL2 file generated by ConQuest
# Please check atom types

@<TRIPOS>MOLECULE
RUVTAD01
    33    34     1
SMALL
NO_CHARGES
****
Generated from CSD

@<TRIPOS>ATOM
      1 N1        -2.9922    6.6596    5.3494 N.3       1 RES1    0.0000
      2 H1        -3.6279    6.0808    5.3399 H         1 RES1    0.0000
      3 N2        -4.3662   11.8978    4.0413 N.pl3     1 RES1    0.0000
      4 C1        -4.0075   10.5401    4.3331 C.ar      1 RES1    0.0000
      5 C2        -4.9498    9.5272    4.2392 C.ar      1 RES1    0.0000
      6 H2        -5.8158    9.7197    3.9624 H         1 RES1    0.0000
      7 C3        -4.5978    8.2387    4.5561 C.ar      1 RES1    0.0000
      8 H3        -5.2264    7.5582    4.4782 H         1 RES1    0.0000
      9 C4        -3.2912    7.9327    5.0003 C.ar      1 RES1    0.0000
     10 C5        -2.3533    8.9823    5.0618 C.ar      1 RES1    0.0000
     11 H4        -1.4804    8.8020    5.3284 H         1 RES1    0.0000
     12 C6        -2.7095   10.2657    4.7345 C.ar      1 RES1    0.0000
     13 H5        -2.0823   10.9506    4.7823 H         1 RES1    0.0000
     14 C7        -1.6683    6.2065    5.7391 C.3       1 RES1    0.0000
     15 H6        -1.2771    6.8782    6.3358 H         1 RES1    0.0000
     16 C8        -1.7585    4.8852    6.4987 C.3       1 RES1    0.0000
     17 H7        -2.1106    4.2106    5.8809 H         1 RES1    0.0000
     18 C9        -0.3678    4.4400    6.9258 C.3       1 RES1    0.0000
     19 H8        -0.4332    3.5912    7.3914 H         1 RES1    0.0000
     20 H9         0.0003    5.0915    7.5422 H         1 RES1    0.0000
     21 C10        0.5707    4.2883    5.7377 C.3       1 RES1    0.0000
     22 H10        1.4572    4.0515    6.0533 H         1 RES1    0.0000
     23 H11        0.2550    3.5723    5.1650 H         1 RES1    0.0000
     24 C11        0.6461    5.5722    4.9435 C.3       1 RES1    0.0000
     25 H12        1.1845    5.4305    4.1487 H         1 RES1    0.0000
     26 H13        1.0737    6.2597    5.4780 H         1 RES1    0.0000
     27 C12       -0.7410    6.0326    4.5404 C.3       1 RES1    0.0000
     28 H14       -1.1270    5.3828    3.9320 H         1 RES1    0.0000
     29 H15       -0.6708    6.8772    4.0676 H         1 RES1    0.0000
     30 O1        -2.6389    4.9522    7.6135 O.3       1 RES1    0.0000
     31 H16       -2.6229    5.7089    7.9299 H         1 RES1    0.0000
     32 O2        -5.5615   12.1661    3.8475 O.2       1 RES1    0.0000
     33 O3        -3.4878   12.7617    3.9949 O.2       1 RES1    0.0000
@<TRIPOS>BOND
     1    1    2 1
     2    3    4 1
     3    4    5 ar
     4    5    6 1
     5    7    5 ar
     6    8    7 1
     7    9    1 1
     8   10    9 ar
     9   11   10 1
    10   12    4 ar
    11   13   12 1
    12   14    1 1
    13   15   14 1
    14   16   14 1
    15   17   16 1
    16   18   16 1
    17   19   18 1
    18   20   18 1
    19   21   18 1
    20   22   21 1
    21   23   21 1
    22   24   21 1
    23   25   24 1
    24   26   24 1
    25   27   14 1
    26   28   27 1
    27   29   27 1
    28   30   16 1
    29   31   30 1
    30   32    3 2
    31   33    3 2
    32    7    9 ar
    33   10   12 ar
    34   24   27 1
@<TRIPOS>SUBSTRUCTURE
     1 RES1 1

@<TRIPOS>CRYSIN
  18.6930    9.9424   14.9984  90.0000 122.3420  90.0000  15 1

