# MOL2 file generated by ConQuest
# Please check atom types

@<TRIPOS>MOLECULE
RUWYEP
    60    63     1
SMALL
NO_CHARGES
****
Generated from CSD

@<TRIPOS>ATOM
      1 N1         4.5821    0.7743    2.5989 N.2       1 RES1    0.0000
      2 N2         6.1163    4.4155    5.1067 N.3       1 RES1    0.0000
      3 O1         5.0273    3.4450    5.1042 O.3       1 RES1    0.0000
      4 C1         3.5623    0.0228    2.3868 C.2       1 RES1    0.0000
      5 C2         2.3449    0.3422    3.2409 C.3       1 RES1    0.0000
      6 H1         1.9221   -0.4802    3.5957 H         1 RES1    0.0000
      7 H2         1.6732    0.8660    2.7372 H         1 RES1    0.0000
      8 C3         2.9902    1.1767    4.3623 C.3       1 RES1    0.0000
      9 H3         2.3683    1.8928    4.6784 H         1 RES1    0.0000
     10 C4         3.4040    0.2550    5.5224 C.3       1 RES1    0.0000
     11 H4         2.6176    0.0961    6.1022 H         1 RES1    0.0000
     12 H5         3.6880   -0.6183    5.1530 H         1 RES1    0.0000
     13 C5         4.5389    0.8262    6.3732 C.3       1 RES1    0.0000
     14 H6         4.7936    0.1752    7.0744 H         1 RES1    0.0000
     15 H7         4.2393    1.6586    6.8174 H         1 RES1    0.0000
     16 C6         5.7427    1.1209    5.4770 C.3       1 RES1    0.0000
     17 H8         6.5047    1.4197    6.0346 H         1 RES1    0.0000
     18 H9         6.0132    0.2946    5.0030 H         1 RES1    0.0000
     19 C7         5.4021    2.2030    4.4582 C.3       1 RES1    0.0000
     20 H10        6.1898    2.3609    3.8627 H         1 RES1    0.0000
     21 C8         4.1964    1.7846    3.6107 C.3       1 RES1    0.0000
     22 H11        3.8726    2.5952    3.1228 H         1 RES1    0.0000
     23 C9         3.5899   -1.0584    1.3778 C.ar      1 RES1    0.0000
     24 C10        4.7587   -1.3079    0.6461 C.ar      1 RES1    0.0000
     25 H12        5.5291   -0.7703    0.7893 H         1 RES1    0.0000
     26 C11        4.7989   -2.3357   -0.2877 C.ar      1 RES1    0.0000
     27 H13        5.5942   -2.4969   -0.7811 H         1 RES1    0.0000
     28 C12        3.6756   -3.1296   -0.5008 C.ar      1 RES1    0.0000
     29 H14        3.7077   -3.8390   -1.1321 H         1 RES1    0.0000
     30 C13        2.5097   -2.8839    0.2088 C.ar      1 RES1    0.0000
     31 H15        1.7416   -3.4223    0.0593 H         1 RES1    0.0000
     32 C14        2.4625   -1.8491    1.1412 C.ar      1 RES1    0.0000
     33 H16        1.6586   -1.6809    1.6182 H         1 RES1    0.0000
     34 C15        6.2920    4.8669    6.5244 C.3       1 RES1    0.0000
     35 C16        7.3650    5.9630    6.4977 C.3       1 RES1    0.0000
     36 H17        7.5113    6.2932    7.4188 H         1 RES1    0.0000
     37 H18        8.2167    5.5725    6.1780 H         1 RES1    0.0000
     38 C17        6.9915    7.1367    5.6045 C.3       1 RES1    0.0000
     39 H19        7.7139    7.8136    5.6144 H         1 RES1    0.0000
     40 H20        6.1598    7.5621    5.9324 H         1 RES1    0.0000
     41 C18        6.7858    6.6140    4.1894 C.3       1 RES1    0.0000
     42 H21        7.6559    6.2991    3.8380 H         1 RES1    0.0000
     43 H22        6.4829    7.3618    3.6155 H         1 RES1    0.0000
     44 C19        5.7639    5.4643    4.0838 C.3       1 RES1    0.0000
     45 C20        6.8579    3.6939    7.3335 C.3       1 RES1    0.0000
     46 H23        6.1662    3.0082    7.4419 H         1 RES1    0.0000
     47 H24        7.1430    4.0124    8.2148 H         1 RES1    0.0000
     48 H25        7.6262    3.3112    6.8602 H         1 RES1    0.0000
     49 C21        5.0117    5.3448    7.2379 C.3       1 RES1    0.0000
     50 H26        4.7371    6.2112    6.8701 H         1 RES1    0.0000
     51 H27        5.1878    5.4385    8.1983 H         1 RES1    0.0000
     52 H28        4.2961    4.6897    7.0991 H         1 RES1    0.0000
     53 C22        5.9518    4.8309    2.6988 C.3       1 RES1    0.0000
     54 H29        6.8322    4.4027    2.6515 H         1 RES1    0.0000
     55 H30        5.8895    5.5260    2.0104 H         1 RES1    0.0000
     56 H31        5.2539    4.1597    2.5493 H         1 RES1    0.0000
     57 C23        4.3240    5.9998    4.1715 C.3       1 RES1    0.0000
     58 H32        3.7041    5.2516    4.2977 H         1 RES1    0.0000
     59 H33        4.1003    6.4722    3.3419 H         1 RES1    0.0000
     60 H34        4.2506    6.6166    4.9289 H         1 RES1    0.0000
@<TRIPOS>BOND
     1    1    4 2
     2    2    3 1
     3    3   19 1
     4    4    5 1
     5    5    6 1
     6    7    5 1
     7    8    5 1
     8    9    8 1
     9   10    8 1
    10   11   10 1
    11   12   10 1
    12   13   10 1
    13   14   13 1
    14   15   13 1
    15   16   13 1
    16   17   16 1
    17   18   16 1
    18   19   16 1
    19   20   19 1
    20   21    1 1
    21   22   21 1
    22   23    4 1
    23   24   23 ar
    24   25   24 1
    25   26   24 ar
    26   27   26 1
    27   28   26 ar
    28   29   28 1
    29   30   28 ar
    30   31   30 1
    31   32   23 ar
    32   33   32 1
    33   34    2 1
    34   35   34 1
    35   36   35 1
    36   37   35 1
    37   38   35 1
    38   39   38 1
    39   40   38 1
    40   41   38 1
    41   42   41 1
    42   43   41 1
    43   44    2 1
    44   45   34 1
    45   46   45 1
    46   47   45 1
    47   48   45 1
    48   49   34 1
    49   50   49 1
    50   51   49 1
    51   52   49 1
    52   53   44 1
    53   54   53 1
    54   55   53 1
    55   56   53 1
    56   57   44 1
    57   58   57 1
    58   59   57 1
    59   60   57 1
    60    8   21 1
    61   19   21 1
    62   30   32 ar
    63   41   44 1
@<TRIPOS>SUBSTRUCTURE
     1 RES1 1

@<TRIPOS>CRYSIN
   6.1983    9.7636   17.0724  75.8660  84.1070  87.7550   2 1

