# MOL2 file generated by ConQuest
# Please check atom types

@<TRIPOS>MOLECULE
RUXNEF
    44    45     1
SMALL
USER_CHARGES
****
Generated from CSD

@<TRIPOS>ATOM
      1 O1        -3.6971    4.8234   10.2207 O.2       1 RES1   -1.0000
      2 O2         0.6603    2.2812   13.8608 O.2       1 RES1    0.0000
      3 O3        -1.0131    2.2957   15.2350 O.2       1 RES1    0.0000
      4 O4         0.3992    3.3633    7.3563 O.3       1 RES1    0.0000
      5 H1         1.1237    3.7350    7.5601 H         1 RES1    0.0000
      6 O5        -1.2532    1.1059    9.3711 O.2       1 RES1   -1.0000
      7 O6        -7.3867    1.3689   10.3740 O.2       1 RES1    0.0000
      8 O7        -6.8052   -0.2030   11.7536 O.2       1 RES1    0.0000
      9 N1        -0.5173    2.5359   14.1314 N.pl3     1 RES1    0.0000
     10 N2        -1.4436    5.1765    8.7880 N.pl3     1 RES1    1.0000
     11 H2        -2.3083    5.2189    8.7786 H         1 RES1    0.0000
     12 N3        -2.0583    2.6302    7.4165 N.pl3     1 RES1    1.0000
     13 H3        -1.3977    2.2263    7.8305 H         1 RES1    0.0000
     14 N4        -6.5252    0.6720   10.9304 N.pl3     1 RES1    0.0000
     15 C1        -2.9738    4.3201   11.1260 C.ar      1 RES1    0.0000
     16 C2        -1.5331    4.2404   11.0004 C.ar      1 RES1    0.0000
     17 C3        -0.7514    3.6543   12.0001 C.ar      1 RES1    0.0000
     18 H4         0.1914    3.6087   11.9002 H         1 RES1    0.0000
     19 C4        -1.3446    3.1458   13.1199 C.ar      1 RES1    0.0000
     20 C5        -2.7416    3.2163   13.3065 C.ar      1 RES1    0.0000
     21 H5        -3.1363    2.8704   14.0966 H         1 RES1    0.0000
     22 C6        -3.5187    3.7858   12.3409 C.ar      1 RES1    0.0000
     23 H6        -4.4564    3.8303   12.4796 H         1 RES1    0.0000
     24 C7        -0.8600    4.6991    9.8366 C.2       1 RES1    0.0000
     25 H7         0.0887    4.6504    9.8285 H         1 RES1    0.0000
     26 C8        -0.7291    5.5130    7.5571 C.3       1 RES1    0.0000
     27 H8         0.1230    5.9634    7.7883 H         1 RES1    0.0000
     28 H9        -1.2742    6.1488    7.0299 H         1 RES1    0.0000
     29 C9        -0.4259    4.2787    6.6980 C.3       1 RES1    0.0000
     30 H10        0.0378    4.5800    5.8658 H         1 RES1    0.0000
     31 C10       -1.6547    3.4679    6.2970 C.3       1 RES1    0.0000
     32 H11       -2.3938    4.0778    6.0484 H         1 RES1    0.0000
     33 H12       -1.4427    2.9015    5.5129 H         1 RES1    0.0000
     34 C11       -3.2445    2.5080    7.8912 C.2       1 RES1    0.0000
     35 H13       -3.9613    2.9532    7.4565 H         1 RES1    0.0000
     36 C12       -2.4594    1.0852    9.7909 C.ar      1 RES1    0.0000
     37 C13       -3.5213    1.7251    9.0525 C.ar      1 RES1    0.0000
     38 C14       -4.8443    1.6133    9.4684 C.ar      1 RES1    0.0000
     39 H14       -5.5383    2.0399    8.9787 H         1 RES1    0.0000
     40 C15       -5.1393    0.8854   10.5869 C.ar      1 RES1    0.0000
     41 C16       -4.1312    0.2858   11.3647 C.ar      1 RES1    0.0000
     42 H15       -4.3592   -0.2019   12.1478 H         1 RES1    0.0000
     43 C17       -2.8283    0.4080   10.9918 C.ar      1 RES1    0.0000
     44 H16       -2.1492    0.0352   11.5421 H         1 RES1    0.0000
@<TRIPOS>BOND
     1    1   15 1
     2    2    9 2
     3    3    9 2
     4    4    5 1
     5    6   36 1
     6    7   14 2
     7    8   14 2
     8    9   19 1
     9   10   11 1
    10   12   13 1
    11   14   40 1
    12   15   16 ar
    13   16   17 ar
    14   17   18 1
    15   19   17 ar
    16   20   19 ar
    17   21   20 1
    18   22   15 ar
    19   23   22 1
    20   24   10 2
    21   25   24 1
    22   26   10 1
    23   27   26 1
    24   28   26 1
    25   29    4 1
    26   30   29 1
    27   31   12 1
    28   32   31 1
    29   33   31 1
    30   34   12 2
    31   35   34 1
    32   36   37 ar
    33   37   34 1
    34   38   37 ar
    35   39   38 1
    36   40   38 ar
    37   41   40 ar
    38   42   41 1
    39   43   36 ar
    40   44   43 1
    41   16   24 1
    42   20   22 ar
    43   26   29 1
    44   29   31 1
    45   41   43 ar
@<TRIPOS>SUBSTRUCTURE
     1 RES1 1

@<TRIPOS>CRYSIN
  18.3880   10.3550   19.1590  90.0000 113.5960  90.0000  15 1

