# MOL2 file generated by ConQuest
# Please check atom types

@<TRIPOS>MOLECULE
RUZXIU
    52    55     1
SMALL
NO_CHARGES
****
Generated from CSD

@<TRIPOS>ATOM
      1 O1         3.6765   10.5499    9.5995 O.3       1 RES1    0.0000
      2 H1         3.8069    9.7459    9.8018 H         1 RES1    0.0000
      3 O2         1.3240   12.5597    9.0853 O.3       1 RES1    0.0000
      4 O3         0.9636   14.3902   10.3344 O.2       1 RES1    0.0000
      5 N1         4.1422   15.9600   15.1543 N.pl3     1 RES1    0.0000
      6 O4         3.9783   15.4547   16.2595 O.2       1 RES1    0.0000
      7 O5         4.3945   17.1530   14.9808 O.2       1 RES1    0.0000
      8 C1         3.7488   12.6851   10.5456 C.ar      1 RES1    0.0000
      9 C2         3.7443   11.3120   10.7138 C.ar      1 RES1    0.0000
     10 C3         3.7763   10.7285   11.9991 C.ar      1 RES1    0.0000
     11 H2         3.7728    9.7831   12.0894 H         1 RES1    0.0000
     12 C4         3.8126   11.5134   13.1094 C.ar      1 RES1    0.0000
     13 H3         3.8095   11.1101   13.9700 H         1 RES1    0.0000
     14 C5         3.9286   13.7590   14.1319 C.ar      1 RES1    0.0000
     15 H4         3.9101   13.3830   15.0043 H         1 RES1    0.0000
     16 C6         4.0256   15.1100   13.9692 C.ar      1 RES1    0.0000
     17 C7         4.0433   15.7196   12.7014 C.ar      1 RES1    0.0000
     18 H5         4.1263   16.6620   12.6160 H         1 RES1    0.0000
     19 C8         3.9381   14.9266   11.5970 C.ar      1 RES1    0.0000
     20 H6         3.9281   15.3311   10.7381 H         1 RES1    0.0000
     21 C9         3.8426   13.5159   11.6946 C.ar      1 RES1    0.0000
     22 C10        3.8550   12.9247   12.9961 C.ar      1 RES1    0.0000
     23 C11        3.6319   13.2480    9.1665 C.ar      1 RES1    0.0000
     24 C12        2.4419   13.1868    8.4919 C.ar      1 RES1    0.0000
     25 C13        2.2673   13.6552    7.1835 C.ar      1 RES1    0.0000
     26 H7         1.4206   13.5922    6.7580 H         1 RES1    0.0000
     27 C14        3.3339   14.2045    6.5260 C.ar      1 RES1    0.0000
     28 H8         3.2235   14.5303    5.6404 H         1 RES1    0.0000
     29 C15        5.7292   14.8079    6.4669 C.ar      1 RES1    0.0000
     30 H9         5.6347   15.1271    5.5772 H         1 RES1    0.0000
     31 C16        6.9529   14.8503    7.0754 C.ar      1 RES1    0.0000
     32 H10        7.7032   15.1925    6.6048 H         1 RES1    0.0000
     33 C17        7.1059   14.3888    8.3966 C.ar      1 RES1    0.0000
     34 H11        7.9586   14.4289    8.8145 H         1 RES1    0.0000
     35 C18        6.0358   13.8827    9.0832 C.ar      1 RES1    0.0000
     36 H12        6.1546   13.5742    9.9738 H         1 RES1    0.0000
     37 C19        4.7559   13.8136    8.4853 C.ar      1 RES1    0.0000
     38 C20        4.5994   14.2920    7.1521 C.ar      1 RES1    0.0000
     39 C21        0.6608   13.2626   10.0404 C.2       1 RES1    0.0000
     40 C22       -0.4235   12.4415   10.7097 C.3       1 RES1    0.0000
     41 C23       -1.2412   13.3603   11.6073 C.3       1 RES1    0.0000
     42 H13       -0.6493   13.7911   12.2587 H         1 RES1    0.0000
     43 H14       -1.9209   12.8350   12.0800 H         1 RES1    0.0000
     44 H15       -1.6799   14.0452   11.0605 H         1 RES1    0.0000
     45 C24        0.2883   11.3687   11.5449 C.3       1 RES1    0.0000
     46 H16        0.7931   10.7739   10.9517 H         1 RES1    0.0000
     47 H17       -0.3761   10.8470   12.0411 H         1 RES1    0.0000
     48 H18        0.9027   11.7993   12.1754 H         1 RES1    0.0000
     49 C25       -1.3291   11.7765    9.6682 C.3       1 RES1    0.0000
     50 H19       -1.7662   12.4667    9.1275 H         1 RES1    0.0000
     51 H20       -2.0100   11.2385   10.1229 H         1 RES1    0.0000
     52 H21       -0.7901   11.1987    9.0872 H         1 RES1    0.0000
@<TRIPOS>BOND
     1    1    2 1
     2    3   24 1
     3    4   39 2
     4    5    6 2
     5    7    5 2
     6    8    9 ar
     7    9    1 1
     8   10    9 ar
     9   11   10 1
    10   12   10 ar
    11   13   12 1
    12   14   15 1
    13   16    5 1
    14   17   16 ar
    15   18   17 1
    16   19   17 ar
    17   20   19 1
    18   21    8 ar
    19   22   12 ar
    20   23    8 1
    21   24   23 ar
    22   25   24 ar
    23   26   25 1
    24   27   25 ar
    25   28   27 1
    26   29   30 1
    27   31   29 ar
    28   32   31 1
    29   33   31 ar
    30   34   33 1
    31   35   33 ar
    32   36   35 1
    33   37   23 ar
    34   38   27 ar
    35   39    3 1
    36   40   39 1
    37   41   40 1
    38   42   41 1
    39   43   41 1
    40   44   41 1
    41   45   40 1
    42   46   45 1
    43   47   45 1
    44   48   45 1
    45   49   40 1
    46   50   49 1
    47   51   49 1
    48   52   49 1
    49   14   16 ar
    50   14   22 ar
    51   19   21 ar
    52   21   22 ar
    53   29   38 ar
    54   35   37 ar
    55   37   38 ar
@<TRIPOS>SUBSTRUCTURE
     1 RES1 1

@<TRIPOS>CRYSIN
  11.8749   12.8337   13.4379  90.0000  91.5970  90.0000 231 1

