# MOL2 file generated by ConQuest
# Please check atom types

@<TRIPOS>MOLECULE
RUZZET
    27    28     1
SMALL
USER_CHARGES
****
Generated from CSD

@<TRIPOS>ATOM
      1 O1         5.5817    4.4204    6.6839 O.2       1 RES1   -1.0000
      2 N1         5.7149    3.8636    5.5121 N.pl3     1 RES1    1.0000
      3 N2         4.7047    0.4308    6.0263 N.ar      1 RES1    0.0000
      4 C1         5.6698    2.0415    4.0170 C.ar      1 RES1    0.0000
      5 H1         5.5581    1.1297    3.8712 H         1 RES1    0.0000
      6 C2         5.5396    2.5244    5.3111 C.ar      1 RES1    0.0000
      7 C3         4.5467   -0.2379    8.3188 C.ar      1 RES1    0.0000
      8 H2         4.3022   -0.8926    8.9315 H         1 RES1    0.0000
      9 C4         4.3852   -0.4452    6.9726 C.ar      1 RES1    0.0000
     10 H3         4.0261   -1.2589    6.7022 H         1 RES1    0.0000
     11 C5         5.9570    2.8491    2.9361 C.ar      1 RES1    0.0000
     12 C6         5.4182    1.8853    7.7752 C.ar      1 RES1    0.0000
     13 H4         5.7849    2.7027    8.0259 H         1 RES1    0.0000
     14 C7         5.2171    1.6062    6.4335 C.ar      1 RES1    0.0000
     15 C8         5.0781    0.9594    8.7453 C.ar      1 RES1    0.0000
     16 C9         6.1097    2.2985    1.5506 C.3       1 RES1    0.0000
     17 H5         5.9653    1.3502    1.5656 H         1 RES1    0.0000
     18 H6         6.9952    2.4834    1.2284 H         1 RES1    0.0000
     19 H7         5.4655    2.7110    0.9699 H         1 RES1    0.0000
     20 C10        6.1177    4.1941    3.1946 C.ar      1 RES1    0.0000
     21 H8         6.3004    4.7796    2.4950 H         1 RES1    0.0000
     22 C11        6.0125    4.6708    4.4595 C.ar      1 RES1    0.0000
     23 H9         6.1483    5.5785    4.6123 H         1 RES1    0.0000
     24 C12        5.2540    1.2779   10.1990 C.3       1 RES1    0.0000
     25 H10        4.9584    0.5322   10.7270 H         1 RES1    0.0000
     26 H11        4.7352    2.0543   10.4220 H         1 RES1    0.0000
     27 H12        6.1807    1.4498   10.3791 H         1 RES1    0.0000
@<TRIPOS>BOND
     1    1    2 1
     2    2    6 ar
     3    3    9 ar
     4    4    5 1
     5    6    4 ar
     6    7    8 1
     7    9    7 ar
     8   10    9 1
     9   11    4 ar
    10   12   13 1
    11   14    3 ar
    12   15    7 ar
    13   16   11 1
    14   17   16 1
    15   18   16 1
    16   19   16 1
    17   20   11 ar
    18   21   20 1
    19   22    2 ar
    20   23   22 1
    21   24   15 1
    22   25   24 1
    23   26   24 1
    24   27   24 1
    25    6   14 1
    26   12   14 ar
    27   12   15 ar
    28   20   22 ar
@<TRIPOS>SUBSTRUCTURE
     1 RES1 1

@<TRIPOS>CRYSIN
   7.3479   11.8541   12.0086  90.0000  97.1600  90.0000 231 1

