# MOL2 file generated by ConQuest
# Please check atom types

@<TRIPOS>MOLECULE
SABBOO
    19    19     1
SMALL
NO_CHARGES
****
Generated from CSD

@<TRIPOS>ATOM
      1 O1         3.8103   10.7060   11.6374 O.2       1 RES1    0.0000
      2 O2         2.6967   12.5051   11.5782 O.2       1 RES1    0.0000
      3 O3         2.3100    7.5753    6.5960 O.2       1 RES1    0.0000
      4 N1         3.0826   11.4850   11.0572 N.pl3     1 RES1    0.0000
      5 C1         1.7228   13.5294    9.2393 C.3       1 RES1    0.0000
      6 H1         1.3182   13.9713    8.4891 H         1 RES1    0.0000
      7 H2         2.5379   13.9784    9.4741 H         1 RES1    0.0000
      8 H3         1.1195   13.5485    9.9863 H         1 RES1    0.0000
      9 C2         2.0238   12.1026    8.8764 C.ar      1 RES1    0.0000
     10 C3         1.6612   11.6528    7.6066 C.ar      1 RES1    0.0000
     11 H4         1.2514   12.2496    7.0227 H         1 RES1    0.0000
     12 C4         1.8824   10.3729    7.1834 C.ar      1 RES1    0.0000
     13 H5         1.6150   10.1141    6.3307 H         1 RES1    0.0000
     14 C5         2.5068    9.4536    8.0218 C.ar      1 RES1    0.0000
     15 C6         2.7353    8.0636    7.6022 C.2       1 RES1    0.0000
     16 H6         3.2485    7.5235    8.1601 H         1 RES1    0.0000
     17 C7         2.9036    9.8655    9.2780 C.ar      1 RES1    0.0000
     18 H7         3.3423    9.2720    9.8437 H         1 RES1    0.0000
     19 C8         2.6500   11.1565    9.6947 C.ar      1 RES1    0.0000
@<TRIPOS>BOND
     1    1    4 2
     2    2    4 2
     3    3   15 2
     4    4   19 1
     5    5    6 1
     6    7    5 1
     7    8    5 1
     8    9    5 1
     9   10    9 ar
    10   11   10 1
    11   12   10 ar
    12   13   12 1
    13   14   12 ar
    14   15   14 1
    15   16   15 1
    16   17   14 ar
    17   18   17 1
    18   19    9 ar
    19   17   19 ar
@<TRIPOS>SUBSTRUCTURE
     1 RES1 1

@<TRIPOS>CRYSIN
   3.9052   17.8410   11.0663  90.0000  97.6470  90.0000  14 1

