# MOL2 file generated by ConQuest
# Please check atom types

@<TRIPOS>MOLECULE
SABHUB
    68    72     2
SMALL
NO_CHARGES
****
Generated from CSD

@<TRIPOS>ATOM
      1 N1         7.3706    7.2026    0.6367 N.2       1 RES1    0.0000
      2 O1         8.7099    6.9545    0.2553 O.3       1 RES1    0.0000
      3 C1         2.0717    6.9869    5.8955 C.3       1 RES1    0.0000
      4 H1         2.5199    7.8007    6.1367 H         1 RES1    0.0000
      5 H2         1.2009    6.9712    6.2985 H         1 RES1    0.0000
      6 H3         2.5828    6.2356    6.2062 H         1 RES1    0.0000
      7 C2         1.2237    5.6242    4.0288 C.3       1 RES1    0.0000
      8 H4         0.3633    5.6107    4.4526 H         1 RES1    0.0000
      9 H5         1.1118    5.5627    3.0770 H         1 RES1    0.0000
     10 H6         1.7453    4.8808    4.3385 H         1 RES1    0.0000
     11 C3         1.0768    8.1171    3.9777 C.3       1 RES1    0.0000
     12 H7         1.5429    8.9264    4.2016 H         1 RES1    0.0000
     13 H8         0.9077    8.0958    3.0336 H         1 RES1    0.0000
     14 H9         0.2437    8.0858    4.4526 H         1 RES1    0.0000
     15 C4         1.9315    6.9131    4.3689 C.3       1 RES1    0.0000
     16 C5         3.2913    6.9299    3.6953 C.ar      1 RES1    0.0000
     17 C6         3.6062    7.7068    2.5903 C.ar      1 RES1    0.0000
     18 H10        2.9560    8.2713    2.2415 H         1 RES1    0.0000
     19 C7         4.8370    7.6755    1.9916 C.ar      1 RES1    0.0000
     20 H11        4.9975    8.2166    1.2517 H         1 RES1    0.0000
     21 C8         5.8464    6.8572    2.4642 C.ar      1 RES1    0.0000
     22 C9         5.5602    6.0747    3.5670 C.ar      1 RES1    0.0000
     23 H12        6.2166    5.5157    3.9147 H         1 RES1    0.0000
     24 C10        4.3126    6.1116    4.1592 C.ar      1 RES1    0.0000
     25 H13        4.1503    5.5671    4.8948 H         1 RES1    0.0000
     26 C11        7.1628    6.7834    1.8297 C.2       1 RES1    0.0000
     27 C12        9.3897    6.2312    1.3179 C.3       1 RES1    0.0000
     28 H14        9.6741    5.3369    1.0344 H         1 RES1    0.0000
     29 C13        8.3716    6.1798    2.4707 C.3       1 RES1    0.0000
     30 H15        8.2078    5.2642    2.7804 H         1 RES1    0.0000
     31 C14        9.0376    7.0484    3.5507 C.3       1 RES1    0.0000
     32 H16        8.4249    7.4195    4.2200 H         1 RES1    0.0000
     33 C15        9.7884    8.0858    2.7163 C.3       1 RES1    0.0000
     34 H17       10.3802    8.6402    3.2487 H         1 RES1    0.0000
     35 H18       10.3802    8.6402    3.2487 Du        2 SUP2    0.0000
     36 H17A       9.1967    8.6402    2.1839 H         1 RES1    0.0000
     37 N1A       12.2063    7.2026    4.7959 N.2       1 RES1    0.0000
     38 O1A       10.8670    6.9545    5.1773 O.3       1 RES1    0.0000
     39 C1A       17.5052    6.9869   -0.4629 C.3       1 RES1    0.0000
     40 H1A       17.0569    7.8007   -0.7041 H         1 RES1    0.0000
     41 H2A       18.3760    6.9712   -0.8660 H         1 RES1    0.0000
     42 H3A       16.9941    6.2356   -0.7736 H         1 RES1    0.0000
     43 C2A       18.3531    5.6242    1.4038 C.3       1 RES1    0.0000
     44 H4A       19.2135    5.6107    0.9800 H         1 RES1    0.0000
     45 H5A       18.4651    5.5627    2.3556 H         1 RES1    0.0000
     46 H6A       17.8315    4.8808    1.0941 H         1 RES1    0.0000
     47 C3A       18.5000    8.1171    1.4548 C.3       1 RES1    0.0000
     48 H7A       18.0339    8.9264    1.2310 H         1 RES1    0.0000
     49 H8A       18.6691    8.0958    2.3990 H         1 RES1    0.0000
     50 H9A       19.3332    8.0858    0.9800 H         1 RES1    0.0000
     51 C4A       17.6453    6.9131    1.0637 C.3       1 RES1    0.0000
     52 C5A       16.2855    6.9299    1.7373 C.ar      1 RES1    0.0000
     53 C6A       15.9706    7.7068    2.8423 C.ar      1 RES1    0.0000
     54 H10A      16.6208    8.2713    3.1911 H         1 RES1    0.0000
     55 C7A       14.7399    7.6755    3.4410 C.ar      1 RES1    0.0000
     56 H11A      14.5794    8.2166    4.1809 H         1 RES1    0.0000
     57 C8A       13.7304    6.8572    2.9684 C.ar      1 RES1    0.0000
     58 C9A       14.0166    6.0747    1.8656 C.ar      1 RES1    0.0000
     59 H12A      13.3602    5.5157    1.5179 H         1 RES1    0.0000
     60 C10A      15.2642    6.1116    1.2734 C.ar      1 RES1    0.0000
     61 H13A      15.4266    5.5671    0.5378 H         1 RES1    0.0000
     62 C11A      12.4141    6.7834    3.6029 C.2       1 RES1    0.0000
     63 C12A      10.1871    6.2312    4.1146 C.3       1 RES1    0.0000
     64 H14A       9.9027    5.3369    4.3982 H         1 RES1    0.0000
     65 C13A      11.2052    6.1798    2.9619 C.3       1 RES1    0.0000
     66 H15A      11.3691    5.2642    2.6522 H         1 RES1    0.0000
     67 C14A      10.5393    7.0484    1.8819 C.3       1 RES1    0.0000
     68 H16A      11.1519    7.4195    1.2126 H         1 RES1    0.0000
@<TRIPOS>BOND
     1    1    2 1
     2    2   27 1
     3    3    4 1
     4    5    3 1
     5    6    3 1
     6    7    8 1
     7    9    7 1
     8   10    7 1
     9   11   12 1
    10   13   11 1
    11   14   11 1
    12   15    3 1
    13   16   15 1
    14   17   16 ar
    15   18   17 1
    16   19   17 ar
    17   20   19 1
    18   21   19 ar
    19   22   21 ar
    20   23   22 1
    21   24   16 ar
    22   25   24 1
    23   26    1 2
    24   27   28 1
    25   29   26 1
    26   30   29 1
    27   31   29 1
    28   32   31 1
    29   33   31 1
    30   34   33 1
    31   36   33 1
    32   37   38 1
    33   38   63 1
    34   39   40 1
    35   41   39 1
    36   42   39 1
    37   43   44 1
    38   45   43 1
    39   46   43 1
    40   47   48 1
    41   49   47 1
    42   50   47 1
    43   51   39 1
    44   52   51 1
    45   53   52 ar
    46   54   53 1
    47   55   53 ar
    48   56   55 1
    49   57   55 ar
    50   58   57 ar
    51   59   58 1
    52   60   52 ar
    53   61   60 1
    54   62   37 2
    55   63   31 1
    56   64   63 1
    57   65   62 1
    58   66   65 1
    59   67   27 1
    60   68   67 1
    61    7   15 1
    62   11   15 1
    63   21   26 1
    64   22   24 ar
    65   27   29 1
    66   33   67 1
    67   43   51 1
    68   47   51 1
    69   57   62 1
    70   58   60 ar
    71   63   65 1
    72   65   67 1
@<TRIPOS>SUBSTRUCTURE
     1 RES1 1
     2 SUP2 35

@<TRIPOS>CRYSIN
  20.6340   11.1790   11.0690  90.0000 101.0120  90.0000  15 1

