# MOL2 file generated by ConQuest
# Please check atom types

@<TRIPOS>MOLECULE
SABJEM
    38    39     1
SMALL
NO_CHARGES
****
Generated from CSD

@<TRIPOS>ATOM
      1 N1         2.0853    5.0684    2.9759 N.3       1 RES1    0.0000
      2 O1         6.0017    6.3750    2.7214 O.3       1 RES1    0.0000
      3 H1         6.0366    6.6641    1.9556 H         1 RES1    0.0000
      4 N2         4.2292    4.8340    2.5004 N.3       1 RES1    0.0000
      5 C1         3.3407    5.1072    3.4673 C.2       1 RES1    0.0000
      6 O2         2.0093    6.6437    5.4092 O.2       1 RES1    0.0000
      7 N3         3.1264    6.1120    5.6692 N.pl3     1 RES1    0.0000
      8 O3         3.6827    6.3247    6.7967 O.2       1 RES1    0.0000
      9 O4        -0.6769    5.4388    2.1673 O.3       1 RES1    0.0000
     10 C2         0.8987    4.7043    3.7409 C.3       1 RES1    0.0000
     11 H2         1.1139    4.7115    4.6863 H         1 RES1    0.0000
     12 H3         0.6294    3.8034    3.5033 H         1 RES1    0.0000
     13 C3         3.8180    5.3699    4.7778 C.2       1 RES1    0.0000
     14 C4         5.6576    5.0180    2.6927 C.3       1 RES1    0.0000
     15 H4         6.1450    4.5715    1.9700 H         1 RES1    0.0000
     16 C5         3.5877    4.7851    1.1936 C.3       1 RES1    0.0000
     17 H5         3.9051    4.0325    0.6702 H         1 RES1    0.0000
     18 H6         3.7344    5.6051    0.6965 H         1 RES1    0.0000
     19 C6         5.2301    5.0269    5.1479 C.3       1 RES1    0.0000
     20 H7         5.2202    4.4224    5.9061 H         1 RES1    0.0000
     21 H8         5.6903    5.8360    5.4208 H         1 RES1    0.0000
     22 O5        -1.3010    5.3487    4.3714 O.3       1 RES1    0.0000
     23 C7        -0.2549    5.6523    3.4856 C.3       1 RES1    0.0000
     24 H9         0.0347    6.5814    3.6043 H         1 RES1    0.0000
     25 C8         2.1428    4.6224    1.5683 C.3       1 RES1    0.0000
     26 H10        1.5745    5.1724    1.0060 H         1 RES1    0.0000
     27 H11        1.8660    3.6961    1.4860 H         1 RES1    0.0000
     28 C9         6.0052    4.3752    4.0035 C.3       1 RES1    0.0000
     29 H12        6.9576    4.4642    4.1656 H         1 RES1    0.0000
     30 H13        5.7935    3.4289    3.9663 H         1 RES1    0.0000
     31 C10       -1.6373    6.3750    1.7032 C.3       1 RES1    0.0000
     32 H14       -1.7465    6.2769    0.7542 H         1 RES1    0.0000
     33 H15       -1.3384    7.2650    1.9005 H         1 RES1    0.0000
     34 H16       -2.4767    6.2150    2.1405 H         1 RES1    0.0000
     35 C11       -1.5965    6.3041    5.3274 C.3       1 RES1    0.0000
     36 H17       -1.8184    7.1322    4.8949 H         1 RES1    0.0000
     37 H18       -0.8337    6.4350    5.8956 H         1 RES1    0.0000
     38 H19       -2.3430    6.0096    5.8550 H         1 RES1    0.0000
@<TRIPOS>BOND
     1    1    5 1
     2    2    3 1
     3    4    5 1
     4    5   13 2
     5    6    7 2
     6    7    8 2
     7    9   23 1
     8   10    1 1
     9   11   10 1
    10   12   10 1
    11   13    7 1
    12   14    2 1
    13   15   14 1
    14   16    4 1
    15   17   16 1
    16   18   16 1
    17   19   13 1
    18   20   19 1
    19   21   19 1
    20   22   23 1
    21   23   10 1
    22   24   23 1
    23   25    1 1
    24   26   25 1
    25   27   25 1
    26   28   14 1
    27   29   28 1
    28   30   28 1
    29   31    9 1
    30   32   31 1
    31   33   31 1
    32   34   31 1
    33   35   22 1
    34   36   35 1
    35   37   35 1
    36   38   35 1
    37    4   14 1
    38   16   25 1
    39   19   28 1
@<TRIPOS>SUBSTRUCTURE
     1 RES1 1

@<TRIPOS>CRYSIN
  11.2337    9.0903   14.2618  90.0000 113.1240  90.0000  14 1

