# MOL2 file generated by ConQuest
# Please check atom types

@<TRIPOS>MOLECULE
SABPIU
    32    36     1
SMALL
NO_CHARGES
****
Generated from CSD

@<TRIPOS>ATOM
      1 O1         3.2412    5.8143    1.8886 O.3       1 RES1    0.0000
      2 O2         0.2594    4.9149    0.5527 O.2       1 RES1    0.0000
      3 N1         2.4186    5.2744    0.8808 N.2       1 RES1    0.0000
      4 N2         1.2161    5.3341    1.2517 N.pl3     1 RES1    0.0000
      5 C1         0.9812    5.9308    2.6096 C.3       1 RES1    0.0000
      6 C2         0.5877    4.7799    3.5502 C.3       1 RES1    0.0000
      7 C3         0.4218    5.1991    5.0057 C.3       1 RES1    0.0000
      8 C4         1.8702    5.5216    5.4449 C.3       1 RES1    0.0000
      9 C5         2.6793    5.2630    4.1651 C.3       1 RES1    0.0000
     10 C6         2.4112    6.2633    3.0366 C.3       1 RES1    0.0000
     11 C7         2.4420    7.8022    3.0146 C.3       1 RES1    0.0000
     12 C8         1.5825    8.4401    4.0846 C.3       1 RES1    0.0000
     13 C9         0.1451    8.1006    3.6624 C.3       1 RES1    0.0000
     14 C10        0.3394    7.3162    2.3705 C.3       1 RES1    0.0000
     15 C11        1.9231    4.0297    3.6478 C.3       1 RES1    0.0000
     16 C12        1.5518    8.0750    1.8093 C.3       1 RES1    0.0000
     17 H1        -0.1598    4.3764    3.1598 H         1 RES1    0.0000
     18 H2        -0.2828    5.9394    5.1728 H         1 RES1    0.0000
     19 H3         0.1107    4.4190    5.5510 H         1 RES1    0.0000
     20 H4         1.9428    6.3941    5.8316 H         1 RES1    0.0000
     21 H5         2.2379    4.8737    6.0756 H         1 RES1    0.0000
     22 H6         3.6396    5.1437    4.3554 H         1 RES1    0.0000
     23 H7         3.3445    8.1275    2.8792 H         1 RES1    0.0000
     24 H8         1.7214    9.4064    4.0992 H         1 RES1    0.0000
     25 H9         1.7706    8.1133    5.0264 H         1 RES1    0.0000
     26 H10       -0.2705    8.9517    3.4526 H         1 RES1    0.0000
     27 H11       -0.4304    7.5592    4.4042 H         1 RES1    0.0000
     28 H12       -0.4795    7.2892    1.8666 H         1 RES1    0.0000
     29 H13        2.1272    3.8222    2.7450 H         1 RES1    0.0000
     30 H14        1.8075    3.3107    4.3676 H         1 RES1    0.0000
     31 H15        1.4017    9.0369    1.6104 H         1 RES1    0.0000
     32 H16        1.8813    7.8292    0.9516 H         1 RES1    0.0000
@<TRIPOS>BOND
     1    1    3 1
     2    2    4 2
     3    3    4 2
     4    4    5 1
     5    5    6 1
     6    6    7 1
     7    7    8 1
     8    8    9 1
     9    9   10 1
    10   10    1 1
    11   11   10 1
    12   12   11 1
    13   13   12 1
    14   14    5 1
    15   15    6 1
    16   16   11 1
    17   17    6 1
    18   18    7 1
    19   19    7 1
    20   20    8 1
    21   21    8 1
    22   22    9 1
    23   23   11 1
    24   24   12 1
    25   25   12 1
    26   26   13 1
    27   27   13 1
    28   28   14 1
    29   29   15 1
    30   30   15 1
    31   31   16 1
    32   32   16 1
    33    5   10 1
    34    9   15 1
    35   13   14 1
    36   14   16 1
@<TRIPOS>SUBSTRUCTURE
     1 RES1 1

@<TRIPOS>CRYSIN
  12.2960   14.2090   12.2000  90.0000  90.0000  90.0000  61 1

