# MOL2 file generated by ConQuest
# Please check atom types

@<TRIPOS>MOLECULE
SABPOB01
    22    22     1
SMALL
NO_CHARGES
****
Generated from CSD

@<TRIPOS>ATOM
      1 C1         0.6074    1.1254    0.7642 C.2       1 RES1    0.0000
      2 C2         0.2910    0.7729   -0.6047 C.1       1 RES1    0.0000
      3 C3        -0.5751    1.3866    1.6471 C.2       1 RES1    0.0000
      4 C4         0.6786    2.8912    3.2194 C.3       1 RES1    0.0000
      5 H1         0.4399    3.8513    3.1869 H         1 RES1    0.0000
      6 H2         1.4508    2.7427    2.6188 H         1 RES1    0.0000
      7 C5         1.0439    2.4993    4.6330 C.3       1 RES1    0.0000
      8 H3         1.3169    1.5477    4.6535 H         1 RES1    0.0000
      9 H4         1.8099    3.0452    4.9402 H         1 RES1    0.0000
     10 C6        -1.1548    1.8719    5.1027 C.3       1 RES1    0.0000
     11 H5        -1.9108    2.0029    5.7277 H         1 RES1    0.0000
     12 H6        -0.8818    0.9218    5.1490 H         1 RES1    0.0000
     13 C7        -1.6109    2.1926    3.6920 C.3       1 RES1    0.0000
     14 H7        -2.3238    1.5629    3.4181 H         1 RES1    0.0000
     15 H8        -1.9781    3.1116    3.6573 H         1 RES1    0.0000
     16 N1         1.8092    1.0786    1.2067 N.2       1 RES1    0.0000
     17 N2         0.0666    0.4992   -1.6940 N.1       1 RES1    0.0000
     18 N3        -0.4619    2.0778    2.7778 N.am      1 RES1    0.0000
     19 O1         2.7078    0.7215    0.2323 O.3       1 RES1    0.0000
     20 H9         3.4820    0.7027    0.5589 H         1 RES1    0.0000
     21 O2        -1.6341    0.8657    1.2670 O.2       1 RES1    0.0000
     22 O3        -0.0628    2.6956    5.5064 O.3       1 RES1    0.0000
@<TRIPOS>BOND
     1    1    2 1
     2    2   17 3
     3    3    1 1
     4    4    5 1
     5    6    4 1
     6    7    4 1
     7    8    7 1
     8    9    7 1
     9   10   11 1
    10   12   10 1
    11   13   10 1
    12   14   13 1
    13   15   13 1
    14   16    1 2
    15   18    3 1
    16   19   16 1
    17   20   19 1
    18   21    3 2
    19   22    7 1
    20    4   18 1
    21   10   22 1
    22   13   18 1
@<TRIPOS>SUBSTRUCTURE
     1 RES1 1

@<TRIPOS>CRYSIN
   6.7259    9.4836   13.2127  90.0000  90.0000  90.0000  19 1

