# MOL2 file generated by ConQuest
# Please check atom types

@<TRIPOS>MOLECULE
SABQOB
    53    54     1
SMALL
NO_CHARGES
****
Generated from CSD

@<TRIPOS>ATOM
      1 O1         2.3191    2.0592   11.4615 O.3       1 RES1    0.0000
      2 O2         1.8152   -2.8094    7.4697 O.3       1 RES1    0.0000
      3 O3         2.6199   -0.8254    7.9824 O.2       1 RES1    0.0000
      4 O4        -1.9170   -4.9538    4.7585 O.2       1 RES1    0.0000
      5 O5        -3.2638   -3.6145    3.8602 O.2       1 RES1    0.0000
      6 O6        -2.7475   -4.3406   11.3728 O.2       1 RES1    0.0000
      7 O7        -1.8612   -4.9117    9.4060 O.3       1 RES1    0.0000
      8 N1        -0.2442   -0.9230   11.1537 N.pl3     1 RES1    0.0000
      9 H1        -0.2254   -0.3017   11.8289 H         1 RES1    0.0000
     10 N2         1.4272    1.0016   11.4194 N.2       1 RES1    0.0000
     11 N3        -2.5320   -3.9068    4.7493 N.pl3     1 RES1    0.0000
     12 C1         0.7061   -0.8106   10.1703 C.2       1 RES1    0.0000
     13 C2         0.7389   -1.7073    9.1742 C.2       1 RES1    0.0000
     14 C3        -0.3465   -2.7674    9.0569 C.3       1 RES1    0.0000
     15 H2         0.1722   -3.5472    8.7693 H         1 RES1    0.0000
     16 C4        -1.0935   -2.9434   10.3509 C.2       1 RES1    0.0000
     17 C5        -1.0514   -2.0273   11.3090 C.2       1 RES1    0.0000
     18 C6         1.6061    0.3157   10.3532 C.2       1 RES1    0.0000
     19 H3         2.2948    0.5538    9.5745 H         1 RES1    0.0000
     20 C7         2.0493    2.8497   12.6352 C.3       1 RES1    0.0000
     21 H4         2.6629    3.5875   12.6720 H         1 RES1    0.0000
     22 H5         2.1566    2.3055   13.4185 H         1 RES1    0.0000
     23 H6         1.1498    3.1832   12.5973 H         1 RES1    0.0000
     24 C8         1.8210   -1.6920    8.1838 C.2       1 RES1    0.0000
     25 C9         2.8749   -2.9667    6.4930 C.3       1 RES1    0.0000
     26 H7         2.7712   -3.8072    6.0410 H         1 RES1    0.0000
     27 H8         3.7265   -2.9464    6.9370 H         1 RES1    0.0000
     28 H9         2.8299   -2.2516    5.8546 H         1 RES1    0.0000
     29 C10       -1.2863   -2.4349    7.9158 C.ar      1 RES1    0.0000
     30 C11       -1.4360   -3.2868    6.8369 C.ar      1 RES1    0.0000
     31 H10       -0.8846   -4.0061    6.8093 H         1 RES1    0.0000
     32 C12       -2.3544   -2.9916    5.8742 C.ar      1 RES1    0.0000
     33 C13       -3.1249   -1.8812    5.9225 C.ar      1 RES1    0.0000
     34 H11       -3.7428   -1.7472    5.2335 H         1 RES1    0.0000
     35 C14       -2.9721   -1.0162    6.9623 C.ar      1 RES1    0.0000
     36 H12       -3.4947   -0.2642    7.0854 H         1 RES1    0.0000
     37 C15       -2.0549   -1.2989    7.9504 C.ar      1 RES1    0.0000
     38 H13       -2.0114   -0.6479    8.6025 H         1 RES1    0.0000
     39 C16       -1.9820   -4.1028   10.4624 C.2       1 RES1    0.0000
     40 C17       -2.7981   -6.0456    9.2961 C.3       1 RES1    0.0000
     41 H14       -2.8843   -6.4950   10.2830 H         1 RES1    0.0000
     42 C18       -2.1287   -7.0453    8.4231 C.3       1 RES1    0.0000
     43 H15       -1.3240   -7.3530    8.8464 H         1 RES1    0.0000
     44 H16       -1.9114   -6.6398    7.5800 H         1 RES1    0.0000
     45 H17       -2.7181   -7.7884    8.2770 H         1 RES1    0.0000
     46 C19       -4.0818   -5.4900    8.7199 C.3       1 RES1    0.0000
     47 H18       -4.4604   -4.8584    9.3352 H         1 RES1    0.0000
     48 H19       -4.7026   -6.2078    8.5749 H         1 RES1    0.0000
     49 H20       -3.8959   -5.0537    7.8859 H         1 RES1    0.0000
     50 C20       -1.7829   -2.0176   12.6237 C.3       1 RES1    0.0000
     51 H21       -1.5462   -1.2281   13.1160 H         1 RES1    0.0000
     52 H22       -1.5400   -2.7954   13.1310 H         1 RES1    0.0000
     53 H23       -2.7292   -2.0224   12.4638 H         1 RES1    0.0000
@<TRIPOS>BOND
     1    1   10 1
     2    2   24 1
     3    3   24 2
     4    4   11 2
     5    5   11 2
     6    6   39 2
     7    7   39 1
     8    8    9 1
     9   10   18 2
    10   11   32 1
    11   12    8 1
    12   13   12 2
    13   14   13 1
    14   15   14 1
    15   16   14 1
    16   17    8 1
    17   18   12 1
    18   19   18 1
    19   20    1 1
    20   21   20 1
    21   22   20 1
    22   23   20 1
    23   24   13 1
    24   25    2 1
    25   26   25 1
    26   27   25 1
    27   28   25 1
    28   29   14 1
    29   30   29 ar
    30   31   30 1
    31   32   30 ar
    32   33   32 ar
    33   34   33 1
    34   35   33 ar
    35   36   35 1
    36   37   29 ar
    37   38   37 1
    38   39   16 1
    39   40    7 1
    40   41   40 1
    41   42   40 1
    42   43   42 1
    43   44   42 1
    44   45   42 1
    45   46   40 1
    46   47   46 1
    47   48   46 1
    48   49   46 1
    49   50   17 1
    50   51   50 1
    51   52   50 1
    52   53   50 1
    53   16   17 2
    54   35   37 ar
@<TRIPOS>SUBSTRUCTURE
     1 RES1 1

@<TRIPOS>CRYSIN
   9.5630    9.7030   12.0310  93.9900 105.0900 103.6600   2 1

