# MOL2 file generated by ConQuest
# Please check atom types

@<TRIPOS>MOLECULE
SACCEE
    48    49     1
SMALL
USER_CHARGES
****
Generated from CSD

@<TRIPOS>ATOM
      1 O1         5.7275    9.0741    4.3480 O.2       1 RES1   -1.0000
      2 O2         4.5800    9.5834    7.4020 O.3       1 RES1    0.0000
      3 N1         4.4582    9.2075    4.6115 N.pl3     1 RES1    1.0000
      4 C1         2.1845   11.3816    1.7123 C.3       1 RES1    0.0000
      5 C2         3.8419   13.2055    1.8643 C.3       1 RES1    0.0000
      6 C3         3.1776   12.0478    2.6011 C.3       1 RES1    0.0000
      7 C4         4.2343   11.0743    3.0893 C.3       1 RES1    0.0000
      8 C5         3.7082   10.0777    4.0512 C.2       1 RES1    0.0000
      9 C6         3.8954    8.2366    5.5850 C.3       1 RES1    0.0000
     10 C7         4.7012    8.2837    6.8602 C.3       1 RES1    0.0000
     11 C8         5.2832    9.7357    8.6323 C.3       1 RES1    0.0000
     12 C9         4.5473    9.1162    9.7956 C.ar      1 RES1    0.0000
     13 C10        3.3558    9.6543   10.1963 C.ar      1 RES1    0.0000
     14 C11        2.6689    9.1373   11.2617 C.ar      1 RES1    0.0000
     15 C12        3.1624    8.0520   11.9227 C.ar      1 RES1    0.0000
     16 C13        4.3381    7.5018   11.5469 C.ar      1 RES1    0.0000
     17 C14        5.0351    8.0430   10.4628 C.ar      1 RES1    0.0000
     18 C15        3.7917    6.8591    4.9755 C.ar      1 RES1    0.0000
     19 C16        4.8163    5.9373    5.0754 C.ar      1 RES1    0.0000
     20 C17        4.6663    4.6696    4.5057 C.ar      1 RES1    0.0000
     21 C18        3.5283    4.3440    3.8398 C.ar      1 RES1    0.0000
     22 C19        2.5218    5.2544    3.7186 C.ar      1 RES1    0.0000
     23 C20        2.6436    6.5161    4.2870 C.ar      1 RES1    0.0000
     24 H1         2.6261   11.0440    0.9416 H         1 RES1    0.0000
     25 H2         1.7712   10.6657    2.1789 H         1 RES1    0.0000
     26 H3         1.5237   12.0117    1.4462 H         1 RES1    0.0000
     27 H4         4.3398   12.8693    1.1295 H         1 RES1    0.0000
     28 H5         3.1753   13.8039    1.5497 H         1 RES1    0.0000
     29 H6         4.4249   13.6652    2.4576 H         1 RES1    0.0000
     30 H7         2.7186   12.3975    3.3570 H         1 RES1    0.0000
     31 H8         4.9268   11.5670    3.5132 H         1 RES1    0.0000
     32 H9         4.5890   10.6129    2.3393 H         1 RES1    0.0000
     33 H10        2.7812   10.0853    4.2585 H         1 RES1    0.0000
     34 H11        3.0135    8.5223    5.7934 H         1 RES1    0.0000
     35 H12        5.6131    8.0957    6.6738 H         1 RES1    0.0000
     36 H13        4.3663    7.6435    7.4782 H         1 RES1    0.0000
     37 H14        6.1324    9.3166    8.5508 H         1 RES1    0.0000
     38 H15        5.4016   10.6626    8.8041 H         1 RES1    0.0000
     39 H16        2.9983   10.3989    9.7268 H         1 RES1    0.0000
     40 H17        1.8518    9.5352   11.5404 H         1 RES1    0.0000
     41 H18        2.6774    7.6812   12.6509 H         1 RES1    0.0000
     42 H19        4.6871    6.7527   12.0154 H         1 RES1    0.0000
     43 H20        5.8589    7.6541   10.1912 H         1 RES1    0.0000
     44 H21        5.6193    6.1633    5.5295 H         1 RES1    0.0000
     45 H22        5.3655    4.0305    4.5857 H         1 RES1    0.0000
     46 H23        3.4342    3.4788    3.4583 H         1 RES1    0.0000
     47 H24        1.7323    5.0253    3.2430 H         1 RES1    0.0000
     48 H25        1.9359    7.1431    4.2036 H         1 RES1    0.0000
@<TRIPOS>BOND
     1    1    3 1
     2    2   10 1
     3    3    8 2
     4    4    6 1
     5    5    6 1
     6    6    7 1
     7    7    8 1
     8    8   33 1
     9    9    3 1
    10   10    9 1
    11   11    2 1
    12   12   11 1
    13   13   12 ar
    14   14   13 ar
    15   15   14 ar
    16   16   15 ar
    17   17   12 ar
    18   18    9 1
    19   19   18 ar
    20   20   19 ar
    21   21   20 ar
    22   22   21 ar
    23   23   18 ar
    24   24    4 1
    25   25    4 1
    26   26    4 1
    27   27    5 1
    28   28    5 1
    29   29    5 1
    30   30    6 1
    31   31    7 1
    32   32    7 1
    33   34    9 1
    34   35   10 1
    35   36   10 1
    36   37   11 1
    37   38   11 1
    38   39   13 1
    39   40   14 1
    40   41   15 1
    41   42   16 1
    42   43   17 1
    43   44   19 1
    44   45   20 1
    45   46   21 1
    46   47   22 1
    47   48   23 1
    48   16   17 ar
    49   22   23 ar
@<TRIPOS>SUBSTRUCTURE
     1 RES1 1

@<TRIPOS>CRYSIN
   5.6390   15.0730   21.1130  90.0000  90.0000  90.0000  19 1

