# MOL2 file generated by ConQuest
# Please check atom types

@<TRIPOS>MOLECULE
SACXAW
    35    36     1
SMALL
NO_CHARGES
****
Generated from CSD

@<TRIPOS>ATOM
      1 O1        -1.2080  -11.1375  -13.6200 O.2       1 RES1    0.0000
      2 O2        -2.3048   -7.4958  -19.7110 O.3       1 RES1    0.0000
      3 N1         0.0133   -8.2520  -11.9711 N.ar      1 RES1    0.0000
      4 N2        -0.9463   -8.9693  -14.2755 N.am      1 RES1    0.0000
      5 N3        -1.3200   -9.1604  -15.5775 N.2       1 RES1    0.0000
      6 N4        -1.9938   -7.2174  -18.3739 N.2       1 RES1    0.0000
      7 C1         0.6338   -7.8592  -10.8770 C.ar      1 RES1    0.0000
      8 C2         1.1195   -8.7463   -9.9204 C.ar      1 RES1    0.0000
      9 C3         0.9448  -10.0676  -10.1007 C.ar      1 RES1    0.0000
     10 C4         0.3000  -10.5076  -11.2300 C.ar      1 RES1    0.0000
     11 C5        -0.1622   -9.5721  -12.1377 C.ar      1 RES1    0.0000
     12 C6        -0.8241  -10.0003  -13.4075 C.2       1 RES1    0.0000
     13 C7        -1.5049   -8.1069  -16.2804 C.2       1 RES1    0.0000
     14 C8        -1.8300   -8.2957  -17.6985 C.2       1 RES1    0.0000
     15 C9        -1.9569   -9.6735  -18.2562 C.3       1 RES1    0.0000
     16 C10       -1.3976   -6.7125  -15.6951 C.ar      1 RES1    0.0000
     17 C11       -2.5500   -6.0271  -15.3742 C.ar      1 RES1    0.0000
     18 C12       -2.4677   -4.8486  -14.6713 C.ar      1 RES1    0.0000
     19 C13       -1.2456   -4.3330  -14.2923 C.ar      1 RES1    0.0000
     20 C14       -0.0948   -4.9996  -14.6438 C.ar      1 RES1    0.0000
     21 C15       -0.1543   -6.1958  -15.3314 C.ar      1 RES1    0.0000
     22 H1        -0.6581   -8.1163  -14.1044 H         1 RES1    0.0000
     23 H2        -2.2719   -6.6771  -20.0334 H         1 RES1    0.0000
     24 H3         0.7552   -6.9284  -10.7334 H         1 RES1    0.0000
     25 H4         1.5699   -8.4231   -9.1503 H         1 RES1    0.0000
     26 H5         1.2628  -10.6869   -9.4559 H         1 RES1    0.0000
     27 H6         0.1739  -11.4372  -11.3843 H         1 RES1    0.0000
     28 H7        -2.0306  -10.2976  -17.5441 H         1 RES1    0.0000
     29 H8        -2.7325   -9.7243  -18.8033 H         1 RES1    0.0000
     30 H9        -1.1892   -9.8764  -18.7773 H         1 RES1    0.0000
     31 H10       -3.3976   -6.3668  -15.6386 H         1 RES1    0.0000
     32 H11       -3.2629   -4.3838  -14.4405 H         1 RES1    0.0000
     33 H12       -1.1978   -3.5249  -13.7926 H         1 RES1    0.0000
     34 H13        0.7505   -4.6327  -14.4130 H         1 RES1    0.0000
     35 H14        0.6424   -6.6618  -15.5530 H         1 RES1    0.0000
@<TRIPOS>BOND
     1    1   12 2
     2    2    6 1
     3    3    7 ar
     4    4    5 1
     5    5   13 2
     6    6   14 2
     7    7    8 ar
     8    8    9 ar
     9    9   10 ar
    10   10   11 ar
    11   11    3 ar
    12   12    4 1
    13   13   14 1
    14   14   15 1
    15   15   28 1
    16   16   13 1
    17   17   16 ar
    18   18   17 ar
    19   19   18 ar
    20   20   19 ar
    21   21   16 ar
    22   22    4 1
    23   23    2 1
    24   24    7 1
    25   25    8 1
    26   26    9 1
    27   27   10 1
    28   29   15 1
    29   30   15 1
    30   31   17 1
    31   32   18 1
    32   33   19 1
    33   34   20 1
    34   35   21 1
    35   11   12 1
    36   20   21 ar
@<TRIPOS>SUBSTRUCTURE
     1 RES1 1

@<TRIPOS>CRYSIN
   7.8340   11.7970   15.2810  90.0000  90.0000  90.0000  33 1

