# MOL2 file generated by ConQuest
# Please check atom types

@<TRIPOS>MOLECULE
SADLAM
    43    44     1
SMALL
NO_CHARGES
****
Generated from CSD

@<TRIPOS>ATOM
      1 C1         6.1255    3.5427   -4.9183 C.ar      1 RES1    0.0000
      2 C2         6.0741    2.5747   -3.9347 C.ar      1 RES1    0.0000
      3 H1         6.1530    1.6754   -4.1584 H         1 RES1    0.0000
      4 C3         5.9046    2.9529   -2.6129 C.ar      1 RES1    0.0000
      5 H2         5.8762    2.3015   -1.9503 H         1 RES1    0.0000
      6 C4         5.7752    4.2991   -2.2576 C.ar      1 RES1    0.0000
      7 C5         5.8379    5.2587   -3.2755 C.ar      1 RES1    0.0000
      8 H3         5.7523    6.1594   -3.0603 H         1 RES1    0.0000
      9 C6         6.0271    4.8833   -4.6126 C.ar      1 RES1    0.0000
     10 H4         6.0857    5.5276   -5.2804 H         1 RES1    0.0000
     11 C7         5.5552    4.6353   -0.8470 C.2       1 RES1    0.0000
     12 H5         5.6435    3.9517   -0.2203 H         1 RES1    0.0000
     13 C8         5.2399    5.8414   -0.4013 C.2       1 RES1    0.0000
     14 H6         5.2005    6.5166   -1.0383 H         1 RES1    0.0000
     15 C9         4.9447    6.2365    0.9751 C.ar      1 RES1    0.0000
     16 C10        4.9183    5.3385    2.0800 C.ar      1 RES1    0.0000
     17 H7         5.1067    4.4392    1.9349 H         1 RES1    0.0000
     18 C11        4.6238    5.7560    3.3455 C.ar      1 RES1    0.0000
     19 H8         4.6274    5.1340    4.0371 H         1 RES1    0.0000
     20 C12        4.3128    7.1078    3.6409 C.ar      1 RES1    0.0000
     21 C13        4.3702    8.0001    2.5292 C.ar      1 RES1    0.0000
     22 C14        4.6635    7.5588    1.2415 C.ar      1 RES1    0.0000
     23 H9         4.6696    8.1738    0.5431 H         1 RES1    0.0000
     24 C15        5.3960    6.4774    6.6107 C.3       1 RES1    0.0000
     25 H10        5.9764    6.1566    5.9037 H         1 RES1    0.0000
     26 H11        5.7242    7.3431    6.8993 H         1 RES1    0.0000
     27 C16        3.0265    7.2170    7.0906 C.3       1 RES1    0.0000
     28 H12        2.1202    7.1386    6.7542 H         1 RES1    0.0000
     29 H13        3.0835    6.7127    7.9171 H         1 RES1    0.0000
     30 C17        3.9884    6.6259    6.0762 C.3       1 RES1    0.0000
     31 H14        3.6593    5.7406    5.8149 H         1 RES1    0.0000
     32 N1         6.3208    3.1448   -6.3067 N.pl3     1 RES1    0.0000
     33 N2         3.9903    7.4888    4.8942 N.3       1 RES1    0.0000
     34 N3         4.1704    9.4079    2.6795 N.pl3     1 RES1    0.0000
     35 O1         6.2244    1.9555   -6.5882 O.2       1 RES1    0.0000
     36 O2         6.5826    4.0274   -7.1252 O.2       1 RES1    0.0000
     37 O3         5.4399    5.5663    7.7083 O.3       1 RES1    0.0000
     38 O4         3.3078    8.5814    7.3553 O.3       1 RES1    0.0000
     39 O5         3.8988    9.8754    3.8073 O.2       1 RES1    0.0000
     40 O6         4.2745   10.1377    1.6866 O.2       1 RES1    0.0000
     41 H15        3.8180    8.2788    5.1574 H         1 RES1    0.0000
     42 H16        5.0424    4.7488    7.4970 H         1 RES1    0.0000
     43 H17        3.9189    8.6010    7.8727 H         1 RES1    0.0000
@<TRIPOS>BOND
     1    1    2 ar
     2    2    3 1
     3    4    2 ar
     4    5    4 1
     5    6    4 ar
     6    7    6 ar
     7    8    7 1
     8    9    1 ar
     9   10    9 1
    10   11    6 1
    11   12   11 1
    12   13   11 2
    13   14   13 1
    14   15   13 1
    15   16   15 ar
    16   17   16 1
    17   18   16 ar
    18   19   18 1
    19   20   18 ar
    20   21   20 ar
    21   22   15 ar
    22   23   22 1
    23   24   25 1
    24   26   24 1
    25   27   28 1
    26   29   27 1
    27   30   24 1
    28   31   30 1
    29   32    1 1
    30   33   20 1
    31   34   21 1
    32   35   32 2
    33   36   32 2
    34   37   24 1
    35   38   27 1
    36   39   34 2
    37   40   34 2
    38   41   33 1
    39   42   37 1
    40   43   38 1
    41    7    9 ar
    42   21   22 ar
    43   27   30 1
    44   30   33 1
@<TRIPOS>SUBSTRUCTURE
     1 RES1 1

@<TRIPOS>CRYSIN
   6.6544   14.0082   17.2852  90.0000  98.8910  90.0000 231 1

