# MOL2 file generated by ConQuest
# Please check atom types

@<TRIPOS>MOLECULE
SADMUI
    48    51     1
SMALL
NO_CHARGES
****
Generated from CSD

@<TRIPOS>ATOM
      1 C1         8.0623   -1.7360    3.4196 C.3       1 RES1    0.0000
      2 H1         7.1578   -1.4156    3.3802 H         1 RES1    0.0000
      3 H2         8.5360   -1.2717    4.1135 H         1 RES1    0.0000
      4 H3         8.0598   -2.6773    3.6078 H         1 RES1    0.0000
      5 C2        10.4747    4.0286   -1.0913 C.ar      1 RES1    0.0000
      6 H4        10.0572    4.8568   -1.0303 H         1 RES1    0.0000
      7 C3        10.3411    4.2105    2.8004 C.3       1 RES1    0.0000
      8 H5         9.9860    4.5174    1.9627 H         1 RES1    0.0000
      9 H6        11.0415    4.8016    3.0863 H         1 RES1    0.0000
     10 H7         9.6428    4.2006    3.4592 H         1 RES1    0.0000
     11 C4        11.7939    3.9526   -1.5344 C.ar      1 RES1    0.0000
     12 H8        12.2474    4.7382   -1.7399 H         1 RES1    0.0000
     13 O1         9.7719    1.9784    2.2946 O.3       1 RES1    0.0000
     14 O2         7.9531   -2.1018    1.0716 O.3       1 RES1    0.0000
     15 C5        10.4162    1.6518   -0.8600 C.ar      1 RES1    0.0000
     16 O3        11.0718    0.1768    2.4428 O.2       1 RES1    0.0000
     17 N1         8.5740   -1.5851   -0.1373 N.3       1 RES1    0.0000
     18 C6         8.8050   -0.0429    1.6571 C.3       1 RES1    0.0000
     19 H9         7.9946    0.4182    1.9611 H         1 RES1    0.0000
     20 N2        12.1194    0.3005   -1.4028 N.pl3     1 RES1    0.0000
     21 C7        10.0077    0.6861    2.1794 C.2       1 RES1    0.0000
     22 C8         7.7783   -1.9632   -1.2495 C.ar      1 RES1    0.0000
     23 C9         8.7841   -0.1366    0.1016 C.3       1 RES1    0.0000
     24 H10        8.0238    0.3711   -0.2513 H         1 RES1    0.0000
     25 C10       10.0447    0.3023   -0.5763 C.2       1 RES1    0.0000
     26 C11        9.7851    2.8936   -0.7451 C.ar      1 RES1    0.0000
     27 H11        8.9090    2.9497   -0.4377 H         1 RES1    0.0000
     28 C12       11.1031   -0.4752   -0.9211 C.2       1 RES1    0.0000
     29 H12       11.1319   -1.4011   -0.8407 H         1 RES1    0.0000
     30 C13        8.7429   -1.4907    2.0937 C.3       1 RES1    0.0000
     31 H13        9.6434   -1.8790    2.1002 H         1 RES1    0.0000
     32 C14       11.7333    1.6120   -1.3560 C.ar      1 RES1    0.0000
     33 C15        7.0454   -1.6428   -3.5008 C.ar      1 RES1    0.0000
     34 H14        7.0439   -1.1332   -4.2794 H         1 RES1    0.0000
     35 C16        7.7615   -1.2101   -2.4017 C.ar      1 RES1    0.0000
     36 H15        8.2321   -0.4091   -2.4399 H         1 RES1    0.0000
     37 C17        7.0744   -3.1497   -1.2133 C.ar      1 RES1    0.0000
     38 H16        7.0805   -3.6702   -0.4425 H         1 RES1    0.0000
     39 C18        6.3388   -2.8121   -3.4572 C.ar      1 RES1    0.0000
     40 H17        5.8467   -3.0927   -4.1956 H         1 RES1    0.0000
     41 C19       12.4373    2.7551   -1.6753 C.ar      1 RES1    0.0000
     42 H18       13.3164    2.7126   -1.9753 H         1 RES1    0.0000
     43 C20       10.8875    2.8366    2.6354 C.3       1 RES1    0.0000
     44 H19       11.5533    2.8203    1.9295 H         1 RES1    0.0000
     45 H20       11.3032    2.5370    3.4592 H         1 RES1    0.0000
     46 C21        6.3640   -3.5634   -2.3164 C.ar      1 RES1    0.0000
     47 H21        5.8946   -4.3653   -2.2851 H         1 RES1    0.0000
     48 H22       12.8819    0.0181   -1.6656 H         1 RES1    0.0000
@<TRIPOS>BOND
     1    1    2 1
     2    3    1 1
     3    4    1 1
     4    5    6 1
     5    7    8 1
     6    9    7 1
     7   10    7 1
     8   11    5 ar
     9   12   11 1
    10   13   21 1
    11   14   17 1
    12   15   25 1
    13   16   21 2
    14   17   22 1
    15   18   19 1
    16   20   28 1
    17   21   18 1
    18   22   35 ar
    19   23   17 1
    20   24   23 1
    21   25   23 1
    22   26    5 ar
    23   27   26 1
    24   28   25 2
    25   29   28 1
    26   30    1 1
    27   31   30 1
    28   32   15 ar
    29   33   34 1
    30   35   33 ar
    31   36   35 1
    32   37   22 ar
    33   38   37 1
    34   39   33 ar
    35   40   39 1
    36   41   11 ar
    37   42   41 1
    38   43    7 1
    39   44   43 1
    40   45   43 1
    41   46   37 ar
    42   47   46 1
    43   48   20 1
    44   13   43 1
    45   14   30 1
    46   15   26 ar
    47   18   23 1
    48   18   30 1
    49   20   32 1
    50   32   41 ar
    51   39   46 ar
@<TRIPOS>SUBSTRUCTURE
     1 RES1 1

@<TRIPOS>CRYSIN
  12.9515    9.0510   16.5724  90.0000 107.5300  90.0000  14 1

