# MOL2 file generated by ConQuest
# Please check atom types

@<TRIPOS>MOLECULE
SADTAU
    81    85     1
SMALL
NO_CHARGES
****
Generated from CSD

@<TRIPOS>ATOM
      1 O1         4.1618    8.9845   -0.1954 O.3       1 RES1    0.0000
      2 C1         2.0672    6.8723    2.9434 C.ar      1 RES1    0.0000
      3 H1         2.2342    7.3390    3.7534 H         1 RES1    0.0000
      4 C2         0.9505    6.0820    2.8535 C.ar      1 RES1    0.0000
      5 C3         0.6684    5.4068    1.6520 C.ar      1 RES1    0.0000
      6 C4         1.5311    5.5437    0.5921 C.ar      1 RES1    0.0000
      7 H2         1.3400    5.1070   -0.2302 H         1 RES1    0.0000
      8 C5         2.6821    6.3164    0.7115 C.ar      1 RES1    0.0000
      9 C6         2.9749    7.0154    1.8822 C.ar      1 RES1    0.0000
     10 C7         4.2433    7.8441    1.9942 C.3       1 RES1    0.0000
     11 H3         4.8919    7.3318    2.5568 H         1 RES1    0.0000
     12 C8         4.8759    8.0422    0.6217 C.3       1 RES1    0.0000
     13 H4         5.8244    8.3420    0.7288 H         1 RES1    0.0000
     14 C9         4.8376    6.7530   -0.1526 C.3       1 RES1    0.0000
     15 H5         5.3121    6.8702   -1.0144 H         1 RES1    0.0000
     16 H6         5.3044    6.0457    0.3595 H         1 RES1    0.0000
     17 C10        3.7146   10.1249    0.4050 C.ar      1 RES1    0.0000
     18 C11        3.6490   10.3053    1.7985 C.ar      1 RES1    0.0000
     19 C12        4.0001    9.1738    2.6676 C.2       1 RES1    0.0000
     20 C13        3.2137   11.5437    2.2897 C.ar      1 RES1    0.0000
     21 H7         3.1547   11.6692    3.2302 H         1 RES1    0.0000
     22 C14        2.8695   12.5829    1.4588 C.ar      1 RES1    0.0000
     23 H8         2.6017   13.4262    1.8034 H         1 RES1    0.0000
     24 C15        2.9314   12.3423    0.0788 C.ar      1 RES1    0.0000
     25 C16        3.3392   11.1402   -0.4419 C.ar      1 RES1    0.0000
     26 C17        3.3494   11.2191   -1.9352 C.3       1 RES1    0.0000
     27 H9         2.8149   10.4910   -2.3402 H         1 RES1    0.0000
     28 H10        4.2723   11.1838   -2.2934 H         1 RES1    0.0000
     29 C18        2.7024   12.5975   -2.1814 C.3       1 RES1    0.0000
     30 H11        1.7677   12.4533   -2.5051 H         1 RES1    0.0000
     31 C19        3.4271   13.4376   -3.1871 C.2       1 RES1    0.0000
     32 C20        4.0026   14.5878   -2.8917 C.2       1 RES1    0.0000
     33 H12        4.4359   15.0898   -3.5712 H         1 RES1    0.0000
     34 H13        3.9827   14.9124   -1.9992 H         1 RES1    0.0000
     35 C21        3.4172   12.8640   -4.5634 C.3       1 RES1    0.0000
     36 H14        3.7990   13.5133   -5.1912 H         1 RES1    0.0000
     37 H15        2.4945   12.6597   -4.8256 H         1 RES1    0.0000
     38 H16        3.9497   12.0426   -4.5794 H         1 RES1    0.0000
     39 C22        0.5762    5.8642    5.1555 C.3       1 RES1    0.0000
     40 H17        0.7889    6.7738    5.4522 H         1 RES1    0.0000
     41 H18        1.3914    5.3196    5.1592 H         1 RES1    0.0000
     42 H19       -0.0838    5.4680    5.7636 H         1 RES1    0.0000
     43 C23       -0.6758    3.8168    0.5059 C.3       1 RES1    0.0000
     44 H20        0.0986    3.2329    0.3681 H         1 RES1    0.0000
     45 H21       -0.8047    4.3810   -0.2844 H         1 RES1    0.0000
     46 H22       -1.4760    3.2692    0.6500 H         1 RES1    0.0000
     47 C24        4.3201    8.2528    5.9864 C.2       1 RES1    0.0000
     48 C25        3.5918    9.5191    7.9302 C.3       1 RES1    0.0000
     49 H23        3.3652   10.4640    8.1222 H         1 RES1    0.0000
     50 H24        4.4289    9.3065    8.4128 H         1 RES1    0.0000
     51 C26        2.4795    8.6303    8.4608 C.3       1 RES1    0.0000
     52 H25        2.7543    7.6854    8.3487 H         1 RES1    0.0000
     53 H26        2.3848    8.7973    9.4320 H         1 RES1    0.0000
     54 C27        1.1232    8.8139    7.8096 C.3       1 RES1    0.0000
     55 H27        1.2088    8.6417    6.8383 H         1 RES1    0.0000
     56 H28        0.8386    9.7556    7.9240 H         1 RES1    0.0000
     57 C28        0.0431    7.8970    8.3820 C.3       1 RES1    0.0000
     58 H29        0.2937    6.9573    8.1986 H         1 RES1    0.0000
     59 H30        0.0159    8.0132    9.3656 H         1 RES1    0.0000
     60 C29       -1.3445    8.1480    7.8256 C.3       1 RES1    0.0000
     61 H31       -1.3075    8.0640    6.8395 H         1 RES1    0.0000
     62 H32       -1.6044    9.0794    8.0348 H         1 RES1    0.0000
     63 C30       -2.4259    7.2156    8.3475 C.3       1 RES1    0.0000
     64 H33       -2.3805    7.2063    9.3372 H         1 RES1    0.0000
     65 H34       -3.3090    7.5859    8.0951 H         1 RES1    0.0000
     66 C31       -2.3472    5.8144    7.8600 C.3       1 RES1    0.0000
     67 H35       -1.4519    5.4514    8.0755 H         1 RES1    0.0000
     68 H36       -2.4431    5.8133    6.8752 H         1 RES1    0.0000
     69 C32       -3.4144    4.8892    8.4608 C.3       1 RES1    0.0000
     70 H37       -4.3044    5.2564    8.2810 H         1 RES1    0.0000
     71 H38       -3.2798    4.8197    9.4296 H         1 RES1    0.0000
     72 H39       -3.3399    3.9993    8.0570 H         1 RES1    0.0000
     73 N1         4.0655    9.3833    3.9356 N.2       1 RES1    0.0000
     74 N2         3.8262    9.3739    6.4874 N.am      1 RES1    0.0000
     75 H40        3.6365   10.0429    5.9483 H         1 RES1    0.0000
     76 O2         3.4895    6.3496   -0.4023 O.3       1 RES1    0.0000
     77 O3         2.6440   13.2706   -0.8782 O.3       1 RES1    0.0000
     78 O4         0.0625    5.9056    3.8926 O.3       1 RES1    0.0000
     79 O5        -0.4536    4.6393    1.6457 O.3       1 RES1    0.0000
     80 O6         4.4462    8.1781    4.6142 O.3       1 RES1    0.0000
     81 O7         4.6526    7.2571    6.6019 O.2       1 RES1    0.0000
@<TRIPOS>BOND
     1    1   12 1
     2    2    3 1
     3    4    2 ar
     4    5    4 ar
     5    6    5 ar
     6    7    6 1
     7    8    6 ar
     8    9    2 ar
     9   10    9 1
    10   11   10 1
    11   12   10 1
    12   13   12 1
    13   14   12 1
    14   15   14 1
    15   16   14 1
    16   17    1 1
    17   18   17 ar
    18   19   10 1
    19   20   18 ar
    20   21   20 1
    21   22   20 ar
    22   23   22 1
    23   24   22 ar
    24   25   17 ar
    25   26   25 1
    26   27   26 1
    27   28   26 1
    28   29   26 1
    29   30   29 1
    30   31   29 1
    31   32   31 2
    32   33   32 1
    33   34   32 1
    34   35   31 1
    35   36   35 1
    36   37   35 1
    37   38   35 1
    38   39   40 1
    39   41   39 1
    40   42   39 1
    41   43   44 1
    42   45   43 1
    43   46   43 1
    44   47   74 1
    45   48   49 1
    46   50   48 1
    47   51   48 1
    48   52   51 1
    49   53   51 1
    50   54   51 1
    51   55   54 1
    52   56   54 1
    53   57   54 1
    54   58   57 1
    55   59   57 1
    56   60   57 1
    57   61   60 1
    58   62   60 1
    59   63   60 1
    60   64   63 1
    61   65   63 1
    62   66   63 1
    63   67   66 1
    64   68   66 1
    65   69   66 1
    66   70   69 1
    67   71   69 1
    68   72   69 1
    69   73   19 2
    70   74   48 1
    71   75   74 1
    72   76    8 1
    73   77   24 1
    74   78    4 1
    75   79    5 1
    76   80   47 1
    77   81   47 2
    78    8    9 ar
    79   14   76 1
    80   18   19 1
    81   24   25 ar
    82   29   77 1
    83   39   78 1
    84   43   79 1
    85   73   80 1
@<TRIPOS>SUBSTRUCTURE
     1 RES1 1

@<TRIPOS>CRYSIN
  11.4311   10.3717   12.7490  90.0000 105.0770  90.0000   4 1

