# MOL2 file generated by ConQuest
# Please check atom types

@<TRIPOS>MOLECULE
SADXUT
    46    48     1
SMALL
NO_CHARGES
****
Generated from CSD

@<TRIPOS>ATOM
      1 O1         3.8779    6.7547    4.2238 O.3       1 RES1    0.0000
      2 H1         3.7828    6.6735    3.1542 H         1 RES1    0.0000
      3 O2         2.7341    5.5780    2.0030 O.2       1 RES1    0.0000
      4 O3         4.4696    1.7230    6.7408 O.2       1 RES1    0.0000
      5 O4         5.9245    3.1956    6.2349 O.2       1 RES1    0.0000
      6 N1         4.7859    2.8391    6.3659 N.pl3     1 RES1    0.0000
      7 C1         2.6623    6.2585    4.7848 C.3       1 RES1    0.0000
      8 C2         2.3378    4.8473    4.2447 C.3       1 RES1    0.0000
      9 H2         1.5284    4.5287    4.6972 H         1 RES1    0.0000
     10 C3         3.4805    3.8868    4.5855 C.3       1 RES1    0.0000
     11 H3         3.2786    3.0029    4.2391 H         1 RES1    0.0000
     12 H4         4.3010    4.1941    4.1708 H         1 RES1    0.0000
     13 C4         3.6625    3.8185    6.0918 C.3       1 RES1    0.0000
     14 H5         2.8379    3.4764    6.4973 H         1 RES1    0.0000
     15 C5         3.9853    5.1637    6.7026 C.3       1 RES1    0.0000
     16 H6         4.8326    5.4710    6.3165 H         1 RES1    0.0000
     17 C6         2.8975    6.1538    6.2855 C.3       1 RES1    0.0000
     18 H7         2.0653    5.8943    6.7102 H         1 RES1    0.0000
     19 H8         3.1356    7.0324    6.6218 H         1 RES1    0.0000
     20 C7         2.0688    4.8458    2.7219 C.2       1 RES1    0.0000
     21 C8         1.0230    3.9930    2.1842 C.ar      1 RES1    0.0000
     22 C9         0.4097    4.3458    0.9941 C.ar      1 RES1    0.0000
     23 H9         0.6898    5.1061    0.5384 H         1 RES1    0.0000
     24 C10       -0.6098    3.5811    0.4814 C.ar      1 RES1    0.0000
     25 H10       -1.0300    3.8451   -0.3054 H         1 RES1    0.0000
     26 C11       -1.0160    2.4324    1.1146 C.ar      1 RES1    0.0000
     27 H11       -1.7093    1.9241    0.7594 H         1 RES1    0.0000
     28 C12       -0.3875    2.0333    2.2867 C.ar      1 RES1    0.0000
     29 H12       -0.6314    1.2374    2.7002 H         1 RES1    0.0000
     30 C13        0.6040    2.8277    2.8320 C.ar      1 RES1    0.0000
     31 H13        0.9962    2.5841    3.6404 H         1 RES1    0.0000
     32 C14        4.1452    5.1364    8.2102 C.ar      1 RES1    0.0000
     33 C15        3.1963    4.5643    9.0234 C.ar      1 RES1    0.0000
     34 H14        2.4417    4.1797    8.6389 H         1 RES1    0.0000
     35 C16        3.3387    4.5492   10.3996 C.ar      1 RES1    0.0000
     36 H15        2.6845    4.1554   10.9292 H         1 RES1    0.0000
     37 C17        4.4492    5.1159   10.9811 C.ar      1 RES1    0.0000
     38 H16        4.5543    5.1030   11.9056 H         1 RES1    0.0000
     39 C18        5.3917    5.6956   10.1903 C.ar      1 RES1    0.0000
     40 H17        6.1398    6.0893   10.5756 H         1 RES1    0.0000
     41 C19        5.2440    5.7039    8.8029 C.ar      1 RES1    0.0000
     42 H18        5.8988    6.0992    8.2733 H         1 RES1    0.0000
     43 C20        1.5430    7.2426    4.5007 C.3       1 RES1    0.0000
     44 H19        1.7828    8.1075    4.8418 H         1 RES1    0.0000
     45 H20        0.7371    6.9429    4.9262 H         1 RES1    0.0000
     46 H21        1.4000    7.3010    3.5520 H         1 RES1    0.0000
@<TRIPOS>BOND
     1    1    2 1
     2    3   20 2
     3    4    6 2
     4    5    6 2
     5    6   13 1
     6    7    1 1
     7    8    7 1
     8    9    8 1
     9   10    8 1
    10   11   10 1
    11   12   10 1
    12   13   10 1
    13   14   13 1
    14   15   13 1
    15   16   15 1
    16   17    7 1
    17   18   17 1
    18   19   17 1
    19   20    8 1
    20   21   20 1
    21   22   21 ar
    22   23   22 1
    23   24   22 ar
    24   25   24 1
    25   26   24 ar
    26   27   26 1
    27   28   26 ar
    28   29   28 1
    29   30   21 ar
    30   31   30 1
    31   32   15 1
    32   33   32 ar
    33   34   33 1
    34   35   33 ar
    35   36   35 1
    36   37   35 ar
    37   38   37 1
    38   39   37 ar
    39   40   39 1
    40   41   32 ar
    41   42   41 1
    42   43    7 1
    43   44   43 1
    44   45   43 1
    45   46   43 1
    46   15   17 1
    47   28   30 ar
    48   39   41 ar
@<TRIPOS>SUBSTRUCTURE
     1 RES1 1

@<TRIPOS>CRYSIN
   5.8358    7.5870   40.1810  90.0000  90.0000  90.0000  19 1

