# MOL2 file generated by ConQuest
# Please check atom types

@<TRIPOS>MOLECULE
SAFJIT01
    36    37     1
SMALL
USER_CHARGES
****
Generated from CSD

@<TRIPOS>ATOM
      1 O1         2.5704    1.5800    9.5014 O.2       1 RES1    0.0000
      2 O2        -1.3303    3.4687   11.0751 O.2       1 RES1   -1.0000
      3 N1        -0.1588    2.9599   11.0283 N.pl3     1 RES1    1.0000
      4 N2         1.6968    2.1179   10.2719 N.pl3     1 RES1    0.0000
      5 N3         1.7397    1.9740    5.0456 N.1       1 RES1    1.0000
      6 N4         0.5485    1.6657    5.0554 N.2       1 RES1    0.0000
      7 N5         2.8339    2.2139    4.8835 N.2       1 RES1   -1.0000
      8 C1         2.0737    2.6043   11.6389 C.3       1 RES1    0.0000
      9 C2        -0.2263    2.0936    8.6829 C.ar      1 RES1    0.0000
     10 C3         0.6701    2.7818   12.2593 C.3       1 RES1    0.0000
     11 C4         0.5088    2.0512    7.5021 C.ar      1 RES1    0.0000
     12 C5        -0.1127    1.7027    6.3179 C.ar      1 RES1    0.0000
     13 C6        -1.5754    1.7774    8.6590 C.ar      1 RES1    0.0000
     14 C7         2.9713    1.5851   12.3039 C.3       1 RES1    0.0000
     15 C8        -2.1703    1.4047    7.4748 C.ar      1 RES1    0.0000
     16 C9         0.4290    2.4001    9.9476 C.2       1 RES1    0.0000
     17 C10        2.8139    3.9182   11.4191 C.3       1 RES1    0.0000
     18 C11       -1.4518    1.3697    6.3005 C.ar      1 RES1    0.0000
     19 C12        0.5142    3.9795   13.1811 C.3       1 RES1    0.0000
     20 C13        0.1290    1.5238   12.9330 C.3       1 RES1    0.0000
     21 H1         1.4376    2.3173    7.4988 H         1 RES1    0.0000
     22 H2        -2.1100    1.7848    9.4905 H         1 RES1    0.0000
     23 H3        -3.1116    1.1507    7.4444 H         1 RES1    0.0000
     24 H4        -1.8892    1.0702    5.4962 H         1 RES1    0.0000
     25 H5         3.0922    1.8741   13.2127 H         1 RES1    0.0000
     26 H6         3.8031    1.5343   11.8522 H         1 RES1    0.0000
     27 H7         2.5439    0.6831   12.3855 H         1 RES1    0.0000
     28 H8         3.1324    4.2667   12.2876 H         1 RES1    0.0000
     29 H9         2.2064    4.6065   10.9815 H         1 RES1    0.0000
     30 H10        3.5939    3.7290   10.8509 H         1 RES1    0.0000
     31 H11        1.1449    3.8709   13.8222 H         1 RES1    0.0000
     32 H12       -0.4411    3.9409   13.5283 H         1 RES1    0.0000
     33 H13        0.7898    4.7641   12.7447 H         1 RES1    0.0000
     34 H14        0.6557    1.3364   13.7677 H         1 RES1    0.0000
     35 H15        0.2204    0.7181   12.3529 H         1 RES1    0.0000
     36 H16       -0.8000    1.7007   13.1583 H         1 RES1    0.0000
@<TRIPOS>BOND
     1    1    4 1
     2    2    3 1
     3    3   10 1
     4    4    8 1
     5    5    6 2
     6    6   12 1
     7    7    5 2
     8    8   10 1
     9    9   11 ar
    10   10   19 1
    11   11   12 ar
    12   12   18 ar
    13   13    9 ar
    14   14    8 1
    15   15   13 ar
    16   16    3 2
    17   17    8 1
    18   18   15 ar
    19   19   31 1
    20   20   10 1
    21   21   11 1
    22   22   13 1
    23   23   15 1
    24   24   18 1
    25   25   14 1
    26   26   14 1
    27   27   14 1
    28   28   17 1
    29   29   17 1
    30   30   17 1
    31   32   19 1
    32   33   19 1
    33   34   20 1
    34   35   20 1
    35   36   20 1
    36    4   16 1
    37    9   16 1
@<TRIPOS>SUBSTRUCTURE
     1 RES1 1

@<TRIPOS>CRYSIN
   7.3818   17.5152   12.1987  90.0000 116.8500  90.0000  14 1

