# MOL2 file generated by ConQuest
# Please check atom types

@<TRIPOS>MOLECULE
SAFKAL
    10     9     1
SMALL
NO_CHARGES
****
Generated from CSD

@<TRIPOS>ATOM
      1 C1         2.8494    2.2957    2.9482 C.2       1 RES1    0.0000
      2 C2         2.3025    1.2552    3.8017 C.2       1 RES1    0.0000
      3 N1         2.3405    2.7669    1.7175 N.pl3     1 RES1    0.0000
      4 N2         3.9439    2.9433    3.3447 N.1       1 RES1    0.0000
      5 N3         4.8426    3.4945    3.6897 N.2       1 RES1    0.0000
      6 O1         1.3095    2.2630    1.2903 O.2       1 RES1    0.0000
      7 O2         2.9749    3.6451    1.1374 O.2       1 RES1    0.0000
      8 O3         1.2248    0.7189    3.5959 O.2       1 RES1    0.0000
      9 O4         3.0994    1.0089    4.8024 O.3       1 RES1    0.0000
     10 H1         2.8199    0.2729    5.3215 H         1 RES1    0.0000
@<TRIPOS>BOND
     1    1    2 1
     2    2    8 2
     3    3    1 1
     4    4    1 2
     5    5    4 2
     6    6    3 2
     7    7    3 2
     8    9    2 1
     9   10    9 1
@<TRIPOS>SUBSTRUCTURE
     1 RES1 1

@<TRIPOS>CRYSIN
   4.9970   18.1910    5.1130  90.0000  99.4200  90.0000  14 1

