# MOL2 file generated by ConQuest
# Please check atom types

@<TRIPOS>MOLECULE
SAFQOH
    32    33     1
SMALL
NO_CHARGES
****
Generated from CSD

@<TRIPOS>ATOM
      1 N1         0.4328    5.9041    3.5788 N.2       1 RES1    0.0000
      2 N2         1.4168    6.7149    4.1116 N.am      1 RES1    0.0000
      3 N3         5.6328    8.7440    6.3374 N.pl3     1 RES1    0.0000
      4 O1        -2.9266    0.9701    1.3987 O.3       1 RES1    0.0000
      5 H1        -3.6758    1.2957    1.3320 H         1 RES1    0.0000
      6 O2         0.0342    8.4856    4.0342 O.2       1 RES1    0.0000
      7 O3         5.7488    7.5398    6.4916 O.2       1 RES1    0.0000
      8 O4         6.5351    9.5378    6.5707 O.2       1 RES1    0.0000
      9 C1         0.0667    2.3732    2.8699 C.ar      1 RES1    0.0000
     10 H2         0.8875    2.0739    3.1883 H         1 RES1    0.0000
     11 C2        -0.8372    1.4672    2.3645 C.ar      1 RES1    0.0000
     12 H3        -0.6267    0.5614    2.3438 H         1 RES1    0.0000
     13 C3        -2.0666    1.9068    1.8849 C.ar      1 RES1    0.0000
     14 C4        -2.3694    3.2521    1.9094 C.ar      1 RES1    0.0000
     15 H4        -3.1856    3.5511    1.5800 H         1 RES1    0.0000
     16 C5        -1.4645    4.1514    2.4213 C.ar      1 RES1    0.0000
     17 H5        -1.6792    5.0563    2.4412 H         1 RES1    0.0000
     18 C6        -0.2299    3.7265    2.9112 C.ar      1 RES1    0.0000
     19 C7         0.7202    4.6742    3.4746 C.2       1 RES1    0.0000
     20 H6         1.5516    4.3719    3.7627 H         1 RES1    0.0000
     21 C8         1.1321    8.0104    4.3077 C.2       1 RES1    0.0000
     22 C9         2.2302    8.8747    4.8447 C.ar      1 RES1    0.0000
     23 C10        3.4176    8.3768    5.3607 C.ar      1 RES1    0.0000
     24 H7         3.5745    7.4602    5.3940 H         1 RES1    0.0000
     25 C11        4.3635    9.2746    5.8249 C.ar      1 RES1    0.0000
     26 C12        4.1706   10.6303    5.8145 C.ar      1 RES1    0.0000
     27 H8         4.8198   11.2062    6.1474 H         1 RES1    0.0000
     28 C13        2.9843   11.1212    5.2967 C.ar      1 RES1    0.0000
     29 H9         2.8309   12.0380    5.2715 H         1 RES1    0.0000
     30 C14        2.0291   10.2440    4.8175 C.ar      1 RES1    0.0000
     31 H10        1.2347   10.5815    4.4700 H         1 RES1    0.0000
     32 H11        2.1537    6.3119    4.4020 H         1 RES1    0.0000
@<TRIPOS>BOND
     1    1    2 1
     2    2   21 1
     3    3    7 2
     4    4    5 1
     5    6   21 2
     6    8    3 2
     7    9   10 1
     8   11    9 ar
     9   12   11 1
    10   13    4 1
    11   14   13 ar
    12   15   14 1
    13   16   14 ar
    14   17   16 1
    15   18    9 ar
    16   19    1 2
    17   20   19 1
    18   21   22 1
    19   22   23 ar
    20   23   24 1
    21   25    3 1
    22   26   25 ar
    23   27   26 1
    24   28   26 ar
    25   29   28 1
    26   30   22 ar
    27   31   30 1
    28   32    2 1
    29   11   13 ar
    30   16   18 ar
    31   18   19 1
    32   23   25 ar
    33   28   30 ar
@<TRIPOS>SUBSTRUCTURE
     1 RES1 1

@<TRIPOS>CRYSIN
  10.3620   12.1780   10.4680  90.0000  91.6660  90.0000 231 1

