# MOL2 file generated by ConQuest
# Please check atom types

@<TRIPOS>MOLECULE
SAGJAN
    28    29     1
SMALL
NO_CHARGES
****
Generated from CSD

@<TRIPOS>ATOM
      1 O1         0.6080    4.1842    4.3110 O.3       1 RES1    0.0000
      2 C1         0.4688    3.7472    7.9082 C.ar      1 RES1    0.0000
      3 H1         0.3167    3.0533    8.5080 H         1 RES1    0.0000
      4 C2         0.9833    6.0046    7.4494 C.ar      1 RES1    0.0000
      5 H2         1.1804    6.8649    7.7423 H         1 RES1    0.0000
      6 C3         0.7587    5.0150    8.3902 C.ar      1 RES1    0.0000
      7 N1         0.0841    2.1382    6.1611 N.pl3     1 RES1    0.0000
      8 C4         0.4036    3.5040    6.5618 C.ar      1 RES1    0.0000
      9 C5         0.6370    4.5007    5.6091 C.ar      1 RES1    0.0000
     10 C6         0.9261    5.7624    6.1024 C.ar      1 RES1    0.0000
     11 H3         1.0841    6.4598    5.5068 H         1 RES1    0.0000
     12 C7         0.8297    5.2823    9.8367 C.ar      1 RES1    0.0000
     13 O2         0.3920    1.2432    6.9227 O.2       1 RES1    0.0000
     14 C8         0.8906    5.2144    3.3758 C.3       1 RES1    0.0000
     15 H4         0.2290    5.9062    3.4521 H         1 RES1    0.0000
     16 H5         0.8754    4.8524    2.4865 H         1 RES1    0.0000
     17 H6         1.7594    5.5819    3.5563 H         1 RES1    0.0000
     18 O3        -0.5109    1.9518    5.1254 O.2       1 RES1    0.0000
     19 C9         1.7623    6.1617   10.3515 C.ar      1 RES1    0.0000
     20 H7         2.3377    6.6069    9.7714 H         1 RES1    0.0000
     21 C10       -0.0138    4.6605   10.7388 C.ar      1 RES1    0.0000
     22 H8        -0.6565    4.0653   10.4266 H         1 RES1    0.0000
     23 C11        1.8565    6.3915   11.7047 C.ar      1 RES1    0.0000
     24 H9         2.4957    6.9860   12.0261 H         1 RES1    0.0000
     25 C12        0.0812    4.9082   12.0899 C.ar      1 RES1    0.0000
     26 H10       -0.5058    4.4891   12.6769 H         1 RES1    0.0000
     27 C13        1.0275    5.7608   12.5757 C.ar      1 RES1    0.0000
     28 H11        1.1044    5.9077   13.4916 H         1 RES1    0.0000
@<TRIPOS>BOND
     1    1    9 1
     2    2    3 1
     3    4    5 1
     4    6    2 ar
     5    7    8 1
     6    8    2 ar
     7    9    8 ar
     8   10    4 ar
     9   11   10 1
    10   12    6 1
    11   13    7 2
    12   14    1 1
    13   15   14 1
    14   16   14 1
    15   17   14 1
    16   18    7 2
    17   19   12 ar
    18   20   19 1
    19   21   12 ar
    20   22   21 1
    21   23   19 ar
    22   24   23 1
    23   25   21 ar
    24   26   25 1
    25   27   23 ar
    26   28   27 1
    27    4    6 ar
    28    9   10 ar
    29   25   27 ar
@<TRIPOS>SUBSTRUCTURE
     1 RES1 1

@<TRIPOS>CRYSIN
   7.2464   14.4160   21.2700  90.0000  90.0000  90.0000  61 1

