# MOL2 file generated by ConQuest
# Please check atom types

@<TRIPOS>MOLECULE
SAGLES
    43    45     1
SMALL
NO_CHARGES
****
Generated from CSD

@<TRIPOS>ATOM
      1 C1         1.3347    7.2118    5.1593 C.3       1 RES1    0.0000
      2 C2        -0.8318    8.2588    5.2257 C.3       1 RES1    0.0000
      3 H1        -1.2765    7.3956    5.2379 H         1 RES1    0.0000
      4 H2        -1.3953    8.8829    4.7425 H         1 RES1    0.0000
      5 C3        -0.6300    8.7389    6.6199 C.3       1 RES1    0.0000
      6 H3        -1.4908    8.8340    7.0561 H         1 RES1    0.0000
      7 H4        -0.2040    9.6098    6.6026 H         1 RES1    0.0000
      8 C4         0.2220    7.7812    7.3983 C.3       1 RES1    0.0000
      9 H5        -0.2766    6.9644    7.5566 H         1 RES1    0.0000
     10 H6         0.4368    8.1710    8.2604 H         1 RES1    0.0000
     11 C5         1.5120    7.4476    6.6598 C.3       1 RES1    0.0000
     12 H7         1.8592    6.6159    7.0449 H         1 RES1    0.0000
     13 C6         2.6175    8.4233    6.6680 C.2       1 RES1    0.0000
     14 H8         2.8143    8.9656    7.3973 H         1 RES1    0.0000
     15 C7         3.2904    8.4507    5.5556 C.2       1 RES1    0.0000
     16 H9         4.0475    8.9735    5.4157 H         1 RES1    0.0000
     17 C8         2.6964    7.5395    4.5270 C.3       1 RES1    0.0000
     18 H10        3.2319    6.7205    4.4790 H         1 RES1    0.0000
     19 C9         0.6364    5.4713    3.6486 C.3       1 RES1    0.0000
     20 H11        0.3171    4.5660    3.6527 H         1 RES1    0.0000
     21 H12        1.4529    5.5198    3.1460 H         1 RES1    0.0000
     22 H13       -0.0218    6.0412    3.2441 H         1 RES1    0.0000
     23 C10        2.6485    8.1799    3.1532 C.3       1 RES1    0.0000
     24 H14        2.0693    7.6612    2.5740 H         1 RES1    0.0000
     25 H15        2.2803    9.0747    3.2247 H         1 RES1    0.0000
     26 C11        4.3857    7.1822    1.8805 C.2       1 RES1    0.0000
     27 C12        5.7280    7.3549    1.2829 C.ar      1 RES1    0.0000
     28 C13        6.4251    8.5454    1.3054 C.ar      1 RES1    0.0000
     29 H16        6.0573    9.2828    1.7375 H         1 RES1    0.0000
     30 C14        7.6421    8.6603    0.7068 C.ar      1 RES1    0.0000
     31 H17        8.1112    9.4641    0.7262 H         1 RES1    0.0000
     32 C15        8.1585    7.5554    0.0725 C.ar      1 RES1    0.0000
     33 C16        7.5080    6.3531    0.0306 C.ar      1 RES1    0.0000
     34 H18        7.8795    5.6215   -0.4065 H         1 RES1    0.0000
     35 C17        6.2981    6.2630    0.6507 C.ar      1 RES1    0.0000
     36 H19        5.8450    5.4501    0.6496 H         1 RES1    0.0000
     37 N1         9.4792    7.6527   -0.5863 N.pl3     1 RES1    0.0000
     38 O1         0.4351    8.1410    4.5679 O.3       1 RES1    0.0000
     39 O2         0.8735    5.8949    4.9795 O.3       1 RES1    0.0000
     40 O3         3.9847    8.2479    2.5740 O.3       1 RES1    0.0000
     41 O4         3.7187    6.1938    1.7416 O.2       1 RES1    0.0000
     42 O5        10.0374    8.6638   -0.5649 O.2       1 RES1    0.0000
     43 O6         9.9019    6.6688   -1.1409 O.2       1 RES1    0.0000
@<TRIPOS>BOND
     1    1   11 1
     2    2    3 1
     3    4    2 1
     4    5    2 1
     5    6    5 1
     6    7    5 1
     7    8    5 1
     8    9    8 1
     9   10    8 1
    10   11    8 1
    11   12   11 1
    12   13   11 1
    13   14   13 1
    14   15   13 2
    15   16   15 1
    16   17    1 1
    17   18   17 1
    18   19   20 1
    19   21   19 1
    20   22   19 1
    21   23   17 1
    22   24   23 1
    23   25   23 1
    24   26   27 1
    25   27   28 ar
    26   28   29 1
    27   30   28 ar
    28   31   30 1
    29   32   30 ar
    30   33   32 ar
    31   34   33 1
    32   35   27 ar
    33   36   35 1
    34   37   32 1
    35   38    1 1
    36   39    1 1
    37   40   23 1
    38   41   26 2
    39   42   37 2
    40   43   37 2
    41    2   38 1
    42   15   17 1
    43   19   39 1
    44   26   40 1
    45   33   35 ar
@<TRIPOS>SUBSTRUCTURE
     1 RES1 1

@<TRIPOS>CRYSIN
   7.8430   10.2050   10.6910  83.9900  73.0100  77.4700   2 1

