# MOL2 file generated by ConQuest
# Please check atom types

@<TRIPOS>MOLECULE
SAGLIW
    40    42     1
SMALL
NO_CHARGES
****
Generated from CSD

@<TRIPOS>ATOM
      1 C1        17.6466    0.5581    4.2147 C.3       1 RES1    0.0000
      2 H1        17.5093    1.4390    3.8581 H         1 RES1    0.0000
      3 H2        18.0446   -0.0014    3.5431 H         1 RES1    0.0000
      4 H3        18.2288    0.6082    4.9758 H         1 RES1    0.0000
      5 O1        16.4010    0.0092    4.6084 O.3       1 RES1    0.0000
      6 H4        11.8308    0.4228   -1.7291 H         1 RES1    0.0000
      7 H5        13.2695    1.9802    2.4239 H         1 RES1    0.0000
      8 H6        14.5243   -0.5567    6.5923 H         1 RES1    0.0000
      9 H7        15.4040    2.3819    4.2919 H         1 RES1    0.0000
     10 H8        13.3824    3.1500    6.1754 H         1 RES1    0.0000
     11 H9        12.7170    1.0289    6.3144 H         1 RES1    0.0000
     12 H10       16.0248    3.7913    6.3144 H         1 RES1    0.0000
     13 H11       14.5257   -1.5785    4.5389 H         1 RES1    0.0000
     14 H12       12.6609    3.4671    0.6484 H         1 RES1    0.0000
     15 H13       12.2835   -0.9936    0.0926 H         1 RES1    0.0000
     16 H14       13.0665   -1.2685    4.9558 H         1 RES1    0.0000
     17 H15       17.3163    3.1641    5.6351 H         1 RES1    0.0000
     18 C2        15.6671    0.7491    5.5795 C.3       1 RES1    0.0000
     19 C3        14.3563    0.0190    5.8157 C.3       1 RES1    0.0000
     20 C4        13.4931    1.2269    6.1152 C.2       1 RES1    0.0000
     21 C5        13.9536    2.3389    5.7972 C.2       1 RES1    0.0000
     22 C6        15.4349    2.2191    5.2553 C.3       1 RES1    0.0000
     23 C7        16.4168    3.0070    6.0766 C.3       1 RES1    0.0000
     24 C8        16.6197    2.1148    7.2808 C.3       1 RES1    0.0000
     25 H16       17.5131    2.2254    7.6436 H         1 RES1    0.0000
     26 H17       15.9726    2.3178    7.9740 H         1 RES1    0.0000
     27 C9        13.8798   -0.8590    4.7149 C.3       1 RES1    0.0000
     28 C10       13.1347   -0.5877    2.4872 C.2       1 RES1    0.0000
     29 C11       12.7950    0.3545    1.4219 C.ar      1 RES1    0.0000
     30 C12       12.3689   -0.1226    0.1976 C.ar      1 RES1    0.0000
     31 C13       12.0657    0.7202   -0.8306 C.ar      1 RES1    0.0000
     32 C14       12.2070    2.0775   -0.6314 C.ar      1 RES1    0.0000
     33 C15       12.6190    2.5884    0.5836 C.ar      1 RES1    0.0000
     34 C16       12.9223    1.7357    1.6025 C.ar      1 RES1    0.0000
     35 N1        11.9085    2.9936   -1.7245 N.pl3     1 RES1    0.0000
     36 O2        11.4456    2.5531   -2.7558 O.2       1 RES1    0.0000
     37 O3        12.1094    4.1803   -1.5655 O.2       1 RES1    0.0000
     38 O4        13.0507   -1.8005    2.3868 O.2       1 RES1    0.0000
     39 O5        13.5547   -0.0063    3.5881 O.3       1 RES1    0.0000
     40 O6        16.4326    0.7716    6.7837 O.3       1 RES1    0.0000
@<TRIPOS>BOND
     1    1    2 1
     2    3    1 1
     3    4    1 1
     4    5    1 1
     5    6   31 1
     6    7   34 1
     7    8   19 1
     8    9   22 1
     9   10   21 1
    10   11   20 1
    11   12   23 1
    12   13   27 1
    13   14   33 1
    14   15   30 1
    15   16   27 1
    16   17   23 1
    17   18    5 1
    18   19   18 1
    19   20   19 1
    20   21   20 2
    21   22   18 1
    22   23   22 1
    23   24   23 1
    24   25   24 1
    25   26   24 1
    26   27   19 1
    27   28   29 1
    28   29   30 ar
    29   30   31 ar
    30   31   32 ar
    31   32   33 ar
    32   33   34 ar
    33   34   29 ar
    34   35   32 1
    35   36   35 2
    36   37   35 2
    37   38   28 2
    38   39   27 1
    39   40   18 1
    40   21   22 1
    41   24   40 1
    42   28   39 1
@<TRIPOS>SUBSTRUCTURE
     1 RES1 1

@<TRIPOS>CRYSIN
  14.1360    7.0470   15.4390  90.0000  90.4340  90.0000  14 2

