# MOL2 file generated by ConQuest
# Please check atom types

@<TRIPOS>MOLECULE
SAGQUP
    46    49     1
SMALL
NO_CHARGES
****
Generated from CSD

@<TRIPOS>ATOM
      1 O1         4.2698    3.8726    5.3706 O.2       1 RES1    0.0000
      2 O2         2.6423    4.8696    6.5115 O.3       1 RES1    0.0000
      3 O3         0.2440    6.9017    8.1247 O.2       1 RES1    0.0000
      4 O4         0.8362    5.3365    9.3703 O.2       1 RES1    0.0000
      5 N1         6.0024    3.4699   11.4890 N.2       1 RES1    0.0000
      6 N2         4.3165    4.1918   10.1744 N.pl3     1 RES1    0.0000
      7 N3         6.2185    3.3055    9.1283 N.pl3     1 RES1    0.0000
      8 H1         7.0029    2.9582    9.1838 H         1 RES1    0.0000
      9 N4         1.0856    6.3426    8.7717 N.pl3     1 RES1    0.0000
     10 C1         4.9675    3.9712   12.2861 C.ar      1 RES1    0.0000
     11 C2         4.8789    4.0712   13.6666 C.ar      1 RES1    0.0000
     12 H2         5.5632    3.7617   14.2156 H         1 RES1    0.0000
     13 C3         3.7383    4.6477   14.2029 C.ar      1 RES1    0.0000
     14 H3         3.6680    4.7365   15.1250 H         1 RES1    0.0000
     15 C4         2.7020    5.0926   13.4052 C.ar      1 RES1    0.0000
     16 H4         1.9502    5.4702   13.8015 H         1 RES1    0.0000
     17 C5         2.7646    4.9851   12.0248 C.ar      1 RES1    0.0000
     18 H5         2.0679    5.2760   11.4821 H         1 RES1    0.0000
     19 C6         3.9141    4.4259   11.4916 C.ar      1 RES1    0.0000
     20 C7         5.5553    3.6433   10.2671 C.2       1 RES1    0.0000
     21 C8         3.6542    4.6259    8.9382 C.3       1 RES1    0.0000
     22 H6         2.7444    4.2602    8.9119 H         1 RES1    0.0000
     23 C9         4.4446    4.0911    7.7517 C.2       1 RES1    0.0000
     24 C10        5.6574    3.5094    7.8918 C.2       1 RES1    0.0000
     25 C11        6.5331    3.0154    6.7811 C.3       1 RES1    0.0000
     26 H7         6.5335    2.0547    6.7769 H         1 RES1    0.0000
     27 H8         7.4283    3.3346    6.9128 H         1 RES1    0.0000
     28 H9         6.1983    3.3386    5.9413 H         1 RES1    0.0000
     29 C12        3.5857    6.1622    8.9234 C.ar      1 RES1    0.0000
     30 C13        2.4311    6.9345    8.8328 C.ar      1 RES1    0.0000
     31 C14        2.4734    8.3144    8.7854 C.ar      1 RES1    0.0000
     32 H10        1.6820    8.7990    8.7233 H         1 RES1    0.0000
     33 C15        3.6597    8.9648    8.8297 C.ar      1 RES1    0.0000
     34 H11        3.6877    9.8945    8.8128 H         1 RES1    0.0000
     35 C16        4.8244    8.2344    8.9013 C.ar      1 RES1    0.0000
     36 H12        5.6446    8.6714    8.9193 H         1 RES1    0.0000
     37 C17        4.7796    6.8641    8.9445 C.ar      1 RES1    0.0000
     38 H13        5.5782    6.3901    8.9899 H         1 RES1    0.0000
     39 C18        3.8281    4.2438    6.4260 C.2       1 RES1    0.0000
     40 C19        2.0017    5.1244    5.2394 C.3       1 RES1    0.0000
     41 H14        2.6744    5.3112    4.5650 H         1 RES1    0.0000
     42 H15        1.5022    4.3415    4.9612 H         1 RES1    0.0000
     43 C20        1.1144    6.2475    5.3617 C.3       1 RES1    0.0000
     44 H16        0.4628    6.0669    6.0435 H         1 RES1    0.0000
     45 H17        0.6692    6.3958    4.5250 H         1 RES1    0.0000
     46 H18        1.6188    7.0297    5.5998 H         1 RES1    0.0000
@<TRIPOS>BOND
     1    1   39 2
     2    2   39 1
     3    3    9 2
     4    4    9 2
     5    5   10 1
     6    6   19 1
     7    7    8 1
     8    9   30 1
     9   10   11 ar
    10   11   12 1
    11   13   11 ar
    12   14   13 1
    13   15   13 ar
    14   16   15 1
    15   17   15 ar
    16   18   17 1
    17   19   10 ar
    18   20    5 2
    19   21    6 1
    20   22   21 1
    21   23   21 1
    22   24    7 1
    23   25   24 1
    24   26   25 1
    25   27   25 1
    26   28   25 1
    27   29   21 1
    28   30   29 ar
    29   31   30 ar
    30   32   31 1
    31   33   31 ar
    32   34   33 1
    33   35   33 ar
    34   36   35 1
    35   37   29 ar
    36   38   37 1
    37   39   23 1
    38   40    2 1
    39   41   40 1
    40   42   40 1
    41   43   40 1
    42   44   43 1
    43   45   43 1
    44   46   43 1
    45    6   20 1
    46    7   20 1
    47   17   19 ar
    48   23   24 2
    49   35   37 ar
@<TRIPOS>SUBSTRUCTURE
     1 RES1 1

@<TRIPOS>CRYSIN
   7.8274   11.2215   11.4253  71.2790  72.2245  71.6451   2 1

