# MOL2 file generated by ConQuest
# Please check atom types

@<TRIPOS>MOLECULE
SAGQIB
    51    53     1
SMALL
NO_CHARGES
****
Generated from CSD

@<TRIPOS>ATOM
      1 C1         1.0039    2.4780    9.2264 C.3       1 RES1    0.0000
      2 C2        -0.4581    3.0688    9.1327 C.3       1 RES1    0.0000
      3 H1        -0.8796    2.6406    8.3576 H         1 RES1    0.0000
      4 C3        -1.2984    2.6699   10.3541 C.3       1 RES1    0.0000
      5 H2        -0.8622    2.9821   11.1624 H         1 RES1    0.0000
      6 H3        -2.1695    3.0927   10.2995 H         1 RES1    0.0000
      7 C4        -1.4682    1.1816   10.4193 C.2       1 RES1    0.0000
      8 C5        -0.4238    0.3696    9.7273 C.3       1 RES1    0.0000
      9 H4        -0.6292    0.3035    8.7825 H         1 RES1    0.0000
     10 H5        -0.4046   -0.5268   10.0977 H         1 RES1    0.0000
     11 C6         0.9504    1.0471    9.9208 C.3       1 RES1    0.0000
     12 H6         1.0404    1.2087   10.8823 H         1 RES1    0.0000
     13 C7         2.1070    0.1290    9.5350 C.ar      1 RES1    0.0000
     14 C8         1.9766   -0.8303    8.5380 C.ar      1 RES1    0.0000
     15 H7         1.1702   -0.9095    8.0798 H         1 RES1    0.0000
     16 C9         3.0383   -1.6737    8.2163 C.ar      1 RES1    0.0000
     17 H8         2.9360   -2.3133    7.5492 H         1 RES1    0.0000
     18 C10        4.2303   -1.5620    8.8810 C.ar      1 RES1    0.0000
     19 H9         4.9378   -2.1236    8.6626 H         1 RES1    0.0000
     20 C11        4.3805   -0.6233    9.8686 C.ar      1 RES1    0.0000
     21 H10        5.1908   -0.5518   10.3220 H         1 RES1    0.0000
     22 C12        3.3195    0.2276   10.1938 C.ar      1 RES1    0.0000
     23 H11        3.4286    0.8672   10.8609 H         1 RES1    0.0000
     24 C13       -0.5509    4.5691    8.8964 C.ar      1 RES1    0.0000
     25 C14       -0.6263    5.4840    9.9434 C.ar      1 RES1    0.0000
     26 H12       -0.5644    5.1772   10.8194 H         1 RES1    0.0000
     27 C15       -0.7907    6.8390    9.7107 C.ar      1 RES1    0.0000
     28 H13       -0.8334    7.4319   10.4253 H         1 RES1    0.0000
     29 C16       -0.8906    7.3029    8.4264 C.ar      1 RES1    0.0000
     30 H14       -1.0084    8.2113    8.2638 H         1 RES1    0.0000
     31 C17       -0.8132    6.4064    7.3700 C.ar      1 RES1    0.0000
     32 H15       -0.8713    6.7186    6.4964 H         1 RES1    0.0000
     33 C18       -0.6498    5.0579    7.6038 C.ar      1 RES1    0.0000
     34 H16       -0.6070    4.4693    6.8857 H         1 RES1    0.0000
     35 C19        1.8485    3.4482   10.0585 C.2       1 RES1    0.0000
     36 O1         1.9996    3.3561   11.2460 O.2       1 RES1    0.0000
     37 O2         2.2907    4.4660    9.3384 O.3       1 RES1    0.0000
     38 C20        2.8703    5.5728   10.0704 C.3       1 RES1    0.0000
     39 H17        3.1646    6.2460    9.4520 H         1 RES1    0.0000
     40 H18        3.6208    5.2596   10.5820 H         1 RES1    0.0000
     41 H19        2.2106    5.9457   10.6603 H         1 RES1    0.0000
     42 C21        1.5621    2.2840    7.8068 C.2       1 RES1    0.0000
     43 O3         0.8888    2.0238    6.8497 O.2       1 RES1    0.0000
     44 O4         2.8935    2.3334    7.7814 O.3       1 RES1    0.0000
     45 C22        3.5187    1.9219    6.5438 C.3       1 RES1    0.0000
     46 H20        4.4721    1.9967    6.6269 H         1 RES1    0.0000
     47 H21        3.2159    2.4867    5.8293 H         1 RES1    0.0000
     48 H22        3.2822    1.0114    6.3539 H         1 RES1    0.0000
     49 N1        -2.4315    0.6146   11.0342 N.2       1 RES1    0.0000
     50 O5        -3.2894    1.5523   11.6669 O.3       1 RES1    0.0000
     51 H23       -3.5962    2.0639   11.1042 H         1 RES1    0.0000
@<TRIPOS>BOND
     1    1    2 1
     2    2    3 1
     3    4    2 1
     4    5    4 1
     5    6    4 1
     6    7    4 1
     7    8    7 1
     8    9    8 1
     9   10    8 1
    10   11    1 1
    11   12   11 1
    12   13   11 1
    13   14   13 ar
    14   15   14 1
    15   16   14 ar
    16   17   16 1
    17   18   16 ar
    18   19   18 1
    19   20   18 ar
    20   21   20 1
    21   22   13 ar
    22   23   22 1
    23   24    2 1
    24   25   24 ar
    25   26   25 1
    26   27   25 ar
    27   28   27 1
    28   29   27 ar
    29   30   29 1
    30   31   29 ar
    31   32   31 1
    32   33   24 ar
    33   34   33 1
    34   35    1 1
    35   36   35 2
    36   37   35 1
    37   38   37 1
    38   39   38 1
    39   40   38 1
    40   41   38 1
    41   42    1 1
    42   43   42 2
    43   44   42 1
    44   45   44 1
    45   46   45 1
    46   47   45 1
    47   48   45 1
    48   49    7 2
    49   50   49 1
    50   51   50 1
    51    8   11 1
    52   20   22 ar
    53   31   33 ar
@<TRIPOS>SUBSTRUCTURE
     1 RES1 1

@<TRIPOS>CRYSIN
  30.8120   10.8400   12.4010  90.0000 106.8300  90.0000  15 1

