# MOL2 file generated by ConQuest
# Please check atom types

@<TRIPOS>MOLECULE
SAGRUN
     7     6     1
SMALL
NO_CHARGES
****
Generated from CSD

@<TRIPOS>ATOM
      1 O1         0.4392    5.9659    2.7582 O.3       1 RES1    0.0000
      2 N1         0.9894    5.0148    3.6062 N.am      1 RES1    0.0000
      3 C1         0.7103    3.7518    3.3892 C.2       1 RES1    0.0000
      4 O2         0.0551    3.3094    2.4115 O.2       1 RES1    0.0000
      5 H1         1.0051    6.5974    2.5936 H         1 RES1    0.0000
      6 H2         1.2908    5.3208    4.4078 H         1 RES1    0.0000
      7 H3         1.0459    3.1379    4.1122 H         1 RES1    0.0000
@<TRIPOS>BOND
     1    1    2 1
     2    2    3 1
     3    3    4 2
     4    5    1 1
     5    6    2 1
     6    7    3 1
@<TRIPOS>SUBSTRUCTURE
     1 RES1 1

@<TRIPOS>CRYSIN
   3.6360    9.7450    7.5120  90.0000 116.5600  90.0000   9 1

