# MOL2 file generated by ConQuest
# Please check atom types

@<TRIPOS>MOLECULE
SAGSAV
    65    66     1
SMALL
USER_CHARGES
****
Generated from CSD

@<TRIPOS>ATOM
      1 O1         2.9643    3.0223    0.6076 O.2       1 RES1    0.0000
      2 O2         4.7468    1.8301    0.1913 O.2       1 RES1    0.0000
      3 O3         9.0691    3.4044    1.2620 O.2       1 RES1   -1.0000
      4 O4         9.3465    5.3255    2.2718 O.2       1 RES1   -1.0000
      5 O5         3.6421    7.2728    3.3208 O.2       1 RES1    0.0000
      6 O6         5.6610    8.0441    3.4947 O.2       1 RES1    0.0000
      7 O7         1.4183    4.1216    4.0382 O.2       1 RES1    0.0000
      8 N1         3.3864    4.4767    3.0349 N.am      1 RES1    0.0000
      9 N2         4.1921    2.8015    0.6631 N.pl3     1 RES1    0.0000
     10 N3         1.3941    5.2822    2.0936 N.am      1 RES1    0.0000
     11 N4         8.5698    4.4154    1.7936 N.pl3     1 RES1    1.0000
     12 N5         3.4299    5.7319    0.9750 N.pl3     1 RES1    0.0000
     13 N6         4.8385    7.1277    3.1251 N.pl3     1 RES1    0.0000
     14 N7         1.4400    6.7267    0.2500 N.pl3     1 RES1    1.0000
     15 H1         1.5485    6.5843   -0.5913 H         1 RES1    0.0000
     16 C1         4.3030    4.9768    1.9370 C.3       1 RES1    0.0000
     17 C2         4.9953    3.8612    1.3305 C.2       1 RES1    0.0000
     18 C3         6.3484    3.6702    1.3098 C.2       1 RES1    0.0000
     19 H2         6.7102    2.8997    0.9348 H         1 RES1    0.0000
     20 C4         7.1998    4.6614    1.8686 C.2       1 RES1    0.0000
     21 C5         6.6499    5.7706    2.4501 C.2       1 RES1    0.0000
     22 H3         7.2167    6.4113    2.8142 H         1 RES1    0.0000
     23 C6         5.3595    5.9653    2.5164 C.2       1 RES1    0.0000
     24 C7         2.1081    4.6136    3.1153 C.2       1 RES1    0.0000
     25 C8         2.1612    5.9815    1.0794 C.2       1 RES1    0.0000
     26 C9         3.9605    4.4514    5.5252 C.3       1 RES1    0.0000
     27 H4         4.2282    5.3697    5.4774 H         1 RES1    0.0000
     28 H5         4.4936    3.9955    6.1829 H         1 RES1    0.0000
     29 H6         3.0343    4.3974    5.7720 H         1 RES1    0.0000
     30 C10        4.1679    3.7648    4.1143 C.3       1 RES1    0.0000
     31 H7         5.1183    3.8360    3.8871 H         1 RES1    0.0000
     32 C11        3.8110    2.2978    4.1371 C.3       1 RES1    0.0000
     33 H8         3.9750    1.9130    3.2719 H         1 RES1    0.0000
     34 H9         2.8823    2.1951    4.3621 H         1 RES1    0.0000
     35 H10        4.3488    1.8464    4.7926 H         1 RES1    0.0000
     36 C12       -0.2291    3.4566    1.6979 C.3       1 RES1    0.0000
     37 H11        0.2919    3.1286    0.9620 H         1 RES1    0.0000
     38 H12       -1.1553    3.2557    1.5490 H         1 RES1    0.0000
     39 H13        0.0627    3.0349    2.5099 H         1 RES1    0.0000
     40 C13       -0.0531    4.9290    1.8131 C.3       1 RES1    0.0000
     41 H14       -0.3280    5.3471    0.9729 H         1 RES1    0.0000
     42 C14       -0.8780    5.5472    2.9914 C.3       1 RES1    0.0000
     43 H15       -0.7429    6.4969    3.0121 H         1 RES1    0.0000
     44 H16       -0.5885    5.1642    3.8230 H         1 RES1    0.0000
     45 H17       -1.8114    5.3606    2.8610 H         1 RES1    0.0000
     46 C15       -0.1158    8.3352   -0.6576 C.3       1 RES1    0.0000
     47 H18       -0.5138    7.6305   -1.1729 H         1 RES1    0.0000
     48 H19        0.5765    8.7578   -1.1729 H         1 RES1    0.0000
     49 H20       -0.7887    8.9858   -0.4337 H         1 RES1    0.0000
     50 C16        0.4800    7.7603    0.6218 C.3       1 RES1    0.0000
     51 H21       -0.2412    7.3413    1.1359 H         1 RES1    0.0000
     52 C17        1.0854    8.8758    1.4653 C.3       1 RES1    0.0000
     53 H22        1.4520    8.5073    2.2707 H         1 RES1    0.0000
     54 H23        0.4028    9.5156    1.6892 H         1 RES1    0.0000
     55 H24        1.7801    9.3147    0.9674 H         1 RES1    0.0000
     56 C18        4.2982    7.8486   -0.1533 C.3       1 RES1    0.0000
     57 H25        4.5563    8.1514    0.7207 H         1 RES1    0.0000
     58 H26        3.4395    8.2153   -0.3783 H         1 RES1    0.0000
     59 H27        4.9494    8.1387   -0.7968 H         1 RES1    0.0000
     60 C19        4.2210    6.3546   -0.1609 C.3       1 RES1    0.0000
     61 H28        5.1424    6.0680    0.0076 H         1 RES1    0.0000
     62 C20        3.8906    5.7580   -1.5305 C.3       1 RES1    0.0000
     63 H29        4.4477    6.1644   -2.1990 H         1 RES1    0.0000
     64 H30        2.9692    5.9247   -1.7392 H         1 RES1    0.0000
     65 H31        4.0497    4.8119   -1.5142 H         1 RES1    0.0000
@<TRIPOS>BOND
     1    1    9 2
     2    2    9 2
     3    3   11 1
     4    4   11 1
     5    5   13 2
     6    6   13 2
     7    7   24 2
     8    8   16 1
     9    9   17 1
    10   10   24 1
    11   11   20 2
    12   12   16 1
    13   13   23 1
    14   14   15 1
    15   16   17 1
    16   17   18 2
    17   18   19 1
    18   20   18 1
    19   21   20 1
    20   22   21 1
    21   23   16 1
    22   24    8 1
    23   25   10 1
    24   26   27 1
    25   28   26 1
    26   29   26 1
    27   30    8 1
    28   31   30 1
    29   32   30 1
    30   33   32 1
    31   34   32 1
    32   35   32 1
    33   36   37 1
    34   38   36 1
    35   39   36 1
    36   40   10 1
    37   41   40 1
    38   42   40 1
    39   43   42 1
    40   44   42 1
    41   45   42 1
    42   46   47 1
    43   48   46 1
    44   49   46 1
    45   50   14 1
    46   51   50 1
    47   52   50 1
    48   53   52 1
    49   54   52 1
    50   55   52 1
    51   56   57 1
    52   58   56 1
    53   59   56 1
    54   60   12 1
    55   61   60 1
    56   62   60 1
    57   63   62 1
    58   64   62 1
    59   65   62 1
    60   12   25 1
    61   14   25 2
    62   21   23 2
    63   26   30 1
    64   36   40 1
    65   46   50 1
    66   56   60 1
@<TRIPOS>SUBSTRUCTURE
     1 RES1 1

@<TRIPOS>CRYSIN
  24.1200    9.0110   10.8700  90.0000  90.0000  90.0000  33 1

