# MOL2 file generated by ConQuest
# Please check atom types

@<TRIPOS>MOLECULE
SAGVUT
    26    26     1
SMALL
NO_CHARGES
****
Generated from CSD

@<TRIPOS>ATOM
      1 C1         2.1426    1.4235    1.5150 C.ar      1 RES1    0.0000
      2 H1         2.1128    1.2035    0.6113 H         1 RES1    0.0000
      3 O1         4.0671    2.2252   -0.1162 O.2       1 RES1    0.0000
      4 N1        -0.8990   -0.3416    1.5371 N.1       1 RES1    0.0000
      5 O2         5.2318    3.1238    1.4307 O.2       1 RES1    0.0000
      6 N2         4.2265    2.5250    1.0563 N.pl3     1 RES1    0.0000
      7 C2         3.2120    2.1453    2.0124 C.ar      1 RES1    0.0000
      8 N3         4.3122    3.2156    3.9064 N.pl3     1 RES1    0.0000
      9 H2         4.9643    3.4160    3.3824 H         1 RES1    0.0000
     10 C3         3.3068    2.5111    3.3877 C.ar      1 RES1    0.0000
     11 C4         2.2283    2.0750    4.1973 C.ar      1 RES1    0.0000
     12 H3         2.2378    2.2891    5.1025 H         1 RES1    0.0000
     13 C5         1.1894    1.3647    3.7128 C.ar      1 RES1    0.0000
     14 H4         0.5086    1.0939    4.2861 H         1 RES1    0.0000
     15 C6         1.1242    1.0285    2.3481 C.ar      1 RES1    0.0000
     16 C7         0.0073    0.2713    1.8727 C.1       1 RES1    0.0000
     17 C8         4.4013    3.6784    5.3022 C.3       1 RES1    0.0000
     18 H5         4.1368    2.9404    5.8908 H         1 RES1    0.0000
     19 C9         5.8443    4.0124    5.5756 C.3       1 RES1    0.0000
     20 H6         6.3897    3.2423    5.4017 H         1 RES1    0.0000
     21 H7         5.9440    4.2741    6.4938 H         1 RES1    0.0000
     22 H8         6.1196    4.7332    5.0053 H         1 RES1    0.0000
     23 C10        3.4864    4.8478    5.5642 C.3       1 RES1    0.0000
     24 H9         2.5789    4.5884    5.3888 H         1 RES1    0.0000
     25 H10        3.7277    5.5769    4.9894 H         1 RES1    0.0000
     26 H11        3.5702    5.1199    6.4801 H         1 RES1    0.0000
@<TRIPOS>BOND
     1    1    2 1
     2    3    6 2
     3    4   16 3
     4    5    6 2
     5    6    7 1
     6    7    1 ar
     7    8    9 1
     8   10    7 ar
     9   11   10 ar
    10   12   11 1
    11   13   11 ar
    12   14   13 1
    13   15    1 ar
    14   16   15 1
    15   17    8 1
    16   18   17 1
    17   19   17 1
    18   20   19 1
    19   21   19 1
    20   22   19 1
    21   23   17 1
    22   24   23 1
    23   25   23 1
    24   26   23 1
    25    8   10 1
    26   13   15 ar
@<TRIPOS>SUBSTRUCTURE
     1 RES1 1

@<TRIPOS>CRYSIN
   6.6640   20.6780    7.8900  90.0000 105.7400  90.0000 231 1

