# MOL2 file generated by ConQuest
# Please check atom types

@<TRIPOS>MOLECULE
SAGWOP
    64    69     1
SMALL
NO_CHARGES
****
Generated from CSD

@<TRIPOS>ATOM
      1 O1         6.2211    3.2169    7.3020 O.3       1 RES1    0.0000
      2 O2        -3.4613    2.5575   -0.4408 O.2       1 RES1    0.0000
      3 O3        -2.8213    0.6945   -1.2638 O.2       1 RES1    0.0000
      4 N1         2.1640    2.9522    3.4862 N.pl3     1 RES1    0.0000
      5 H1         1.4850    3.4521    3.6581 H         1 RES1    0.0000
      6 N2         1.0180    0.6299    7.3323 N.pl3     1 RES1    0.0000
      7 H2         0.5469    1.3327    7.0917 H         1 RES1    0.0000
      8 N3        -2.6768    1.6407   -0.5055 N.pl3     1 RES1    0.0000
      9 C1         1.7622    1.6112    3.1060 C.3       1 RES1    0.0000
     10 H3         2.5434    1.1326    2.7036 H         1 RES1    0.0000
     11 C2         1.3241    0.8854    4.3961 C.3       1 RES1    0.0000
     12 H4         0.6651    1.4756    4.8633 H         1 RES1    0.0000
     13 C3         2.5348    0.7092    5.3364 C.3       1 RES1    0.0000
     14 H5         3.1264    0.0267    4.9098 H         1 RES1    0.0000
     15 C4         3.3527    2.0050    5.4072 C.ar      1 RES1    0.0000
     16 C5         3.1389    3.0509    4.5033 C.ar      1 RES1    0.0000
     17 C6         3.9142    4.2065    4.6105 C.ar      1 RES1    0.0000
     18 H6         3.7273    4.9434    4.0402 H         1 RES1    0.0000
     19 C7         4.9474    4.3070    5.5245 C.ar      1 RES1    0.0000
     20 H7         5.4812    5.0919    5.5589 H         1 RES1    0.0000
     21 C8         5.1968    3.2556    6.3900 C.ar      1 RES1    0.0000
     22 C9         4.3796    2.1240    6.3415 C.ar      1 RES1    0.0000
     23 H8         4.5274    1.4185    6.9602 H         1 RES1    0.0000
     24 C10        7.0432    4.3854    7.4112 C.3       1 RES1    0.0000
     25 H9         7.5703    4.4924    6.5902 H         1 RES1    0.0000
     26 H10        7.6474    4.2904    8.1776 H         1 RES1    0.0000
     27 H11        6.4754    5.1740    7.5386 H         1 RES1    0.0000
     28 C11        2.1261    0.1430    6.6630 C.2       1 RES1    0.0000
     29 C12        2.6092   -0.9767    7.3343 C.2       1 RES1    0.0000
     30 C13        1.7430   -1.1741    8.4485 C.ar      1 RES1    0.0000
     31 C14        1.6852   -2.1526    9.4636 C.ar      1 RES1    0.0000
     32 H12        2.3389   -2.8406    9.5061 H         1 RES1    0.0000
     33 C15        0.6760   -2.0982   10.3857 C.ar      1 RES1    0.0000
     34 H13        0.6293   -2.7576   11.0672 H         1 RES1    0.0000
     35 C16       -0.2852   -1.0883   10.3372 C.ar      1 RES1    0.0000
     36 H14       -0.9859   -1.0864   10.9782 H         1 RES1    0.0000
     37 C17       -0.2458   -0.0895    9.3807 C.ar      1 RES1    0.0000
     38 H15       -0.8858    0.6124    9.3747 H         1 RES1    0.0000
     39 C18        0.7688   -0.1540    8.4303 C.ar      1 RES1    0.0000
     40 C19        3.7588   -1.8529    6.9602 C.3       1 RES1    0.0000
     41 H16        3.4232   -2.7244    6.6610 H         1 RES1    0.0000
     42 H17        4.3426   -1.9764    7.7367 H         1 RES1    0.0000
     43 H18        4.2669   -1.4332    6.2343 H         1 RES1    0.0000
     44 C20        0.6089   -0.4252    4.0645 C.ar      1 RES1    0.0000
     45 C21       -0.7334   -0.4012    3.7551 C.ar      1 RES1    0.0000
     46 H19       -1.2357    0.3846    3.9371 H         1 RES1    0.0000
     47 C22       -1.3746   -1.4996    3.1849 C.ar      1 RES1    0.0000
     48 H20       -2.2887   -1.4443    2.9341 H         1 RES1    0.0000
     49 C23       -0.6682   -2.6626    2.9908 C.ar      1 RES1    0.0000
     50 H21       -1.0854   -3.4124    2.5823 H         1 RES1    0.0000
     51 C24        0.6435   -2.7346    3.3891 C.ar      1 RES1    0.0000
     52 H22        1.1122   -3.5563    3.3042 H         1 RES1    0.0000
     53 C25        1.2968   -1.6324    3.9169 C.ar      1 RES1    0.0000
     54 H23        2.2085   -1.6961    4.1757 H         1 RES1    0.0000
     55 C26        0.6459    1.6859    2.0929 C.ar      1 RES1    0.0000
     56 C27       -0.3628    2.6340    2.2223 C.ar      1 RES1    0.0000
     57 H24       -0.3039    3.2889    2.9078 H         1 RES1    0.0000
     58 C28       -1.4469    2.6396    1.3710 C.ar      1 RES1    0.0000
     59 H25       -2.1278    3.2972    1.4479 H         1 RES1    0.0000
     60 C29       -1.5120    1.6500    0.3903 C.ar      1 RES1    0.0000
     61 C30       -0.5198    0.7185    0.2164 C.ar      1 RES1    0.0000
     62 H26       -0.5810    0.0664   -0.4712 H         1 RES1    0.0000
     63 C31        0.5719    0.7507    1.0657 C.ar      1 RES1    0.0000
     64 H27        1.2786    0.1273    0.9464 H         1 RES1    0.0000
@<TRIPOS>BOND
     1    1   21 1
     2    2    8 2
     3    3    8 2
     4    4    5 1
     5    6    7 1
     6    8   60 1
     7    9    4 1
     8   10    9 1
     9   11    9 1
    10   12   11 1
    11   13   11 1
    12   14   13 1
    13   15   13 1
    14   16    4 1
    15   17   16 ar
    16   18   17 1
    17   19   17 ar
    18   20   19 1
    19   21   19 ar
    20   22   15 ar
    21   23   22 1
    22   24    1 1
    23   25   24 1
    24   26   24 1
    25   27   24 1
    26   28    6 1
    27   29   28 2
    28   30   29 1
    29   31   30 ar
    30   32   31 1
    31   33   31 ar
    32   34   33 1
    33   35   33 ar
    34   36   35 1
    35   37   35 ar
    36   38   37 1
    37   39    6 1
    38   40   29 1
    39   41   40 1
    40   42   40 1
    41   43   40 1
    42   44   11 1
    43   45   44 ar
    44   46   45 1
    45   47   45 ar
    46   48   47 1
    47   49   47 ar
    48   50   49 1
    49   51   49 ar
    50   52   51 1
    51   53   44 ar
    52   54   53 1
    53   55    9 1
    54   56   55 ar
    55   57   56 1
    56   58   56 ar
    57   59   58 1
    58   60   58 ar
    59   61   60 ar
    60   62   61 1
    61   63   55 ar
    62   64   63 1
    63   13   28 1
    64   15   16 ar
    65   21   22 ar
    66   30   39 ar
    67   37   39 ar
    68   51   53 ar
    69   61   63 ar
@<TRIPOS>SUBSTRUCTURE
     1 RES1 1

@<TRIPOS>CRYSIN
   6.5466    9.2228   20.4337  90.0000  98.2650  90.0000   4 1

