# MOL2 file generated by ConQuest
# Please check atom types

@<TRIPOS>MOLECULE
SAHCOW
    42    42     1
SMALL
NO_CHARGES
****
Generated from CSD

@<TRIPOS>ATOM
      1 O1        -0.5307    6.9574    3.8203 O.2       1 RES1    0.0000
      2 O2         1.8840    5.0723    4.8901 O.3       1 RES1    0.0000
      3 O3         2.7885    5.4490    2.8672 O.2       1 RES1    0.0000
      4 O4         1.7036    5.2421   -0.3418 O.3       1 RES1    0.0000
      5 O5         1.5127    3.3083    0.7939 O.2       1 RES1    0.0000
      6 N1        -0.5307    5.6874    3.8203 N.3       1 RES1    0.0000
      7 C1         0.4299    4.8859    3.0345 C.3       1 RES1    0.0000
      8 C2        -0.0181    3.4919    3.3979 C.2       1 RES1    0.0000
      9 H1         0.3884    2.7022    3.0608 H         1 RES1    0.0000
     10 C3         1.8545    5.1745    3.5671 C.2       1 RES1    0.0000
     11 C4         3.1735    5.3314    5.5221 C.3       1 RES1    0.0000
     12 H2         3.0567    5.3796    6.4944 H         1 RES1    0.0000
     13 H3         3.5324    6.1822    5.1940 H         1 RES1    0.0000
     14 H4         3.7962    4.6071    5.3025 H         1 RES1    0.0000
     15 C5         0.3287    5.2731    1.5544 C.3       1 RES1    0.0000
     16 H5        -0.6043    5.1391    1.2515 H         1 RES1    0.0000
     17 H6         0.5408    6.2356    1.4593 H         1 RES1    0.0000
     18 C6         1.2494    4.4814    0.6614 C.2       1 RES1    0.0000
     19 C7         2.5536    4.5745   -1.3044 C.3       1 RES1    0.0000
     20 H7         2.6435    5.1332   -2.1042 H         1 RES1    0.0000
     21 H8         2.1556    3.7133   -1.5495 H         1 RES1    0.0000
     22 H9         3.4381    4.4246   -0.9108 H         1 RES1    0.0000
     23 O2A       -2.9454    5.0723    2.7504 O.3       1 RES1    0.0000
     24 O3A       -3.8500    5.4490    4.7733 O.2       1 RES1    0.0000
     25 O4A       -2.7650    5.2421    7.9824 O.3       1 RES1    0.0000
     26 O5A       -2.5742    3.3083    6.8467 O.2       1 RES1    0.0000
     27 C1A       -1.4913    4.8859    4.6060 C.3       1 RES1    0.0000
     28 C2A       -1.0433    3.4919    4.2426 C.2       1 RES1    0.0000
     29 H1A       -1.4498    2.7022    4.5797 H         1 RES1    0.0000
     30 C3A       -2.9159    5.1745    4.0735 C.2       1 RES1    0.0000
     31 C4A       -4.2349    5.3314    2.1184 C.3       1 RES1    0.0000
     32 H2A       -4.1181    5.3796    1.1461 H         1 RES1    0.0000
     33 H3A       -4.5939    6.1822    2.4465 H         1 RES1    0.0000
     34 H4A       -4.8576    4.6071    2.3380 H         1 RES1    0.0000
     35 C5A       -1.3901    5.2731    6.0861 C.3       1 RES1    0.0000
     36 H5A       -0.4571    5.1391    6.3890 H         1 RES1    0.0000
     37 H6A       -1.6022    6.2356    6.1812 H         1 RES1    0.0000
     38 C6A       -2.3108    4.4814    6.9792 C.2       1 RES1    0.0000
     39 C7A       -3.6150    4.5745    8.9449 C.3       1 RES1    0.0000
     40 H7A       -3.7049    5.1332    9.7447 H         1 RES1    0.0000
     41 H8A       -3.2170    3.7133    9.1900 H         1 RES1    0.0000
     42 H9A       -4.4995    4.4246    8.5513 H         1 RES1    0.0000
@<TRIPOS>BOND
     1    1    6 1
     2    2   10 1
     3    3   10 2
     4    4   18 1
     5    5   18 2
     6    6    7 1
     7    7    8 1
     8    8    9 1
     9   10    7 1
    10   11    2 1
    11   12   11 1
    12   13   11 1
    13   14   11 1
    14   15    7 1
    15   16   15 1
    16   17   15 1
    17   18   15 1
    18   19    4 1
    19   20   19 1
    20   21   19 1
    21   22   19 1
    22   23   30 1
    23   24   30 2
    24   25   38 1
    25   26   38 2
    26   27    6 1
    27   28    8 2
    28   29   28 1
    29   30   27 1
    30   31   23 1
    31   32   31 1
    32   33   31 1
    33   34   31 1
    34   35   27 1
    35   36   35 1
    36   37   35 1
    37   38   35 1
    38   39   25 1
    39   40   39 1
    40   41   39 1
    41   42   39 1
    42   27   28 1
@<TRIPOS>SUBSTRUCTURE
     1 RES1 1

@<TRIPOS>CRYSIN
  16.3051    6.5192   15.4278  90.0000  97.9090  90.0000  15 1

