# MOL2 file generated by ConQuest
# Please check atom types

@<TRIPOS>MOLECULE
SAHLEU
    29    30     1
SMALL
NO_CHARGES
****
Generated from CSD

@<TRIPOS>ATOM
      1 N1         1.2271   13.6104    6.7141 N.pl3     1 RES1    0.0000
      2 H1         0.8808   13.1064    6.1100 H         1 RES1    0.0000
      3 O1         3.8646   10.6293    5.3262 O.3       1 RES1    0.0000
      4 H2         3.7132   10.3399    4.5742 H         1 RES1    0.0000
      5 C1         2.3221   13.3829    8.8656 C.ar      1 RES1    0.0000
      6 H3         1.7837   14.0631    9.2025 H         1 RES1    0.0000
      7 O2         2.1143   11.9063    4.8313 O.2       1 RES1    0.0000
      8 N2        -1.3680   14.3244    5.6011 N.pl3     1 RES1    0.0000
      9 C2         3.2177   12.7561    9.6982 C.ar      1 RES1    0.0000
     10 H4         3.2779   13.0138   10.5897 H         1 RES1    0.0000
     11 O3        -0.9743   13.2062    5.3216 O.2       1 RES1    0.0000
     12 C3         4.0293   11.7449    9.2204 C.ar      1 RES1    0.0000
     13 H5         4.6411   11.3267    9.7811 H         1 RES1    0.0000
     14 C4         3.9194   11.3709    7.9138 C.ar      1 RES1    0.0000
     15 H6         4.4551   10.6804    7.5970 H         1 RES1    0.0000
     16 O4        -2.5183   14.6618    5.3641 O.2       1 RES1    0.0000
     17 C5         3.0262   11.9940    7.0347 C.ar      1 RES1    0.0000
     18 C6         2.2059   13.0198    7.5265 C.ar      1 RES1    0.0000
     19 C7         2.9559   11.5166    5.6437 C.2       1 RES1    0.0000
     20 C8         0.7597   14.8956    6.7722 C.ar      1 RES1    0.0000
     21 C9        -0.4686   15.2869    6.2091 C.ar      1 RES1    0.0000
     22 C10       -0.8838   16.6148    6.2091 C.ar      1 RES1    0.0000
     23 H7        -1.6989   16.8425    5.8234 H         1 RES1    0.0000
     24 C11       -0.1035   17.5884    6.7706 C.ar      1 RES1    0.0000
     25 H8        -0.3734   18.4778    6.7559 H         1 RES1    0.0000
     26 C12        1.0954   17.2249    7.3616 C.ar      1 RES1    0.0000
     27 H9         1.6188   17.8746    7.7721 H         1 RES1    0.0000
     28 C13        1.5214   15.9266    7.3515 C.ar      1 RES1    0.0000
     29 H10        2.3403   15.7178    7.7395 H         1 RES1    0.0000
@<TRIPOS>BOND
     1    1    2 1
     2    3    4 1
     3    5    6 1
     4    7   19 2
     5    8   11 2
     6    9    5 ar
     7   10    9 1
     8   12    9 ar
     9   13   12 1
    10   14   12 ar
    11   15   14 1
    12   16    8 2
    13   17   14 ar
    14   18    1 1
    15   19    3 1
    16   20    1 1
    17   21    8 1
    18   22   21 ar
    19   23   22 1
    20   24   22 ar
    21   25   24 1
    22   26   24 ar
    23   27   26 1
    24   28   20 ar
    25   29   28 1
    26    5   18 ar
    27   17   18 ar
    28   17   19 1
    29   20   21 ar
    30   26   28 ar
@<TRIPOS>SUBSTRUCTURE
     1 RES1 1

@<TRIPOS>CRYSIN
   7.1840   21.5460    7.9070  90.0000 101.6200  90.0000  14 1

