# MOL2 file generated by ConQuest
# Please check atom types

@<TRIPOS>MOLECULE
SAHPUO
    36    36     1
SMALL
NO_CHARGES
****
Generated from CSD

@<TRIPOS>ATOM
      1 C1         1.6156    5.4860    5.6374 C.2       1 RES1    0.0000
      2 C2         1.9901    4.0433    5.7936 C.3       1 RES1    0.0000
      3 H1         1.4405    3.6379    6.5106 H         1 RES1    0.0000
      4 H2         2.9405    3.9786    6.0638 H         1 RES1    0.0000
      5 C3         1.7789    3.2623    4.4891 C.3       1 RES1    0.0000
      6 H3         2.3228    3.6776    3.7741 H         1 RES1    0.0000
      7 H4         2.1017    2.3349    4.6134 H         1 RES1    0.0000
      8 C4         0.3159    3.2240    4.0429 C.3       1 RES1    0.0000
      9 H5        -0.0774    4.1247    4.1584 H         1 RES1    0.0000
     10 H6        -0.1817    2.6008    4.6297 H         1 RES1    0.0000
     11 C5         0.1317    2.7848    2.5843 C.3       1 RES1    0.0000
     12 H7         0.6252    1.9385    2.4405 H         1 RES1    0.0000
     13 H8        -0.8281    2.6040    2.4242 H         1 RES1    0.0000
     14 C6         0.6168    3.8166    1.5671 C.3       1 RES1    0.0000
     15 H9         0.6415    3.3958    0.6709 H         1 RES1    0.0000
     16 H10        1.5409    4.0851    1.7995 H         1 RES1    0.0000
     17 C7        -0.2617    5.0723    1.4999 C.3       1 RES1    0.0000
     18 H11       -1.0446    4.8806    0.9249 H         1 RES1    0.0000
     19 H12       -0.5995    5.2707    2.4092 H         1 RES1    0.0000
     20 C8         0.4471    6.3132    0.9606 C.3       1 RES1    0.0000
     21 H13       -0.2257    7.0221    0.8013 H         1 RES1    0.0000
     22 H14        0.8628    6.0912    0.0896 H         1 RES1    0.0000
     23 C9         1.5280    6.8584    1.9000 C.3       1 RES1    0.0000
     24 H15        2.1286    6.1176    2.1648 H         1 RES1    0.0000
     25 H16        2.0704    7.5280    1.4124 H         1 RES1    0.0000
     26 C10        0.9537    7.5068    3.1611 C.3       1 RES1    0.0000
     27 H17        0.2125    6.9455    3.5011 H         1 RES1    0.0000
     28 H18        0.5773    8.3913    2.9239 H         1 RES1    0.0000
     29 C11        1.9912    7.6907    4.2773 C.3       1 RES1    0.0000
     30 H19        2.7549    8.2187    3.9344 H         1 RES1    0.0000
     31 H20        1.5834    8.1931    5.0263 H         1 RES1    0.0000
     32 C12        2.4875    6.3540    4.7779 C.2       1 RES1    0.0000
     33 N1         0.6310    6.0989    6.1927 N.2       1 RES1    0.0000
     34 O1         3.5819    5.9181    4.4618 O.2       1 RES1    0.0000
     35 O2        -0.1279    5.2839    7.0374 O.3       1 RES1    0.0000
     36 H21       -0.7275    5.7428    7.4043 H         1 RES1    0.0000
@<TRIPOS>BOND
     1    1    2 1
     2    2    3 1
     3    4    2 1
     4    5    2 1
     5    6    5 1
     6    7    5 1
     7    8    5 1
     8    9    8 1
     9   10    8 1
    10   11    8 1
    11   12   11 1
    12   13   11 1
    13   14   11 1
    14   15   14 1
    15   16   14 1
    16   17   14 1
    17   18   17 1
    18   19   17 1
    19   20   17 1
    20   21   20 1
    21   22   20 1
    22   23   20 1
    23   24   23 1
    24   25   23 1
    25   26   23 1
    26   27   26 1
    27   28   26 1
    28   29   26 1
    29   30   29 1
    30   31   29 1
    31   32    1 1
    32   33    1 2
    33   34   32 2
    34   35   33 1
    35   36   35 1
    36   29   32 1
@<TRIPOS>SUBSTRUCTURE
     1 RES1 1

@<TRIPOS>CRYSIN
   5.4920    8.1880   13.9700  96.0690 100.1090 104.7000   2 1

