# MOL2 file generated by ConQuest
# Please check atom types

@<TRIPOS>MOLECULE
SAHQAV
    54    55     1
SMALL
NO_CHARGES
****
Generated from CSD

@<TRIPOS>ATOM
      1 C1         6.4782    1.5023    1.8428 C.2       1 RES1    0.0000
      2 C2         5.7075    0.5308    2.6777 C.3       1 RES1    0.0000
      3 H1         6.3047   -0.1905    2.9985 H         1 RES1    0.0000
      4 H2         4.9823    0.1224    2.1426 H         1 RES1    0.0000
      5 C3         5.1181    1.2960    3.8678 C.3       1 RES1    0.0000
      6 H3         4.5793    0.6772    4.4229 H         1 RES1    0.0000
      7 H4         5.8539    1.6494    4.4288 H         1 RES1    0.0000
      8 C4         4.2413    2.4477    3.4002 C.3       1 RES1    0.0000
      9 H5         3.9014    2.9420    4.1875 H         1 RES1    0.0000
     10 H6         3.4633    2.0881    2.9052 H         1 RES1    0.0000
     11 C5         5.0208    3.4061    2.4963 C.3       1 RES1    0.0000
     12 H7         5.7366    3.8407    3.0236 H         1 RES1    0.0000
     13 H8         4.4094    4.1136    2.1707 H         1 RES1    0.0000
     14 C6         5.6472    2.6876    1.2941 C.3       1 RES1    0.0000
     15 C7         6.4905    3.6069    0.4192 C.2       1 RES1    0.0000
     16 C8         8.3500    5.0762    0.4731 C.3       1 RES1    0.0000
     17 H9         7.9424    5.9150    0.1392 H         1 RES1    0.0000
     18 H10        8.7223    4.5763   -0.2961 H         1 RES1    0.0000
     19 C9         9.4237    5.3760    1.4764 C.3       1 RES1    0.0000
     20 H11        9.0486    5.9102    2.2063 H         1 RES1    0.0000
     21 H12       10.1451    5.8772    1.0424 H         1 RES1    0.0000
     22 H13        9.7785    4.5358    1.8346 H         1 RES1    0.0000
     23 N1         4.5211    2.2153    0.4100 N.pl3     1 RES1    0.0000
     24 O1         7.6878    1.5078    1.7364 O.2       1 RES1    0.0000
     25 O2         3.4221    2.8451    0.3751 O.2       1 RES1    0.0000
     26 O3         6.3887    3.6983   -0.7704 O.2       1 RES1    0.0000
     27 O4         7.3624    4.2731    1.1726 O.3       1 RES1    0.0000
     28 C1F        2.8008    1.9355   -1.8428 C.2       1 RES1    0.0000
     29 C2F        3.5715    2.9070   -2.6777 C.3       1 RES1    0.0000
     30 H1F        2.9743    3.6282   -2.9985 H         1 RES1    0.0000
     31 H2F        4.2967    3.3154   -2.1426 H         1 RES1    0.0000
     32 C3F        4.1609    2.1417   -3.8678 C.3       1 RES1    0.0000
     33 H3F        4.6997    2.7605   -4.4229 H         1 RES1    0.0000
     34 H4F        3.4251    1.7883   -4.4288 H         1 RES1    0.0000
     35 C4F        5.0377    0.9901   -3.4002 C.3       1 RES1    0.0000
     36 H5F        5.3776    0.4957   -4.1875 H         1 RES1    0.0000
     37 H6F        5.8157    1.3497   -2.9052 H         1 RES1    0.0000
     38 C5F        4.2582    0.0316   -2.4963 C.3       1 RES1    0.0000
     39 H7F        3.5424   -0.4029   -3.0236 H         1 RES1    0.0000
     40 H8F        4.8696   -0.6759   -2.1707 H         1 RES1    0.0000
     41 C6F        3.6318    0.7501   -1.2941 C.3       1 RES1    0.0000
     42 C7F        2.7885   -0.1691   -0.4192 C.2       1 RES1    0.0000
     43 C8F        0.9290   -1.6384   -0.4731 C.3       1 RES1    0.0000
     44 H9F        1.3366   -2.4772   -0.1392 H         1 RES1    0.0000
     45 H10F       0.5567   -1.1386    0.2961 H         1 RES1    0.0000
     46 C9F       -0.1447   -1.9382   -1.4764 C.3       1 RES1    0.0000
     47 H11F       0.2304   -2.4724   -2.2063 H         1 RES1    0.0000
     48 H12F      -0.8661   -2.4394   -1.0424 H         1 RES1    0.0000
     49 H13F      -0.4995   -1.0980   -1.8346 H         1 RES1    0.0000
     50 N1F        4.7579    1.2225   -0.4100 N.pl3     1 RES1    0.0000
     51 O1F        1.5912    1.9300   -1.7364 O.2       1 RES1    0.0000
     52 O2F        5.8569    0.5927   -0.3751 O.2       1 RES1    0.0000
     53 O3F        2.8903   -0.2606    0.7704 O.2       1 RES1    0.0000
     54 O4F        1.9166   -0.8354   -1.1726 O.3       1 RES1    0.0000
@<TRIPOS>BOND
     1    1    2 1
     2    2    3 1
     3    4    2 1
     4    5    2 1
     5    6    5 1
     6    7    5 1
     7    8    5 1
     8    9    8 1
     9   10    8 1
    10   11    8 1
    11   12   11 1
    12   13   11 1
    13   14    1 1
    14   15   14 1
    15   16   17 1
    16   18   16 1
    17   19   16 1
    18   20   19 1
    19   21   19 1
    20   22   19 1
    21   23   14 1
    22   24    1 2
    23   25   23 2
    24   26   15 2
    25   27   15 1
    26   28   29 1
    27   29   30 1
    28   31   29 1
    29   32   29 1
    30   33   32 1
    31   34   32 1
    32   35   32 1
    33   36   35 1
    34   37   35 1
    35   38   35 1
    36   39   38 1
    37   40   38 1
    38   41   28 1
    39   42   41 1
    40   43   44 1
    41   45   43 1
    42   46   43 1
    43   47   46 1
    44   48   46 1
    45   49   46 1
    46   50   23 1
    47   51   28 2
    48   52   50 2
    49   53   42 2
    50   54   42 1
    51   11   14 1
    52   16   27 1
    53   38   41 1
    54   41   50 1
    55   43   54 1
@<TRIPOS>SUBSTRUCTURE
     1 RES1 1

@<TRIPOS>CRYSIN
  18.5580    6.8755   15.8200  90.0000 110.6130  90.0000  15 1

