# MOL2 file generated by ConQuest
# Please check atom types

@<TRIPOS>MOLECULE
SAHSID
    22    23     1
SMALL
NO_CHARGES
****
Generated from CSD

@<TRIPOS>ATOM
      1 O1         1.8102    6.1961    0.6415 O.2       1 RES1    0.0000
      2 O2         0.6553    4.4524    1.1608 O.2       1 RES1    0.0000
      3 O3         1.0935    2.4483    3.9703 O.2       1 RES1    0.0000
      4 O4         2.6138    3.0596    2.5985 O.2       1 RES1    0.0000
      5 N1         1.3453    5.4294    1.4434 N.pl3     1 RES1    0.0000
      6 N2         1.7252    3.3023    3.4205 N.pl3     1 RES1    0.0000
      7 C1         1.5310    7.0324    3.2524 C.ar      1 RES1    0.0000
      8 C2         1.5206    5.7284    2.8629 C.ar      1 RES1    0.0000
      9 C3         1.5488    4.6967    3.8195 C.ar      1 RES1    0.0000
     10 C4         1.5567    4.9824    5.1388 C.ar      1 RES1    0.0000
     11 C5         1.5900    6.6594    6.9564 C.ar      1 RES1    0.0000
     12 C6         1.6274    7.9590    7.3402 C.ar      1 RES1    0.0000
     13 C7         1.6312    8.9893    6.3941 C.ar      1 RES1    0.0000
     14 C8         1.5997    8.7110    5.0615 C.ar      1 RES1    0.0000
     15 C9         1.5655    7.3684    4.6185 C.ar      1 RES1    0.0000
     16 C10        1.5645    6.3249    5.5865 C.ar      1 RES1    0.0000
     17 H1         1.5480    7.7118    2.6061 H         1 RES1    0.0000
     18 H2         1.5579    4.2926    5.7755 H         1 RES1    0.0000
     19 H3         1.6172    5.8764    7.5989 H         1 RES1    0.0000
     20 H4         1.6476    8.2003    8.1621 H         1 RES1    0.0000
     21 H5         1.6474    9.8729    6.6442 H         1 RES1    0.0000
     22 H6         1.6414    9.3993    4.4390 H         1 RES1    0.0000
@<TRIPOS>BOND
     1    1    5 2
     2    2    5 2
     3    3    6 2
     4    4    6 2
     5    5    8 1
     6    6    9 1
     7    7    8 ar
     8    8    9 ar
     9    9   10 ar
    10   10   16 ar
    11   11   12 ar
    12   12   13 ar
    13   13   14 ar
    14   14   15 ar
    15   15    7 ar
    16   16   11 ar
    17   17    7 1
    18   18   10 1
    19   19   11 1
    20   20   12 1
    21   21   13 1
    22   22   14 1
    23   15   16 ar
@<TRIPOS>SUBSTRUCTURE
     1 RES1 1

@<TRIPOS>CRYSIN
   6.8790   14.8020    9.5511  90.0000  91.8100  90.0000 231 1

