# MOL2 file generated by ConQuest
# Please check atom types

@<TRIPOS>MOLECULE
SAHVED
    26    28     1
SMALL
NO_CHARGES
****
Generated from CSD

@<TRIPOS>ATOM
      1 O1         3.7428    5.1125   18.3077 O.3       1 RES1    0.0000
      2 N1         3.5852    6.3257   19.0169 N.2       1 RES1    0.0000
      3 C1         2.3705    6.6944   18.7254 C.2       1 RES1    0.0000
      4 N2         1.7326    5.8272   17.8814 N.2       1 RES1    0.0000
      5 C2         2.6240    4.9083   17.6551 C.2       1 RES1    0.0000
      6 C3         2.4886    3.6631   16.8546 C.3       1 RES1    0.0000
      7 C4         1.5472    3.7950   15.6973 C.3       1 RES1    0.0000
      8 C5         1.2740    2.4683   15.0056 C.3       1 RES1    0.0000
      9 O2         2.5343    1.8479   14.7445 O.3       1 RES1    0.0000
     10 C6         2.5609    0.4524   14.8663 C.3       1 RES1    0.0000
     11 O3         2.0040   -0.2127   13.7613 O.3       1 RES1    0.0000
     12 C7         2.8836   -0.2411   12.6475 C.3       1 RES1    0.0000
     13 C8         4.0605   -1.1182   12.9868 C.3       1 RES1    0.0000
     14 C9         4.6545   -0.6970   14.2659 C.2       1 RES1    0.0000
     15 C10        3.9678    0.0397   15.1100 C.2       1 RES1    0.0000
     16 C11        1.7703    7.8999   19.2605 C.ar      1 RES1    0.0000
     17 C12        2.4540    8.7281   20.1437 C.ar      1 RES1    0.0000
     18 C13        1.8859    9.9101   20.6006 C.ar      1 RES1    0.0000
     19 C14        0.6119   10.2888   20.2134 C.ar      1 RES1    0.0000
     20 C15       -0.0637    9.4301   19.3519 C.ar      1 RES1    0.0000
     21 C16        0.4723    8.2700   18.8777 C.ar      1 RES1    0.0000
     22 C17        0.0068   11.5594   20.7311 C.3       1 RES1    0.0000
     23 C18        0.4562    2.6505   13.7395 C.3       1 RES1    0.0000
     24 C19        2.0986   -0.7580   11.4597 C.3       1 RES1    0.0000
     25 O4         1.0725    0.1390   11.0682 O.3       1 RES1    0.0000
     26 O5         5.0285   -1.0601   11.9383 O.3       1 RES1    0.0000
@<TRIPOS>BOND
     1    1    2 1
     2    2    3 2
     3    3    4 1
     4    4    5 2
     5    5    1 1
     6    6    5 1
     7    7    6 1
     8    8    7 1
     9    9    8 1
    10   10    9 1
    11   11   10 1
    12   12   11 1
    13   13   12 1
    14   14   13 1
    15   15   10 1
    16   16    3 1
    17   17   16 ar
    18   18   17 ar
    19   19   18 ar
    20   20   19 ar
    21   21   16 ar
    22   22   19 1
    23   23    8 1
    24   24   12 1
    25   25   24 1
    26   26   13 1
    27   14   15 2
    28   20   21 ar
@<TRIPOS>SUBSTRUCTURE
     1 RES1 1

@<TRIPOS>CRYSIN
   6.1813    7.0908   43.5070  90.0000  90.0000  90.0000  19 1

