# MOL2 file generated by ConQuest
# Please check atom types

@<TRIPOS>MOLECULE
SAHVEC
    38    42     1
SMALL
NO_CHARGES
****
Generated from CSD

@<TRIPOS>ATOM
      1 O1         2.6796    3.0002    4.6923 O.3       1 RES1    0.0000
      2 O2         2.3699    2.3066    2.1366 O.2       1 RES1    0.0000
      3 O3         3.1689    4.2091    1.3878 O.3       1 RES1    0.0000
      4 N1         1.7872    3.4562    5.6748 N.2       1 RES1    0.0000
      5 N2         0.7846    5.5316    3.0538 N.2       1 RES1    0.0000
      6 N3         1.4136    6.7511    2.3874 N.2       1 RES1    0.0000
      7 N4         2.6875    6.4065    4.1359 N.3       1 RES1    0.0000
      8 N5         4.1147    6.1827    4.0878 N.3       1 RES1    0.0000
      9 C1         0.3009    6.7034    6.2210 C.ar      1 RES1    0.0000
     10 C2        -0.5571    7.3631    7.1004 C.ar      1 RES1    0.0000
     11 C3        -1.2979    6.6069    8.0038 C.ar      1 RES1    0.0000
     12 C4        -1.1941    5.2431    8.0244 C.ar      1 RES1    0.0000
     13 C5        -0.3504    4.6089    7.1278 C.ar      1 RES1    0.0000
     14 C6         0.3951    5.3195    6.2416 C.ar      1 RES1    0.0000
     15 C7         1.3529    4.6386    5.3450 C.2       1 RES1    0.0000
     16 C8         2.9318    4.0310    3.7030 C.3       1 RES1    0.0000
     17 C9         1.9141    5.1721    4.0603 C.3       1 RES1    0.0000
     18 C10        2.4146    7.1107    2.9714 C.3       1 RES1    0.0000
     19 C11        4.2496    4.6651    3.9160 C.3       1 RES1    0.0000
     20 C12        4.4931    5.3396    5.2145 C.3       1 RES1    0.0000
     21 C13        2.8065    3.4159    2.3256 C.2       1 RES1    0.0000
     22 C14        3.0563    3.7637    0.0309 C.3       1 RES1    0.0000
     23 C15        1.8766    4.4159   -0.6355 C.3       1 RES1    0.0000
     24 H1         0.8940    7.2750    5.5305 H         1 RES1    0.0000
     25 H2        -0.6386    8.4416    7.0763 H         1 RES1    0.0000
     26 H3        -1.9636    7.1054    8.6908 H         1 RES1    0.0000
     27 H4        -1.7640    4.6662    8.7252 H         1 RES1    0.0000
     28 H5        -0.2794    3.5315    7.1450 H         1 RES1    0.0000
     29 H6         3.2567    7.0099    2.3015 H         1 RES1    0.0000
     30 H7         2.2908    8.1552    3.2290 H         1 RES1    0.0000
     31 H8         4.8211    3.9557    3.3320 H         1 RES1    0.0000
     32 H9         5.4996    5.3979    5.5992 H         1 RES1    0.0000
     33 H10        3.7994    5.1965    6.0458 H         1 RES1    0.0000
     34 H11        3.9591    4.0193   -0.5153 H         1 RES1    0.0000
     35 H12        2.9294    2.6937    0.0000 H         1 RES1    0.0000
     36 H13        1.8039    4.0723   -1.6488 H         1 RES1    0.0000
     37 H14        2.0035    5.4828   -0.6183 H         1 RES1    0.0000
     38 H15        0.9738    4.1572   -0.1031 H         1 RES1    0.0000
@<TRIPOS>BOND
     1    1    4 1
     2    2   21 2
     3    3   21 1
     4    4   15 2
     5    5    6 2
     6    6   18 1
     7    7    8 1
     8    8   19 1
     9    9   10 ar
    10   10   11 ar
    11   11   12 ar
    12   12   13 ar
    13   13   14 ar
    14   14    9 ar
    15   15   14 1
    16   16    1 1
    17   17    5 1
    18   18    7 1
    19   19   16 1
    20   20    8 1
    21   21   16 1
    22   22    3 1
    23   23   22 1
    24   24    9 1
    25   25   10 1
    26   26   11 1
    27   27   12 1
    28   28   13 1
    29   29   18 1
    30   30   18 1
    31   31   19 1
    32   32   20 1
    33   33   20 1
    34   34   22 1
    35   35   22 1
    36   36   23 1
    37   37   23 1
    38   38   23 1
    39    7   17 1
    40   15   17 1
    41   16   17 1
    42   19   20 1
@<TRIPOS>SUBSTRUCTURE
     1 RES1 1

@<TRIPOS>CRYSIN
   7.9820   10.6050   34.3510  90.0000  90.0000  90.0000  61 3

