# MOL2 file generated by ConQuest
# Please check atom types

@<TRIPOS>MOLECULE
SAHZAF
    39    41     1
SMALL
NO_CHARGES
****
Generated from CSD

@<TRIPOS>ATOM
      1 N1         1.1488    1.2967    5.1907 N.am      1 RES1    0.0000
      2 O1         1.2828    3.2893    2.6570 O.3       1 RES1    0.0000
      3 O2        -1.3921    1.5471    1.2782 O.2       1 RES1    0.0000
      4 O3        -0.8516    2.4317    4.9889 O.2       1 RES1    0.0000
      5 O4         1.9495    0.2669    1.9251 O.2       1 RES1    0.0000
      6 O5         2.9831    2.6289    5.2329 O.3       1 RES1    0.0000
      7 O6        -0.8525   -0.0965    3.1626 O.3       1 RES1    0.0000
      8 C1         0.0031    1.6980    4.5387 C.2       1 RES1    0.0000
      9 C2         2.3394    1.6255    7.3609 C.ar      1 RES1    0.0000
     10 C3         1.8696    2.2244    6.0526 C.3       1 RES1    0.0000
     11 H1         1.2915    3.0188    6.2414 H         1 RES1    0.0000
     12 C4         2.1933    0.2826    7.6856 C.ar      1 RES1    0.0000
     13 H2         1.7745   -0.3118    7.0745 H         1 RES1    0.0000
     14 C5        -0.4803    1.9422    2.0040 C.2       1 RES1    0.0000
     15 C6         2.6638   -0.1932    8.9154 C.ar      1 RES1    0.0000
     16 H3         2.5642   -1.1111    9.1380 H         1 RES1    0.0000
     17 C7         2.1225    0.6200    4.3274 C.3       1 RES1    0.0000
     18 H4         2.2935   -0.3109    4.6507 H         1 RES1    0.0000
     19 C8         1.4469    0.5980    2.9655 C.2       1 RES1    0.0000
     20 C9         2.9668    2.4867    8.2639 C.ar      1 RES1    0.0000
     21 H5         3.0752    3.4037    8.0408 H         1 RES1    0.0000
     22 N2         0.1650    3.0932    1.8263 N.am      1 RES1    0.0000
     23 C10        3.4341    2.0166    9.4854 C.ar      1 RES1    0.0000
     24 H6         3.8592    2.6090   10.0946 H         1 RES1    0.0000
     25 C11       -0.0187    1.0371    3.1518 C.3       1 RES1    0.0000
     26 C12        3.2754    0.6726    9.8101 C.ar      1 RES1    0.0000
     27 H7         3.5864    0.3469   10.6464 H         1 RES1    0.0000
     28 C13        3.3920    1.4879    4.4703 C.3       1 RES1    0.0000
     29 H8         4.1058    0.9890    4.9418 H         1 RES1    0.0000
     30 H9         3.7295    1.7634    3.5816 H         1 RES1    0.0000
     31 C14        1.1579    4.5442    3.3696 C.3       1 RES1    0.0000
     32 H10        1.1015    5.2808    2.7257 H         1 RES1    0.0000
     33 H11        1.9408    4.6721    3.9452 H         1 RES1    0.0000
     34 H12        0.3468    4.5287    3.9192 H         1 RES1    0.0000
     35 C15        0.1506    3.8459    0.5796 C.3       1 RES1    0.0000
     36 H13        0.9845    3.6840    0.0909 H         1 RES1    0.0000
     37 H14        0.0674    4.8016    0.7758 H         1 RES1    0.0000
     38 H15       -0.6104    3.5572    0.0325 H         1 RES1    0.0000
     39 H16       -1.3505    0.0555    2.4130 H         1 RES1    0.0000
@<TRIPOS>BOND
     1    1    8 1
     2    2   22 1
     3    3   14 2
     4    4    8 2
     5    5   19 2
     6    6   10 1
     7    7   25 1
     8    8   25 1
     9    9   10 1
    10   10    1 1
    11   11   10 1
    12   12    9 ar
    13   13   12 1
    14   14   22 1
    15   15   12 ar
    16   16   15 1
    17   17    1 1
    18   18   17 1
    19   19   17 1
    20   20    9 ar
    21   21   20 1
    22   22   35 1
    23   23   20 ar
    24   24   23 1
    25   25   14 1
    26   26   15 ar
    27   27   26 1
    28   28    6 1
    29   29   28 1
    30   30   28 1
    31   31    2 1
    32   32   31 1
    33   33   31 1
    34   34   31 1
    35   35   36 1
    36   37   35 1
    37   38   35 1
    38   39    7 1
    39   17   28 1
    40   19   25 1
    41   23   26 ar
@<TRIPOS>SUBSTRUCTURE
     1 RES1 1

@<TRIPOS>CRYSIN
   7.4743    9.2516   10.8290  90.0000  92.2500  90.0000   4 1

