# MOL2 file generated by ConQuest
# Please check atom types

@<TRIPOS>MOLECULE
SAJYAD
    26    27     1
SMALL
NO_CHARGES
****
Generated from CSD

@<TRIPOS>ATOM
      1 C1         4.1404    3.3751    0.6904 C.ar      1 RES1    0.0000
      2 C2         4.2048    2.7256    1.9140 C.ar      1 RES1    0.0000
      3 C3         4.8641    3.3558    2.9532 C.ar      1 RES1    0.0000
      4 C4         5.4308    4.6110    2.7307 C.ar      1 RES1    0.0000
      5 C5         5.3201    5.1639    1.4730 C.ar      1 RES1    0.0000
      6 C6         6.7327    8.4314    1.5652 C.ar      1 RES1    0.0000
      7 C7         6.5526    8.9204    0.2852 C.ar      1 RES1    0.0000
      8 C8         7.1012   10.1622   -0.0024 C.ar      1 RES1    0.0000
      9 C9         7.8133   10.8747    0.9399 C.ar      1 RES1    0.0000
     10 C10        7.9487   10.3807    2.1666 C.ar      1 RES1    0.0000
     11 C11        7.3804    9.1481    2.5313 C.ar      1 RES1    0.0000
     12 N1         5.8190    6.4561    1.0742 N.2       1 RES1    0.0000
     13 N2         6.2404    7.1274    2.0156 N.2       1 RES1    0.0000
     14 N3         4.7005    4.5648    0.4624 N.ar      1 RES1    0.0000
     15 N4         6.9492   10.6907   -1.3546 N.pl3     1 RES1    0.0000
     16 O1         6.2718   10.0757   -2.1380 O.2       1 RES1    0.0000
     17 O2         7.4679   11.7410   -1.6287 O.2       1 RES1    0.0000
     18 O3         3.6084    1.5224    1.9966 O.3       1 RES1    0.0000
     19 H1         3.6183    2.9995   -0.0636 H         1 RES1    0.0000
     20 H2         4.9070    2.9491    3.7500 H         1 RES1    0.0000
     21 H3         6.0471    4.9992    3.4799 H         1 RES1    0.0000
     22 H4         6.1627    8.5364   -0.4846 H         1 RES1    0.0000
     23 H5         8.2114   11.4939    0.6912 H         1 RES1    0.0000
     24 H6         8.1949   10.6789    2.9794 H         1 RES1    0.0000
     25 H7         7.3523    8.7885    3.5276 H         1 RES1    0.0000
     26 H8         3.5853    1.2015    2.9317 H         1 RES1    0.0000
@<TRIPOS>BOND
     1    1    2 ar
     2    2    3 ar
     3    3    4 ar
     4    4    5 ar
     5    5   12 1
     6    6    7 ar
     7    7    8 ar
     8    8    9 ar
     9    9   10 ar
    10   10   11 ar
    11   11    6 ar
    12   12   13 2
    13   13    6 1
    14   14    1 ar
    15   15    8 1
    16   16   15 2
    17   17   15 2
    18   18    2 1
    19   19    1 1
    20   20    3 1
    21   21    4 1
    22   22    7 1
    23   23    9 1
    24   24   10 1
    25   25   11 1
    26   26   18 1
    27    5   14 ar
@<TRIPOS>SUBSTRUCTURE
     1 RES1 1

@<TRIPOS>CRYSIN
  16.5220    8.4020    7.9450  90.0000  90.0000  90.0000  33 1

