# MOL2 file generated by ConQuest
# Please check atom types

@<TRIPOS>MOLECULE
SAKDIR
    29    30     1
SMALL
NO_CHARGES
****
Generated from CSD

@<TRIPOS>ATOM
      1 O1         0.3192    2.3085    7.0518 O.2       1 RES1    0.0000
      2 O2        -1.6792   -2.1524    4.5063 O.2       1 RES1    0.0000
      3 O3        -0.3619   -2.8630    6.0213 O.2       1 RES1    0.0000
      4 O4        -1.7856    0.9940    5.7160 O.3       1 RES1    0.0000
      5 N1        -0.7528   -1.9932    5.2616 N.pl3     1 RES1    0.0000
      6 C1        -0.6659    0.2999    6.2779 C.3       1 RES1    0.0000
      7 C2         0.4488    1.2292    6.5631 C.2       1 RES1    0.0000
      8 C3         1.7299    0.5751    6.1704 C.3       1 RES1    0.0000
      9 C4         1.3535   -0.8410    5.7275 C.3       1 RES1    0.0000
     10 C5         2.3234   -1.4787    4.6754 C.3       1 RES1    0.0000
     11 C6         2.1859   -0.8421    3.3124 C.3       1 RES1    0.0000
     12 C7         0.6587   -0.8421    2.8551 C.3       1 RES1    0.0000
     13 C8        -0.1303   -0.0647    3.8398 C.3       1 RES1    0.0000
     14 C9        -0.0536   -0.6541    5.2186 C.3       1 RES1    0.0000
     15 C10       -1.0133   -0.3800    7.6151 C.3       1 RES1    0.0000
     16 H1         2.3900    0.5802    6.9185 H         1 RES1    0.0000
     17 H2         2.1946    1.0557    5.4537 H         1 RES1    0.0000
     18 H3         1.3781   -1.4880    6.4828 H         1 RES1    0.0000
     19 H4         2.1511   -2.4338    4.6152 H         1 RES1    0.0000
     20 H5         3.2383   -1.3976    5.0037 H         1 RES1    0.0000
     21 H6         2.7266   -1.3339    2.6788 H         1 RES1    0.0000
     22 H7         2.5268    0.0462    3.3554 H         1 RES1    0.0000
     23 H8         0.2830   -1.7457    2.8594 H         1 RES1    0.0000
     24 H9         0.5262   -0.4857    1.9880 H         1 RES1    0.0000
     25 H10       -1.0394    0.0031    3.5546 H         1 RES1    0.0000
     26 H11        0.2396    0.8308    3.8470 H         1 RES1    0.0000
     27 H12       -1.3919    0.2352    8.2200 H         1 RES1    0.0000
     28 H13       -1.6539   -1.0906    7.4589 H         1 RES1    0.0000
     29 H14       -0.2345   -0.7733    7.9978 H         1 RES1    0.0000
@<TRIPOS>BOND
     1    1    7 2
     2    2    5 2
     3    3    5 2
     4    4    6 1
     5    5   14 1
     6    6    7 1
     7    7    8 1
     8    8    9 1
     9    9   10 1
    10   10   11 1
    11   11   12 1
    12   12   13 1
    13   13   14 1
    14   14    6 1
    15   15    6 1
    16   16    8 1
    17   17    8 1
    18   18    9 1
    19   19   10 1
    20   20   10 1
    21   21   11 1
    22   22   11 1
    23   23   12 1
    24   24   12 1
    25   25   13 1
    26   26   13 1
    27   27   15 1
    28   28   15 1
    29   29   15 1
    30    9   14 1
@<TRIPOS>SUBSTRUCTURE
     1 RES1 1

@<TRIPOS>CRYSIN
   7.2380   10.2690   14.3330  90.0000  90.0000  90.0000  19 1

