# MOL2 file generated by ConQuest
# Please check atom types

@<TRIPOS>MOLECULE
SAKDOZ
    22    22     1
SMALL
NO_CHARGES
****
Generated from CSD

@<TRIPOS>ATOM
      1 C1         5.8268   13.0676   -0.5479 C.ar      1 RES1    0.0000
      2 C2         4.6247   12.7401   -1.1374 C.ar      1 RES1    0.0000
      3 H1         4.5988   12.3393   -1.9769 H         1 RES1    0.0000
      4 C3         3.4602   13.0213   -0.4526 C.ar      1 RES1    0.0000
      5 H2         2.6381   12.8005   -0.8281 H         1 RES1    0.0000
      6 C4         3.5085   13.6354    0.8048 C.ar      1 RES1    0.0000
      7 C5         4.7467   13.9351    1.3741 C.ar      1 RES1    0.0000
      8 H3         4.7836   14.3331    2.2142 H         1 RES1    0.0000
      9 C6         5.9140   13.6474    0.7038 C.ar      1 RES1    0.0000
     10 H4         6.7409   13.8384    1.0838 H         1 RES1    0.0000
     11 C7         2.2833   14.0331    1.5496 C.2       1 RES1    0.0000
     12 C8         0.9514   13.6105    0.9784 C.3       1 RES1    0.0000
     13 H5         0.8379   14.0099    0.1016 H         1 RES1    0.0000
     14 H6         0.9391   12.6458    0.8723 H         1 RES1    0.0000
     15 C9        -0.2663   13.3076    2.9382 C.2       1 RES1    0.0000
     16 H7        -0.9762   13.5228    3.4994 H         1 RES1    0.0000
     17 N1         7.0709   12.7957   -1.2851 N.pl3     1 RES1    0.0000
     18 O1         6.9958   12.3192   -2.3998 O.2       1 RES1    0.0000
     19 O2         8.1173   13.1063   -0.7555 O.2       1 RES1    0.0000
     20 O3         2.3486   14.6935    2.5593 O.2       1 RES1    0.0000
     21 O4        -0.1314   14.0062    1.8209 O.3       1 RES1    0.0000
     22 O5         0.4587   12.4212    3.2765 O.2       1 RES1    0.0000
@<TRIPOS>BOND
     1    1    2 ar
     2    2    3 1
     3    4    2 ar
     4    5    4 1
     5    6    4 ar
     6    7    6 ar
     7    8    7 1
     8    9    1 ar
     9   10    9 1
    10   11    6 1
    11   12   11 1
    12   13   12 1
    13   14   12 1
    14   15   16 1
    15   17    1 1
    16   18   17 2
    17   19   17 2
    18   20   11 2
    19   21   12 1
    20   22   15 2
    21    7    9 ar
    22   15   21 1
@<TRIPOS>SUBSTRUCTURE
     1 RES1 1

@<TRIPOS>CRYSIN
   9.6790   15.1737    6.3703  90.0000  97.7590  90.0000  14 1

