# MOL2 file generated by ConQuest
# Please check atom types

@<TRIPOS>MOLECULE
SAKXIO
    44    48     1
SMALL
NO_CHARGES
****
Generated from CSD

@<TRIPOS>ATOM
      1 O1         2.5085    2.4684   -2.7945 O.2       1 RES1    0.0000
      2 O2        -0.3187    5.1001    0.9032 O.2       1 RES1    0.0000
      3 O3         2.2276    5.7729    0.5829 O.3       1 RES1    0.0000
      4 O4         6.7001    5.2148   -0.9714 O.2       1 RES1    0.0000
      5 O5         7.1543    3.5583   -3.9846 O.2       1 RES1    0.0000
      6 O6         5.7209    2.6100   -2.6874 O.2       1 RES1    0.0000
      7 N1         6.1328    6.5934    0.7492 N.am      1 RES1    0.0000
      8 H1         6.9807    6.8069    0.8551 H         1 RES1    0.0000
      9 N2         3.9414    6.8940    1.5038 N.2       1 RES1    0.0000
     10 N3         6.0585    3.5172   -3.4290 N.pl3     1 RES1    0.0000
     11 C1        -1.7565    3.3710   -0.8351 C.ar      1 RES1    0.0000
     12 H2        -2.2666    3.8250   -0.1754 H         1 RES1    0.0000
     13 C2        -2.3713    2.4872   -1.7041 C.ar      1 RES1    0.0000
     14 H3        -3.3056    2.3283   -1.6307 H         1 RES1    0.0000
     15 C3        -1.6387    1.8336   -2.6789 C.ar      1 RES1    0.0000
     16 H4        -2.0725    1.2360   -3.2759 H         1 RES1    0.0000
     17 C4        -0.2788    2.0473   -2.7898 C.ar      1 RES1    0.0000
     18 H5         0.2208    1.5959   -3.4603 H         1 RES1    0.0000
     19 C5         0.3573    2.9244   -1.9191 C.ar      1 RES1    0.0000
     20 C6        -0.3840    3.5901   -0.9336 C.ar      1 RES1    0.0000
     21 C7         0.2723    4.5498   -0.0056 C.2       1 RES1    0.0000
     22 C8         1.7265    4.8150   -0.2576 C.2       1 RES1    0.0000
     23 C9         2.4495    4.1683   -1.1778 C.2       1 RES1    0.0000
     24 C10        1.8225    3.1304   -2.0342 C.2       1 RES1    0.0000
     25 C11        3.9204    4.4395   -1.4096 C.3       1 RES1    0.0000
     26 H6         4.4263    3.5808   -1.3288 H         1 RES1    0.0000
     27 C12        4.4132    5.4005   -0.3500 C.2       1 RES1    0.0000
     28 C13        3.5861    6.0054    0.5442 C.2       1 RES1    0.0000
     29 C14        5.2209    7.1629    1.5759 C.2       1 RES1    0.0000
     30 C15        5.7422    8.1192    2.5826 C.3       1 RES1    0.0000
     31 H7         4.9993    8.4676    3.1186 H         1 RES1    0.0000
     32 H8         6.1910    8.8618    2.1261 H         1 RES1    0.0000
     33 H9         6.3819    7.6614    3.1674 H         1 RES1    0.0000
     34 C16        5.8079    5.6969   -0.2497 C.2       1 RES1    0.0000
     35 C17        4.1285    5.0102   -2.8196 C.ar      1 RES1    0.0000
     36 C18        5.1005    4.6004   -3.7318 C.ar      1 RES1    0.0000
     37 C19        5.2496    5.1767   -4.9842 C.ar      1 RES1    0.0000
     38 H10        5.9335    4.8791   -5.5719 H         1 RES1    0.0000
     39 C20        4.3917    6.1876   -5.3656 C.ar      1 RES1    0.0000
     40 H11        4.4606    6.5678   -6.2336 H         1 RES1    0.0000
     41 C21        3.4349    6.6441   -4.4859 C.ar      1 RES1    0.0000
     42 H12        2.8600    7.3562   -4.7385 H         1 RES1    0.0000
     43 C22        3.3092    6.0627   -3.2242 C.ar      1 RES1    0.0000
     44 H13        2.6487    6.3923   -2.6269 H         1 RES1    0.0000
@<TRIPOS>BOND
     1    1   24 2
     2    2   21 2
     3    3   22 1
     4    4   34 2
     5    5   10 2
     6    6   10 2
     7    7    8 1
     8    9   28 1
     9   10   36 1
    10   11   12 1
    11   13   11 ar
    12   14   13 1
    13   15   13 ar
    14   16   15 1
    15   17   15 ar
    16   18   17 1
    17   19   17 ar
    18   20   11 ar
    19   21   20 1
    20   22   21 1
    21   23   22 2
    22   24   19 1
    23   25   23 1
    24   26   25 1
    25   27   25 1
    26   28    3 1
    27   29    7 1
    28   30   29 1
    29   31   30 1
    30   32   30 1
    31   33   30 1
    32   34    7 1
    33   35   25 1
    34   36   35 ar
    35   37   36 ar
    36   38   37 1
    37   39   37 ar
    38   40   39 1
    39   41   39 ar
    40   42   41 1
    41   43   35 ar
    42   44   43 1
    43    9   29 2
    44   19   20 ar
    45   23   24 1
    46   27   28 2
    47   27   34 1
    48   41   43 ar
@<TRIPOS>SUBSTRUCTURE
     1 RES1 1

@<TRIPOS>CRYSIN
  15.5190   12.7160   19.3690  90.0000 111.0300  90.0000  15 1

