# MOL2 file generated by ConQuest
# Please check atom types

@<TRIPOS>MOLECULE
SALLIB
    25    27     1
SMALL
NO_CHARGES
****
Generated from CSD

@<TRIPOS>ATOM
      1 O1         5.3159   11.7642    9.5710 O.3       1 RES1    0.0000
      2 N1         6.1043   12.3244    8.5142 N.2       1 RES1    0.0000
      3 C1         4.5248   12.8459   10.2168 C.3       1 RES1    0.0000
      4 C2         4.9859   12.9830   11.6237 C.2       1 RES1    0.0000
      5 C3         5.4479   14.0125   12.3029 C.2       1 RES1    0.0000
      6 C4         5.7468   15.4105   11.8750 C.3       1 RES1    0.0000
      7 C5         6.1575   15.5955   10.4231 C.3       1 RES1    0.0000
      8 C6         5.0226   15.4418    9.4294 C.3       1 RES1    0.0000
      9 C7         4.5945   13.9774    9.1983 C.3       1 RES1    0.0000
     10 C8         5.6845   13.4973    8.3020 C.2       1 RES1    0.0000
     11 C9         6.2400   14.5977    7.4547 C.3       1 RES1    0.0000
     12 C10        5.4800   15.8287    8.0032 C.3       1 RES1    0.0000
     13 H1         3.4651   12.5055   10.2509 H         1 RES1    0.0000
     14 H2         4.9685   12.1393   12.1545 H         1 RES1    0.0000
     15 H3         5.6377   13.8136   13.2684 H         1 RES1    0.0000
     16 H4         4.8493   16.0243   12.0417 H         1 RES1    0.0000
     17 H5         6.5361   15.8150   12.5352 H         1 RES1    0.0000
     18 H6         6.9211   14.8340   10.1804 H         1 RES1    0.0000
     19 H7         6.6369   16.5738   10.2932 H         1 RES1    0.0000
     20 H8         4.1618   16.0767    9.7292 H         1 RES1    0.0000
     21 H9         3.6485   13.9837    8.6153 H         1 RES1    0.0000
     22 H10        7.3244   14.7162    7.6001 H         1 RES1    0.0000
     23 H11        6.0502   14.4546    6.4015 H         1 RES1    0.0000
     24 H12        6.1419   16.7046    8.0372 H         1 RES1    0.0000
     25 H13        4.6477   16.0636    7.3604 H         1 RES1    0.0000
@<TRIPOS>BOND
     1    1    2 1
     2    2   10 2
     3    3    1 1
     4    4    3 1
     5    5    4 2
     6    6    5 1
     7    7    6 1
     8    8    7 1
     9    9    3 1
    10   10    9 1
    11   11   10 1
    12   12    8 1
    13   13    3 1
    14   14    4 1
    15   15    5 1
    16   16    6 1
    17   17    6 1
    18   18    7 1
    19   19    7 1
    20   20    8 1
    21   21    9 1
    22   22   11 1
    23   23   11 1
    24   24   12 1
    25   25   12 1
    26    8    9 1
    27   11   12 1
@<TRIPOS>SUBSTRUCTURE
     1 RES1 1

@<TRIPOS>CRYSIN
   9.1670   13.0811   14.1003  90.0000  90.0000  90.0000  61 1

