# MOL2 file generated by ConQuest
# Please check atom types

@<TRIPOS>MOLECULE
SALLUN
    32    35     1
SMALL
NO_CHARGES
****
Generated from CSD

@<TRIPOS>ATOM
      1 O1        10.8424    1.5368    1.3805 O.3       1 RES1    0.0000
      2 N1        10.6199    2.3589    2.5082 N.2       1 RES1    0.0000
      3 C1         9.5538    0.9849    0.9200 C.3       1 RES1    0.0000
      4 C2         9.2381    1.6239   -0.3826 C.2       1 RES1    0.0000
      5 C3         8.2222    2.3252   -0.8422 C.2       1 RES1    0.0000
      6 C4         6.9577    2.7489   -0.1759 C.3       1 RES1    0.0000
      7 C5         6.9536    2.8318    1.3209 C.3       1 RES1    0.0000
      8 C6         7.1844    1.5269    2.0679 C.3       1 RES1    0.0000
      9 C7         8.6640    1.1252    2.1429 C.3       1 RES1    0.0000
     10 C8         9.4256    2.1425    2.9264 C.2       1 RES1    0.0000
     11 C9         8.8285    2.8244    4.0752 C.ar      1 RES1    0.0000
     12 C10        9.5530    3.7351    4.8645 C.ar      1 RES1    0.0000
     13 C11        8.9364    4.3786    5.9085 C.ar      1 RES1    0.0000
     14 C12        7.6179    4.1086    6.1969 C.ar      1 RES1    0.0000
     15 C13        6.9151    3.2058    5.4451 C.ar      1 RES1    0.0000
     16 C14        7.4875    2.5547    4.3607 C.ar      1 RES1    0.0000
     17 C15        6.6929    1.5989    3.5051 C.3       1 RES1    0.0000
     18 H1         9.6256    0.0597    0.6738 H         1 RES1    0.0000
     19 H2         9.8575    1.5613   -1.1133 H         1 RES1    0.0000
     20 H3         8.3962    2.5702   -1.7536 H         1 RES1    0.0000
     21 H4         6.7027    0.8548    1.5808 H         1 RES1    0.0000
     22 H5         8.7397    0.2684    2.5690 H         1 RES1    0.0000
     23 H6        10.4799    3.9057    4.6818 H         1 RES1    0.0000
     24 H7         9.4376    5.0164    6.4216 H         1 RES1    0.0000
     25 H8         7.2031    4.5556    6.9384 H         1 RES1    0.0000
     26 H9         6.0017    3.0245    5.6760 H         1 RES1    0.0000
     27 H10        6.2923    2.1166   -0.4600 H         1 RES1    0.0000
     28 H11        6.7516    3.6140   -0.5369 H         1 RES1    0.0000
     29 H12        6.1021    3.1922    1.5794 H         1 RES1    0.0000
     30 H13        7.6477    3.4536    1.5515 H         1 RES1    0.0000
     31 H14        6.7313    0.7165    3.8810 H         1 RES1    0.0000
     32 H15        5.7808    1.8964    3.4782 H         1 RES1    0.0000
@<TRIPOS>BOND
     1    1    2 1
     2    2   10 2
     3    3    1 1
     4    4    3 1
     5    5    4 2
     6    6    5 1
     7    7    6 1
     8    8    7 1
     9    9    3 1
    10   10    9 1
    11   11   10 1
    12   12   11 ar
    13   13   12 ar
    14   14   13 ar
    15   15   14 ar
    16   16   11 ar
    17   17    8 1
    18   18    3 1
    19   19    4 1
    20   20    5 1
    21   21    8 1
    22   22    9 1
    23   23   12 1
    24   24   13 1
    25   25   14 1
    26   26   15 1
    27   27    6 1
    28   28    6 1
    29   29    7 1
    30   30    7 1
    31   31   17 1
    32   32   17 1
    33    8    9 1
    34   15   16 ar
    35   16   17 1
@<TRIPOS>SUBSTRUCTURE
     1 RES1 1

@<TRIPOS>CRYSIN
   7.2805    8.9175   10.3774  72.0461  71.2449  66.4180   2 1

