# MOL2 file generated by ConQuest
# Please check atom types

@<TRIPOS>MOLECULE
SALMIC
    26    28     1
SMALL
NO_CHARGES
****
Generated from CSD

@<TRIPOS>ATOM
      1 O1         2.5773    0.4112   12.5068 O.3       1 RES1    0.0000
      2 N1         3.0416    0.4449   11.1606 N.2       1 RES1    0.0000
      3 C1         2.0759    0.8036   10.4004 C.2       1 RES1    0.0000
      4 C2         2.1426    0.7893    8.9229 C.3       1 RES1    0.0000
      5 C3         1.1004   -0.2161    8.4018 C.3       1 RES1    0.0000
      6 C4        -0.2676    0.0263    9.0424 C.3       1 RES1    0.0000
      7 C5        -0.2400   -0.0345   10.5643 C.3       1 RES1    0.0000
      8 C6         0.7719    1.0129   11.1045 C.3       1 RES1    0.0000
      9 C7         1.1836    0.8951   12.5481 C.3       1 RES1    0.0000
     10 C8         0.4212    0.0278   13.4854 C.2       1 RES1    0.0000
     11 C9        -0.8903   -0.2829   13.4707 C.2       1 RES1    0.0000
     12 C10       -1.8501    0.0878   12.4596 C.2       1 RES1    0.0000
     13 C11       -1.5843    0.1981   11.1739 C.2       1 RES1    0.0000
     14 H1         0.0935   -1.0204   10.8787 H         1 RES1    0.0000
     15 H2         0.3807    2.0183   10.8492 H         1 RES1    0.0000
     16 H3         1.1269    1.8908   13.0337 H         1 RES1    0.0000
     17 H4         0.9047   -0.4877   14.2146 H         1 RES1    0.0000
     18 H5        -1.1943   -0.7728   14.2884 H         1 RES1    0.0000
     19 H6        -2.7883    0.2101   12.7828 H         1 RES1    0.0000
     20 H7        -2.3260    0.5177   10.5835 H         1 RES1    0.0000
     21 H8         1.9063    1.8082    8.5465 H         1 RES1    0.0000
     22 H9         3.1413    0.4652    8.6350 H         1 RES1    0.0000
     23 H10        1.4481   -1.2155    8.6646 H         1 RES1    0.0000
     24 H11        1.0035   -0.0975    7.3213 H         1 RES1    0.0000
     25 H12       -0.9396   -0.7428    8.6646 H         1 RES1    0.0000
     26 H13       -0.6154    1.0279    8.7236 H         1 RES1    0.0000
@<TRIPOS>BOND
     1    1    2 1
     2    2    3 2
     3    3    4 1
     4    4    5 1
     5    5    6 1
     6    6    7 1
     7    7    8 1
     8    8    3 1
     9    9    1 1
    10   10    9 1
    11   11   10 2
    12   12   11 1
    13   13    7 1
    14   14    7 1
    15   15    8 1
    16   16    9 1
    17   17   10 1
    18   18   11 1
    19   19   12 1
    20   20   13 1
    21   21    4 1
    22   22    4 1
    23   23    5 1
    24   24    5 1
    25   25    6 1
    26   26    6 1
    27    8    9 1
    28   12   13 2
@<TRIPOS>SUBSTRUCTURE
     1 RES1 1

@<TRIPOS>CRYSIN
   8.3195    7.5030   14.9170  90.0000  98.3000  90.0000  14 1

