# MOL2 file generated by ConQuest
# Please check atom types

@<TRIPOS>MOLECULE
SALOXM03
    17    17     1
SMALL
NO_CHARGES
****
Generated from CSD

@<TRIPOS>ATOM
      1 O1         4.1854    5.1350    8.4944 O.3       1 RES1    0.0000
      2 N1         4.1268    4.3751    7.3278 N.2       1 RES1    0.0000
      3 C1         5.0383    3.5015    7.2594 C.2       1 RES1    0.0000
      4 C2         5.1711    2.6108    6.1221 C.ar      1 RES1    0.0000
      5 C3         4.2504    2.6213    5.0622 C.ar      1 RES1    0.0000
      6 O2         3.2078    3.4788    5.0431 O.3       1 RES1    0.0000
      7 C4         4.3959    1.7316    4.0109 C.ar      1 RES1    0.0000
      8 C5         5.4441    0.8535    3.9782 C.ar      1 RES1    0.0000
      9 C6         6.3724    0.8414    5.0090 C.ar      1 RES1    0.0000
     10 C7         6.2198    1.7040    6.0659 C.ar      1 RES1    0.0000
     11 H1         5.6757    3.4316    7.9747 H         1 RES1    0.0000
     12 H2         3.7542    1.7296    3.3304 H         1 RES1    0.0000
     13 H3         5.6036    0.2459    3.2455 H         1 RES1    0.0000
     14 H4         7.0986    0.2122    4.9812 H         1 RES1    0.0000
     15 H5         6.8802    1.7231    6.7756 H         1 RES1    0.0000
     16 H6         3.5909    5.6883    8.3852 H         1 RES1    0.0000
     17 H7         3.2243    3.9883    5.6850 H         1 RES1    0.0000
@<TRIPOS>BOND
     1    1    2 1
     2    2    3 2
     3    3    4 1
     4    4    5 ar
     5    5    6 1
     6    6   17 1
     7    7    5 ar
     8    8    7 ar
     9    9    8 ar
    10   10    4 ar
    11   11    3 1
    12   12    7 1
    13   13    8 1
    14   14    9 1
    15   15   10 1
    16   16    1 1
    17    9   10 ar
@<TRIPOS>SUBSTRUCTURE
     1 RES1 1

@<TRIPOS>CRYSIN
  10.3460    5.0294   13.4780  90.0000 112.2100  90.0000 231 1

