# MOL2 file generated by ConQuest
# Please check atom types

@<TRIPOS>MOLECULE
SALOXM
    17    17     1
SMALL
NO_CHARGES
****
Generated from CSD

@<TRIPOS>ATOM
      1 C1         2.5564    2.4410    0.1165 C.ar      1 RES1    0.0000
      2 C2         1.6329    2.4242    1.1839 C.ar      1 RES1    0.0000
      3 C3         1.7787    3.3261    2.2313 C.ar      1 RES1    0.0000
      4 C4         2.8335    4.2010    2.2651 C.ar      1 RES1    0.0000
      5 C5         3.7697    4.2229    1.2340 C.ar      1 RES1    0.0000
      6 C6         3.6064    3.3515    0.1766 C.ar      1 RES1    0.0000
      7 C7         2.4290    1.5422   -1.0261 C.2       1 RES1    0.0000
      8 H1         1.0836    3.3261    2.8564 H         1 RES1    0.0000
      9 H2         2.8898    4.9968    2.8439 H         1 RES1    0.0000
     10 H3         4.5611    5.0526    1.2779 H         1 RES1    0.0000
     11 H4         4.3288    3.2448   -0.4886 H         1 RES1    0.0000
     12 H5         3.2238    1.5640   -1.7665 H         1 RES1    0.0000
     13 H6         0.9722   -0.6957   -2.0797 H         1 RES1    0.0000
     14 H7         0.6732    1.0156    0.5011 H         1 RES1    0.0000
     15 N1         1.5092    0.6688   -1.0937 N.2       1 RES1    0.0000
     16 O1         0.5830    1.5620    1.1952 O.3       1 RES1    0.0000
     17 O2         1.5736   -0.1026   -2.2663 O.3       1 RES1    0.0000
@<TRIPOS>BOND
     1    1    2 ar
     2    2    3 ar
     3    3    4 ar
     4    4    5 ar
     5    5    6 ar
     6    6    1 ar
     7    7    1 1
     8    8    3 1
     9    9    4 1
    10   10    5 1
    11   11    6 1
    12   12    7 1
    13   13   17 1
    14   14   16 1
    15   15    7 2
    16   16    2 1
    17   17   15 1
@<TRIPOS>SUBSTRUCTURE
     1 RES1 1

@<TRIPOS>CRYSIN
  10.4100    5.0780   13.6000  90.0000 112.9000  90.0000  14 1

