# MOL2 file generated by ConQuest
# Please check atom types

@<TRIPOS>MOLECULE
SALOXM05
    17    17     1
SMALL
NO_CHARGES
****
Generated from CSD

@<TRIPOS>ATOM
      1 O1         4.3176    5.1525    7.8751 O.3       1 RES1    0.0000
      2 N1         4.2017    4.3342    6.7529 N.2       1 RES1    0.0000
      3 C1         5.1142    3.4735    6.7162 C.2       1 RES1    0.0000
      4 C2         5.2130    2.5047    5.6146 C.ar      1 RES1    0.0000
      5 C3         4.2355    2.4623    4.6013 C.ar      1 RES1    0.0000
      6 O2         3.1969    3.3467    4.5818 O.3       1 RES1    0.0000
      7 C4         4.3022    1.4896    3.6212 C.ar      1 RES1    0.0000
      8 C5         5.3474    0.5949    3.5982 C.ar      1 RES1    0.0000
      9 C6         6.3306    0.6422    4.5738 C.ar      1 RES1    0.0000
     10 C7         6.2402    1.5893    5.5848 C.ar      1 RES1    0.0000
     11 H1         5.7458    3.4355    7.4131 H         1 RES1    0.0000
     12 H2         3.6396    1.4437    2.9919 H         1 RES1    0.0000
     13 H3         5.3935   -0.0745    2.9116 H         1 RES1    0.0000
     14 H4         7.0475    0.0069    4.6127 H         1 RES1    0.0000
     15 H5         6.8822    1.5937    6.2623 H         1 RES1    0.0000
     16 H6         3.7451    5.7266    7.7605 H         1 RES1    0.0000
     17 H7         3.3104    3.9164    5.1584 H         1 RES1    0.0000
@<TRIPOS>BOND
     1    1    2 1
     2    2    3 2
     3    3    4 1
     4    4    5 ar
     5    5    6 1
     6    6   17 1
     7    7    5 ar
     8    8    7 ar
     9    9    8 ar
    10   10    4 ar
    11   11    3 1
    12   12    7 1
    13   13    8 1
    14   14    9 1
    15   15   10 1
    16   16    1 1
    17    9   10 ar
@<TRIPOS>SUBSTRUCTURE
     1 RES1 1

@<TRIPOS>CRYSIN
   9.8510    4.9325   12.2860  90.0000 111.0900  90.0000 231 1

