# MOL2 file generated by ConQuest
# Please check atom types

@<TRIPOS>MOLECULE
SALOXM06
    17    17     1
SMALL
NO_CHARGES
****
Generated from CSD

@<TRIPOS>ATOM
      1 O1         4.3386    5.1739    7.7406 O.3       1 RES1    0.0000
      2 N1         4.2431    4.3384    6.6226 N.2       1 RES1    0.0000
      3 C1         5.1589    3.4836    6.5821 C.2       1 RES1    0.0000
      4 C2         5.2350    2.4942    5.5014 C.ar      1 RES1    0.0000
      5 C3         4.2275    2.4543    4.5096 C.ar      1 RES1    0.0000
      6 O2         3.2127    3.3376    4.4800 O.3       1 RES1    0.0000
      7 C4         4.2771    1.4481    3.5379 C.ar      1 RES1    0.0000
      8 C5         5.3033    0.5564    3.5267 C.ar      1 RES1    0.0000
      9 C6         6.3181    0.6121    4.4837 C.ar      1 RES1    0.0000
     10 C7         6.2484    1.5749    5.4699 C.ar      1 RES1    0.0000
     11 H1         5.8056    3.4535    7.2805 H         1 RES1    0.0000
     12 H2         3.6079    1.4106    2.8812 H         1 RES1    0.0000
     13 H3         5.3258   -0.1075    2.8699 H         1 RES1    0.0000
     14 H4         7.0219   -0.0133    4.4747 H         1 RES1    0.0000
     15 H5         6.9067    1.5744    6.1503 H         1 RES1    0.0000
     16 H6         3.8143    5.7855    7.5796 H         1 RES1    0.0000
     17 H7         3.3735    3.8668    5.0831 H         1 RES1    0.0000
@<TRIPOS>BOND
     1    1    2 1
     2    2    3 2
     3    3    4 1
     4    4    5 ar
     5    5    6 1
     6    6   17 1
     7    7    5 ar
     8    8    7 ar
     9    9    8 ar
    10   10    4 ar
    11   11    3 1
    12   12    7 1
    13   13    8 1
    14   14    9 1
    15   15   10 1
    16   16    1 1
    17    9   10 ar
@<TRIPOS>SUBSTRUCTURE
     1 RES1 1

@<TRIPOS>CRYSIN
   9.7148    4.9322   12.0145  90.0000 110.6070  90.0000 231 1

