# MOL2 file generated by ConQuest
# Please check atom types

@<TRIPOS>MOLECULE
SALWUA
    43    46     1
SMALL
NO_CHARGES
****
Generated from CSD

@<TRIPOS>ATOM
      1 C1         1.1876    4.9600    1.1489 C.ar      1 RES1    0.0000
      2 C2         0.1382    4.9019    2.0395 C.ar      1 RES1    0.0000
      3 H1        -0.3955    4.1426    2.0966 H         1 RES1    0.0000
      4 N1         0.2404    9.5588    3.0339 N.3       1 RES1    0.0000
      5 C3         0.7004    7.1334    2.7612 C.ar      1 RES1    0.0000
      6 C4         0.4093    7.3243    5.9631 C.ar      1 RES1    0.0000
      7 C5         1.3090    6.2593    5.7930 C.ar      1 RES1    0.0000
      8 H2         1.8292    6.2202    5.0237 H         1 RES1    0.0000
      9 C6         0.0131   10.4700    4.0459 C.ar      1 RES1    0.0000
     10 C7         0.4164    8.3086    3.6083 C.2       1 RES1    0.0000
     11 C8        -0.1028    5.9957    2.8473 C.ar      1 RES1    0.0000
     12 H3        -0.8081    5.9746    3.4538 H         1 RES1    0.0000
     13 C9         1.7581    7.1384    1.8705 C.ar      1 RES1    0.0000
     14 H4         2.3107    7.8840    1.8228 H         1 RES1    0.0000
     15 C10        1.4326    5.2778    6.7407 C.ar      1 RES1    0.0000
     16 H5         2.0201    4.5682    6.6132 H         1 RES1    0.0000
     17 C11        0.2758    8.3924    4.9791 C.2       1 RES1    0.0000
     18 N2         1.4242    3.8198    0.2489 N.pl3     1 RES1    0.0000
     19 O1         2.2878    3.9367   -0.6232 O.2       1 RES1    0.0000
     20 C12        2.0086    6.0573    1.0535 C.ar      1 RES1    0.0000
     21 H6         2.7164    6.0713    0.4510 H         1 RES1    0.0000
     22 C13        0.6647    5.3625    7.8958 C.ar      1 RES1    0.0000
     23 C14        0.0327    9.7884    5.2684 C.ar      1 RES1    0.0000
     24 C15       -0.3459    7.3546    7.1389 C.ar      1 RES1    0.0000
     25 H7        -0.9586    8.0429    7.2675 H         1 RES1    0.0000
     26 O2         0.7626    2.8197    0.3899 O.2       1 RES1    0.0000
     27 N3         0.8284    4.3270    8.9078 N.pl3     1 RES1    0.0000
     28 C16       -0.1855   11.8444    3.9401 C.ar      1 RES1    0.0000
     29 H8        -0.2201   12.2647    3.1106 H         1 RES1    0.0000
     30 C17        0.2154    9.9086    1.6269 C.3       1 RES1    0.0000
     31 H9        -0.5072   10.5192    1.4610 H         1 RES1    0.0000
     32 H10        0.0914    9.1156    1.1012 H         1 RES1    0.0000
     33 H11        1.0468   10.3248    1.3853 H         1 RES1    0.0000
     34 C18       -0.0692   10.5580    6.4390 C.ar      1 RES1    0.0000
     35 H12       -0.0086   10.1588    7.2768 H         1 RES1    0.0000
     36 C19       -0.2055    6.3996    8.1032 C.ar      1 RES1    0.0000
     37 H13       -0.6949    6.4524    8.8923 H         1 RES1    0.0000
     38 C20       -0.3257   12.5468    5.0880 C.ar      1 RES1    0.0000
     39 H14       -0.4678   13.4652    5.0486 H         1 RES1    0.0000
     40 C21       -0.2596   11.9200    6.3177 C.ar      1 RES1    0.0000
     41 H15       -0.3476   12.4321    7.0891 H         1 RES1    0.0000
     42 O3         0.0795    4.2969    9.8410 O.2       1 RES1    0.0000
     43 O4         1.7005    3.4975    8.7834 O.2       1 RES1    0.0000
@<TRIPOS>BOND
     1    1    2 ar
     2    2    3 1
     3    4    9 1
     4    5   10 1
     5    6    7 ar
     6    7    8 1
     7    9   23 ar
     8   10    4 1
     9   11    2 ar
    10   12   11 1
    11   13    5 ar
    12   14   13 1
    13   15    7 ar
    14   16   15 1
    15   17    6 1
    16   18    1 1
    17   19   18 2
    18   20    1 ar
    19   21   20 1
    20   22   15 ar
    21   23   17 1
    22   24    6 ar
    23   25   24 1
    24   26   18 2
    25   27   22 1
    26   28    9 ar
    27   29   28 1
    28   30    4 1
    29   31   30 1
    30   32   30 1
    31   33   30 1
    32   34   23 ar
    33   35   34 1
    34   36   22 ar
    35   37   36 1
    36   38   28 ar
    37   39   38 1
    38   40   34 ar
    39   41   40 1
    40   42   27 2
    41   43   27 2
    42    5   11 ar
    43   10   17 2
    44   13   20 ar
    45   24   36 ar
    46   38   40 ar
@<TRIPOS>SUBSTRUCTURE
     1 RES1 1

@<TRIPOS>CRYSIN
   8.3574   10.4044   11.7348 113.6740 102.8310  92.6510   2 1

