# MOL2 file generated by ConQuest
# Please check atom types

@<TRIPOS>MOLECULE
SANREG
    40    43     1
SMALL
NO_CHARGES
****
Generated from CSD

@<TRIPOS>ATOM
      1 O1         0.8078   11.3849    9.7248 O.2       1 RES1    0.0000
      2 O2         1.0875    9.8784    5.7462 O.3       1 RES1    0.0000
      3 O3         2.3372    9.6700    7.5270 O.2       1 RES1    0.0000
      4 O4         1.3289   12.6190    6.9071 O.2       1 RES1    0.0000
      5 O5         0.7337   14.2665    8.1440 O.2       1 RES1    0.0000
      6 N1         0.5187   13.1842    7.6201 N.pl3     1 RES1    0.0000
      7 C1        -0.0015   10.0228    7.9415 C.3       1 RES1    0.0000
      8 C2         0.5154   10.2570    9.3702 C.2       1 RES1    0.0000
      9 C3         0.7022    9.1033   10.2785 C.ar      1 RES1    0.0000
     10 C4         1.1388    9.3512   11.5839 C.ar      1 RES1    0.0000
     11 H1         1.2838   10.2251   11.8657 H         1 RES1    0.0000
     12 C5         1.3553    8.3083   12.4515 C.ar      1 RES1    0.0000
     13 H2         1.6347    8.4757   13.3220 H         1 RES1    0.0000
     14 C6         1.1543    7.0078   12.0213 C.ar      1 RES1    0.0000
     15 H3         1.3215    6.2994   12.6005 H         1 RES1    0.0000
     16 C7         0.7105    6.7570   10.7462 C.ar      1 RES1    0.0000
     17 H4         0.5568    5.8796   10.4793 H         1 RES1    0.0000
     18 C8         0.4896    7.7857    9.8534 C.ar      1 RES1    0.0000
     19 C9         0.0455    7.5175    8.4479 C.3       1 RES1    0.0000
     20 H5        -0.4921    6.7102    8.4314 H         1 RES1    0.0000
     21 H6         0.8246    7.3675    7.8899 H         1 RES1    0.0000
     22 C10       -0.7622    8.6668    7.8771 C.3       1 RES1    0.0000
     23 H7        -1.5931    8.7462    8.3714 H         1 RES1    0.0000
     24 H8        -0.9831    8.4707    6.9534 H         1 RES1    0.0000
     25 C11        1.2450    9.8779    7.0871 C.2       1 RES1    0.0000
     26 C12       -0.9544   11.1212    7.4098 C.3       1 RES1    0.0000
     27 H9        -1.8406   10.8523    7.7299 H         1 RES1    0.0000
     28 C13       -1.0491   11.0216    5.8950 C.ar      1 RES1    0.0000
     29 C14       -2.1368   11.5478    5.2058 C.ar      1 RES1    0.0000
     30 H10       -2.8189   11.9655    5.6804 H         1 RES1    0.0000
     31 C15       -2.2205   11.4615    3.8381 C.ar      1 RES1    0.0000
     32 H11       -2.9436   11.8363    3.3892 H         1 RES1    0.0000
     33 C16       -1.2345   10.8203    3.1406 C.ar      1 RES1    0.0000
     34 H12       -1.2983   10.7521    2.2145 H         1 RES1    0.0000
     35 C17       -0.1556   10.2762    3.7860 C.ar      1 RES1    0.0000
     36 H13        0.5104    9.8333    3.3109 H         1 RES1    0.0000
     37 C18       -0.0782   10.4010    5.1610 C.ar      1 RES1    0.0000
     38 C19       -0.8029   12.5644    7.8759 C.3       1 RES1    0.0000
     39 H14       -1.4820   13.1008    7.4367 H         1 RES1    0.0000
     40 H15       -0.9773   12.5978    8.8297 H         1 RES1    0.0000
@<TRIPOS>BOND
     1    1    8 2
     2    2   25 1
     3    3   25 2
     4    4    6 2
     5    5    6 2
     6    6   38 1
     7    7    8 1
     8    8    9 1
     9    9   10 ar
    10   10   11 1
    11   12   10 ar
    12   13   12 1
    13   14   12 ar
    14   15   14 1
    15   16   14 ar
    16   17   16 1
    17   18    9 ar
    18   19   18 1
    19   20   19 1
    20   21   19 1
    21   22    7 1
    22   23   22 1
    23   24   22 1
    24   25    7 1
    25   26    7 1
    26   27   26 1
    27   28   26 1
    28   29   28 ar
    29   30   29 1
    30   31   29 ar
    31   32   31 1
    32   33   31 ar
    33   34   33 1
    34   35   33 ar
    35   36   35 1
    36   37    2 1
    37   38   26 1
    38   39   38 1
    39   40   38 1
    40   16   18 ar
    41   19   22 1
    42   28   37 ar
    43   35   37 ar
@<TRIPOS>SUBSTRUCTURE
     1 RES1 1

@<TRIPOS>CRYSIN
   9.6671   10.0197   16.6629  90.0000  90.0000  90.0000  19 1

