# MOL2 file generated by ConQuest
# Please check atom types

@<TRIPOS>MOLECULE
SANXOV
    38    41     1
SMALL
NO_CHARGES
****
Generated from CSD

@<TRIPOS>ATOM
      1 O1         4.6537   -1.8788    9.2028 O.3       1 RES1    0.0000
      2 O2        -2.1992    1.3235    3.9602 O.2       1 RES1    0.0000
      3 O3        -3.1453    1.1713    5.8858 O.2       1 RES1    0.0000
      4 N1         2.6336   -3.0038    6.2638 N.pl3     1 RES1    0.0000
      5 H1         1.9400   -3.4087    6.0327 H         1 RES1    0.0000
      6 N2        -2.1970    0.9886    5.1344 N.pl3     1 RES1    0.0000
      7 C1         6.0201   -5.3439    6.9670 C.ar      1 RES1    0.0000
      8 H2         6.7849   -5.8562    7.0977 H         1 RES1    0.0000
      9 C2         5.9562   -4.0583    7.4411 C.ar      1 RES1    0.0000
     10 H3         6.6864   -3.7046    7.8958 H         1 RES1    0.0000
     11 C3         4.8212   -3.2723    7.2574 C.ar      1 RES1    0.0000
     12 C4         4.7698   -1.8698    7.7605 C.3       1 RES1    0.0000
     13 H4         5.6017   -1.4140    7.5134 H         1 RES1    0.0000
     14 C5         4.1907   -0.5980    9.5748 C.3       1 RES1    0.0000
     15 H5         4.9396   -0.0372    9.8318 H         1 RES1    0.0000
     16 H6         3.5898   -0.6702   10.3323 H         1 RES1    0.0000
     17 C6         3.4787    0.0068    8.4206 C.3       1 RES1    0.0000
     18 H7         3.8955    0.8431    8.1609 H         1 RES1    0.0000
     19 H8         2.5492    0.1746    8.6406 H         1 RES1    0.0000
     20 C7         3.5899   -1.0250    7.2939 C.3       1 RES1    0.0000
     21 H9         3.7993   -0.5835    6.4439 H         1 RES1    0.0000
     22 C8         2.3359   -1.8938    7.1523 C.3       1 RES1    0.0000
     23 H10        2.1031   -2.2529    8.0337 H         1 RES1    0.0000
     24 C9         3.7355   -3.7994    6.5471 C.ar      1 RES1    0.0000
     25 C10        3.8104   -5.1103    6.0769 C.ar      1 RES1    0.0000
     26 H11        3.0907   -5.4733    5.6134 H         1 RES1    0.0000
     27 C11        4.9313   -5.8692    6.2907 C.ar      1 RES1    0.0000
     28 H12        4.9622   -6.7453    5.9786 H         1 RES1    0.0000
     29 C12        1.1556   -1.1122    6.6238 C.ar      1 RES1    0.0000
     30 C13        1.0817   -0.7547    5.2832 C.ar      1 RES1    0.0000
     31 H13        1.7727   -0.9914    4.7072 H         1 RES1    0.0000
     32 C14       -0.0059   -0.0519    4.7938 C.ar      1 RES1    0.0000
     33 H14       -0.0550    0.1803    3.8947 H         1 RES1    0.0000
     34 C15       -1.0121    0.2950    5.6651 C.ar      1 RES1    0.0000
     35 C16       -0.9611   -0.0215    7.0031 C.ar      1 RES1    0.0000
     36 H15       -1.6454    0.2359    7.5784 H         1 RES1    0.0000
     37 C17        0.1259   -0.7275    7.4730 C.ar      1 RES1    0.0000
     38 H16        0.1706   -0.9508    8.3746 H         1 RES1    0.0000
@<TRIPOS>BOND
     1    1   12 1
     2    2    6 2
     3    3    6 2
     4    4    5 1
     5    6   34 1
     6    7    8 1
     7    9    7 ar
     8   10    9 1
     9   11    9 ar
    10   12   11 1
    11   13   12 1
    12   14    1 1
    13   15   14 1
    14   16   14 1
    15   17   14 1
    16   18   17 1
    17   19   17 1
    18   20   12 1
    19   21   20 1
    20   22    4 1
    21   23   22 1
    22   24    4 1
    23   25   24 ar
    24   26   25 1
    25   27    7 ar
    26   28   27 1
    27   29   22 1
    28   30   29 ar
    29   31   30 1
    30   32   30 ar
    31   33   32 1
    32   34   32 ar
    33   35   34 ar
    34   36   35 1
    35   37   29 ar
    36   38   37 1
    37   11   24 ar
    38   17   20 1
    39   20   22 1
    40   25   27 ar
    41   35   37 ar
@<TRIPOS>SUBSTRUCTURE
     1 RES1 1

@<TRIPOS>CRYSIN
   9.1090    9.2626    9.7553 103.4110 102.7910 107.0810   2 1

