# MOL2 file generated by ConQuest
# Please check atom types

@<TRIPOS>MOLECULE
SAPSOU
    39    40     1
SMALL
NO_CHARGES
****
Generated from CSD

@<TRIPOS>ATOM
      1 O1         0.0872    4.2096   12.5437 O.3       1 RES1    0.0000
      2 H1        -0.1362    3.6629   13.1117 H         1 RES1    0.0000
      3 O2         3.9611    2.2141   13.7452 O.3       1 RES1    0.0000
      4 C1         2.1789    3.5119   14.5626 C.ar      1 RES1    0.0000
      5 C2         3.2158    5.2455    9.1005 C.ar      1 RES1    0.0000
      6 H2         4.0168    5.1001    8.6520 H         1 RES1    0.0000
      7 O3         3.6903    6.7218    6.8641 O.2       1 RES1    0.0000
      8 C3         2.3861    4.4580   13.3847 C.3       1 RES1    0.0000
      9 H3         3.3081    4.3364   13.0759 H         1 RES1    0.0000
     10 C4         0.8297    5.7029   10.4267 C.ar      1 RES1    0.0000
     11 H4         0.0321    5.8638   10.8776 H         1 RES1    0.0000
     12 C5         2.9372    4.5778   10.2837 C.ar      1 RES1    0.0000
     13 H5         3.5569    3.9775   10.6305 H         1 RES1    0.0000
     14 C6         1.7416    4.7984   10.9544 C.ar      1 RES1    0.0000
     15 C7         2.2881    6.1247    8.6056 C.ar      1 RES1    0.0000
     16 N1         2.5775    6.8183    7.3427 N.pl3     1 RES1    0.0000
     17 C8         2.2285    5.9083   13.7482 C.2       1 RES1    0.0000
     18 H6         1.3864    6.2146   13.9979 H         1 RES1    0.0000
     19 C9         4.7395    1.0174   13.7804 C.3       1 RES1    0.0000
     20 H7         5.3013    0.9784   13.0027 H         1 RES1    0.0000
     21 H8         4.1558    0.2557   13.7934 H         1 RES1    0.0000
     22 H9         5.2861    1.0145   14.5705 H         1 RES1    0.0000
     23 C10        1.0886    6.3689    9.2421 C.ar      1 RES1    0.0000
     24 H10        0.4706    6.9652    8.8837 H         1 RES1    0.0000
     25 C11        1.4528    4.0254   12.2234 C.3       1 RES1    0.0000
     26 H11        1.6025    3.0729   12.0449 H         1 RES1    0.0000
     27 C12        2.9912    2.3913   14.7082 C.ar      1 RES1    0.0000
     28 C13        1.1793    3.7101   15.4950 C.ar      1 RES1    0.0000
     29 H12        0.6192    4.4479   15.4089 H         1 RES1    0.0000
     30 O4         1.7134    7.5076    6.8580 O.2       1 RES1    0.0000
     31 C14        0.9896    2.8287   16.5635 C.ar      1 RES1    0.0000
     32 H13        0.3085    2.9778   17.1795 H         1 RES1    0.0000
     33 C15        1.8007    1.7618   16.6949 C.ar      1 RES1    0.0000
     34 H14        1.6808    1.1767   17.4079 H         1 RES1    0.0000
     35 C16        2.8122    1.5243   15.7777 C.ar      1 RES1    0.0000
     36 H15        3.3695    0.7867   15.8776 H         1 RES1    0.0000
     37 C17        3.2197    6.7567   13.7291 C.2       1 RES1    0.0000
     38 H16        4.0703    6.4719   13.4832 H         1 RES1    0.0000
     39 H17        3.0751    7.6453   13.9621 H         1 RES1    0.0000
@<TRIPOS>BOND
     1    1    2 1
     2    3   19 1
     3    4    8 1
     4    5    6 1
     5    7   16 2
     6    8    9 1
     7   10   11 1
     8   12    5 ar
     9   13   12 1
    10   14   10 ar
    11   15    5 ar
    12   16   15 1
    13   17    8 1
    14   18   17 1
    15   19   20 1
    16   21   19 1
    17   22   19 1
    18   23   10 ar
    19   24   23 1
    20   25    1 1
    21   26   25 1
    22   27    3 1
    23   28    4 ar
    24   29   28 1
    25   30   16 2
    26   31   28 ar
    27   32   31 1
    28   33   31 ar
    29   34   33 1
    30   35   27 ar
    31   36   35 1
    32   37   17 2
    33   38   37 1
    34   39   37 1
    35    4   27 ar
    36    8   25 1
    37   12   14 ar
    38   14   25 1
    39   15   23 ar
    40   33   35 ar
@<TRIPOS>SUBSTRUCTURE
     1 RES1 1

@<TRIPOS>CRYSIN
   5.6289   16.3886   17.0415  90.0000  90.0000  90.0000  19 1

