# MOL2 file generated by ConQuest
# Please check atom types

@<TRIPOS>MOLECULE
SAPXEM
    21    21     1
SMALL
NO_CHARGES
****
Generated from CSD

@<TRIPOS>ATOM
      1 O1         0.8296   -2.4828    4.2083 O.3       1 RES1    0.0000
      2 O2         2.4138    1.9144   -1.4180 O.2       1 RES1    0.0000
      3 O3         1.5473    2.9645    0.2803 O.2       1 RES1    0.0000
      4 N1         0.7966   -0.4289    2.2756 N.3       1 RES1    0.0000
      5 N2         1.8871    1.8984   -0.2771 N.pl3     1 RES1    0.0000
      6 C1         1.0439    0.6391    1.5356 C.2       1 RES1    0.0000
      7 C2         1.6791    0.6683    0.3244 C.2       1 RES1    0.0000
      8 C3        -0.0322   -0.3412    3.4834 C.3       1 RES1    0.0000
      9 C4         0.6099   -1.1273    4.6034 C.3       1 RES1    0.0000
     10 C5         1.7371   -2.5177    3.1059 C.3       1 RES1    0.0000
     11 C6         1.1770   -1.7900    1.8958 C.3       1 RES1    0.0000
     12 H1         0.7691    1.4705    1.8935 H         1 RES1    0.0000
     13 H2         1.9665   -0.0660   -0.1847 H         1 RES1    0.0000
     14 H3        -0.0988    0.5656    3.7178 H         1 RES1    0.0000
     15 H4        -0.9101   -0.7164    3.2906 H         1 RES1    0.0000
     16 H5         1.4750   -0.7164    4.8839 H         1 RES1    0.0000
     17 H6         0.0100   -1.1500    5.3804 H         1 RES1    0.0000
     18 H7         2.6406   -2.0831    3.3714 H         1 RES1    0.0000
     19 H8         1.8839   -3.4688    2.8749 H         1 RES1    0.0000
     20 H9         0.3221   -2.2717    1.5472 H         1 RES1    0.0000
     21 H10        1.8477   -1.7438    1.1892 H         1 RES1    0.0000
@<TRIPOS>BOND
     1    1    9 1
     2    2    5 2
     3    3    5 2
     4    4    6 1
     5    5    7 1
     6    6    7 2
     7    7   13 1
     8    8    4 1
     9    9    8 1
    10   10    1 1
    11   11    4 1
    12   12    6 1
    13   14    8 1
    14   15    8 1
    15   16    9 1
    16   17    9 1
    17   18   10 1
    18   19   10 1
    19   20   11 1
    20   21   11 1
    21   10   11 1
@<TRIPOS>SUBSTRUCTURE
     1 RES1 1

@<TRIPOS>CRYSIN
   6.7940    9.4260   11.7750  90.0000 101.3200  90.0000  14 1

