# MOL2 file generated by ConQuest
# Please check atom types

@<TRIPOS>MOLECULE
SAQLIG
    31    31     1
SMALL
NO_CHARGES
****
Generated from CSD

@<TRIPOS>ATOM
      1 O1         0.8586   -0.3615    8.1830 O.3       1 RES1    0.0000
      2 O2         2.7449   -0.0739    6.1143 O.3       1 RES1    0.0000
      3 O3         4.2087   -0.6789    7.6852 O.2       1 RES1    0.0000
      4 O4         3.1446    0.4767   10.3333 O.2       1 RES1    0.0000
      5 N1         3.4049    1.3005    9.3872 N.pl3     1 RES1    0.0000
      6 O5         0.4708    1.7424    8.8291 O.2       1 RES1    0.0000
      7 C1         3.3109    0.0087    7.2983 C.2       1 RES1    0.0000
      8 C2         1.1995    0.8940    8.4169 C.2       1 RES1    0.0000
      9 C3         2.9276    2.5147    7.4140 C.3       1 RES1    0.0000
     10 H1         2.2068    3.1240    7.6431 H         1 RES1    0.0000
     11 H2         2.9851    2.4626    6.4794 H         1 RES1    0.0000
     12 C4         2.6756    1.1570    8.0813 C.3       1 RES1    0.0000
     13 C5        -0.5355   -0.7288    8.4536 C.3       1 RES1    0.0000
     14 H3        -0.6978   -0.6636    9.4318 H         1 RES1    0.0000
     15 H4        -1.1716   -0.0572    7.9622 H         1 RES1    0.0000
     16 C6         4.2489    2.2807    9.3548 C.2       1 RES1    0.0000
     17 H5         4.8764    2.4582   10.1460 H         1 RES1    0.0000
     18 C7        -0.7387   -2.1155    7.9795 C.3       1 RES1    0.0000
     19 H6        -0.0866   -2.6930    8.5155 H         1 RES1    0.0000
     20 H7        -0.6229   -2.1358    7.0339 H         1 RES1    0.0000
     21 H8        -1.7579   -2.3017    8.1617 H         1 RES1    0.0000
     22 C8         4.2266    3.0009    8.0686 C.3       1 RES1    0.0000
     23 H9         5.0835    2.6908    7.4648 H         1 RES1    0.0000
     24 H10        4.2011    3.9811    8.1617 H         1 RES1    0.0000
     25 C9         3.2590   -1.1063    5.2162 C.3       1 RES1    0.0000
     26 H11        4.3392   -0.8665    4.9845 H         1 RES1    0.0000
     27 H12        3.3190   -2.0489    5.7692 H         1 RES1    0.0000
     28 C10        2.4411   -1.0925    4.0137 C.3       1 RES1    0.0000
     29 H13        1.5689   -1.4367    4.2158 H         1 RES1    0.0000
     30 H14        2.8519   -1.6395    3.3408 H         1 RES1    0.0000
     31 H15        2.3632   -0.1920    3.6905 H         1 RES1    0.0000
@<TRIPOS>BOND
     1    1    8 1
     2    2    7 1
     3    3    7 2
     4    4    5 1
     5    5   12 1
     6    6    8 2
     7    7   12 1
     8    8   12 1
     9    9   10 1
    10   11    9 1
    11   12    9 1
    12   13    1 1
    13   14   13 1
    14   15   13 1
    15   16    5 2
    16   17   16 1
    17   18   13 1
    18   19   18 1
    19   20   18 1
    20   21   18 1
    21   22    9 1
    22   23   22 1
    23   24   22 1
    24   25    2 1
    25   26   25 1
    26   27   25 1
    27   28   25 1
    28   29   28 1
    29   30   28 1
    30   31   28 1
    31   16   22 1
@<TRIPOS>SUBSTRUCTURE
     1 RES1 1

@<TRIPOS>CRYSIN
  12.0020    7.2450   13.3570  90.0000  95.3320  90.0000  14 1

