# MOL2 file generated by ConQuest
# Please check atom types

@<TRIPOS>MOLECULE
SAQMUU
    63    61     2
SMALL
NO_CHARGES
****
Generated from CSD

@<TRIPOS>ATOM
      1 O1         3.9813    8.0028   10.5018 O.3       1 RES1    0.0000
      2 O2         3.5005    6.1836   11.7224 O.2       1 RES1    0.0000
      3 O3         3.5558    9.7080    8.5079 O.2       1 RES1    0.0000
      4 O4         5.7645    9.9600    8.1119 O.3       1 RES1    0.0000
      5 O5         3.6205   11.9262    5.2575 O.2       1 RES1    0.0000
      6 O6         3.7506   11.4088    3.1983 O.2       1 RES1    0.0000
      7 O7         9.0431    8.7287    4.6943 O.3       1 RES1    0.0000
      8 N1         4.2195   11.3923    4.3246 N.pl3     1 RES1    0.0000
      9 C1         5.1605    8.4167    9.7293 C.3       1 RES1    0.0000
     10 C2         4.2943    6.7820   11.0499 C.2       1 RES1    0.0000
     11 C3         5.7124    6.4670   10.6824 C.3       1 RES1    0.0000
     12 C4         6.5465    7.5153   11.4641 C.3       1 RES1    0.0000
     13 H1         7.5151    7.3249   11.3884 H         1 RES1    0.0000
     14 H2         6.2925    7.5288   12.4194 H         1 RES1    0.0000
     15 C5         6.1882    8.8636   10.7715 C.3       1 RES1    0.0000
     16 H3         5.7960    9.5070   11.4129 H         1 RES1    0.0000
     17 H4         6.9820    9.2731   10.3440 H         1 RES1    0.0000
     18 C6         5.7256    7.0609    9.2194 C.3       1 RES1    0.0000
     19 C7         6.1046    5.0167   10.8673 C.3       1 RES1    0.0000
     20 H5         6.0291    4.7768   11.8137 H         1 RES1    0.0000
     21 H6         7.0292    4.8893   10.5689 H         1 RES1    0.0000
     22 H7         5.5087    4.4483   10.3373 H         1 RES1    0.0000
     23 C8         7.1015    7.1314    8.5780 C.3       1 RES1    0.0000
     24 H8         7.0424    7.6188    7.7318 H         1 RES1    0.0000
     25 H9         7.4315    6.2240    8.4110 H         1 RES1    0.0000
     26 H10        7.7187    7.5978    9.1815 H         1 RES1    0.0000
     27 C9         4.7626    6.3545    8.2774 C.3       1 RES1    0.0000
     28 H11        4.6627    6.8809    7.4579 H         1 RES1    0.0000
     29 H12        3.8902    6.2585    8.7139 H         1 RES1    0.0000
     30 H13        5.1152    5.4667    8.0569 H         1 RES1    0.0000
     31 C10        4.6979    9.4261    8.7384 C.2       1 RES1    0.0000
     32 C11        5.5257   11.0263    7.1305 C.3       1 RES1    0.0000
     33 H14        4.5382   11.1478    7.0303 H         1 RES1    0.0000
     34 C12        6.1247   12.3326    7.6717 C.3       1 RES1    0.0000
     35 C13        5.9481   13.4469    6.6339 C.3       1 RES1    0.0000
     36 H15        6.4559   13.2235    5.8256 H         1 RES1    0.0000
     37 H16        6.2768   14.2928    7.0014 H         1 RES1    0.0000
     38 H17        4.9983   13.5354    6.4068 H         1 RES1    0.0000
     39 C14        7.6106   12.2141    8.0146 C.3       1 RES1    0.0000
     40 H18        7.7420   11.4777    8.6493 H         1 RES1    0.0000
     41 H19        7.9205   13.0525    8.4177 H         1 RES1    0.0000
     42 H20        8.1210   12.0372    7.1973 H         1 RES1    0.0000
     43 C15        5.3679   12.7151    8.9477 C.3       1 RES1    0.0000
     44 H21        5.5156   12.0312    9.6336 H         1 RES1    0.0000
     45 H22        4.4100   12.7810    8.7517 H         1 RES1    0.0000
     46 H23        5.6941   13.5804    9.2750 H         1 RES1    0.0000
     47 C16        6.0876   10.5359    5.8144 C.ar      1 RES1    0.0000
     48 C17        5.5074   10.7219    4.5429 C.ar      1 RES1    0.0000
     49 C18        6.0939   10.2269    3.3849 C.ar      1 RES1    0.0000
     50 H24        5.6614   10.3424    2.5453 H         1 RES1    0.0000
     51 C19        7.3007    9.5715    3.4517 C.ar      1 RES1    0.0000
     52 H25        7.7388    9.2761    2.6634 H         1 RES1    0.0000
     53 C20        7.8532    9.3586    4.6832 C.ar      1 RES1    0.0000
     54 C21        7.3278    9.8160    5.7810 C.ar      1 RES1    0.0000
     55 H26        7.7866    9.6660    6.6005 H         1 RES1    0.0000
     56 C22        9.4623    8.2142    5.8679 C.3       1 RES1    0.0000
     57 H27       10.2744    7.6863    5.7209 H         1 RES1    0.0000
     58 H28        8.7615    7.6398    6.2420 H         1 RES1    0.0000
     59 H29        9.6553    8.9431    6.4936 H         1 RES1    0.0000
     60 C23        9.4535    8.1647    3.5408 Du        2 SUP2    0.0000
     61 H30       10.2638    7.6383    3.7033 Du        2 SUP2    0.0000
     62 H31        9.6478    8.8666    2.8838 Du        2 SUP2    0.0000
     63 H32        8.7483    7.5798    3.1934 Du        2 SUP2    0.0000
@<TRIPOS>BOND
     1    1    9 1
     2    2   10 2
     3    3   31 2
     4    4   31 1
     5    5    8 2
     6    6    8 2
     7    7   53 1
     8    8   48 1
     9    9   15 1
    10   10    1 1
    11   11   10 1
    12   12   11 1
    13   13   12 1
    14   14   12 1
    15   15   12 1
    16   16   15 1
    17   17   15 1
    18   18    9 1
    19   19   11 1
    20   20   19 1
    21   21   19 1
    22   22   19 1
    23   23   18 1
    24   24   23 1
    25   25   23 1
    26   26   23 1
    27   27   18 1
    28   28   27 1
    29   29   27 1
    30   30   27 1
    31   31    9 1
    32   32    4 1
    33   33   32 1
    34   34   32 1
    35   35   34 1
    36   36   35 1
    37   37   35 1
    38   38   35 1
    39   39   34 1
    40   40   39 1
    41   41   39 1
    42   42   39 1
    43   43   34 1
    44   44   43 1
    45   45   43 1
    46   46   43 1
    47   47   32 1
    48   48   47 ar
    49   49   48 ar
    50   50   49 1
    51   51   49 ar
    52   52   51 1
    53   53   51 ar
    54   54   47 ar
    55   55   54 1
    56   56    7 1
    57   57   56 1
    58   58   56 1
    59   59   56 1
    60   11   18 1
    61   53   54 ar
@<TRIPOS>SUBSTRUCTURE
     1 RES1 1
     2 SUP2 60

@<TRIPOS>CRYSIN
   6.2856   14.9977   22.2690  90.0000  90.0000  90.0000  19 1

