# MOL2 file generated by ConQuest
# Please check atom types

@<TRIPOS>MOLECULE
SAQVIS01
    34    36     1
SMALL
NO_CHARGES
****
Generated from CSD

@<TRIPOS>ATOM
      1 O1         3.2531    3.5717   11.0171 O.3       1 RES1    0.0000
      2 C1         1.9157    3.9393   11.1058 C.2       1 RES1    0.0000
      3 N1         1.1385    3.4009   10.2117 N.2       1 RES1    0.0000
      4 C2         1.9968    2.5951    9.4531 C.ar      1 RES1    0.0000
      5 C3         1.7445    1.7653    8.3631 C.ar      1 RES1    0.0000
      6 H1         0.8773    1.6700    7.9870 H         1 RES1    0.0000
      7 C4         2.8493    1.0879    7.8656 C.ar      1 RES1    0.0000
      8 C5         4.1451    1.2145    8.3627 C.ar      1 RES1    0.0000
      9 H2         4.8574    0.7288    7.9648 H         1 RES1    0.0000
     10 C6         4.3922    2.0547    9.4439 C.ar      1 RES1    0.0000
     11 H3         5.2624    2.1706    9.8069 H         1 RES1    0.0000
     12 C7         3.2904    2.7083    9.9549 C.ar      1 RES1    0.0000
     13 N2         2.6397    0.1597    6.7478 N.pl3     1 RES1    0.0000
     14 O2         1.4969   -0.0068    6.3281 O.2       1 RES1    0.0000
     15 O3         3.6234   -0.4229    6.2842 O.2       1 RES1    0.0000
     16 C8         1.5787    4.8614   12.1702 C.ar      1 RES1    0.0000
     17 C9         2.5521    5.3293   13.0557 C.ar      1 RES1    0.0000
     18 H4         3.4490    5.0300   12.9607 H         1 RES1    0.0000
     19 C10        2.2390    6.2170   14.0659 C.ar      1 RES1    0.0000
     20 H5         2.9160    6.5013   14.6682 H         1 RES1    0.0000
     21 C11        0.9203    6.7077   14.2134 C.ar      1 RES1    0.0000
     22 C12       -0.0639    6.2096   13.3280 C.ar      1 RES1    0.0000
     23 H6        -0.9633    6.5023   13.4175 H         1 RES1    0.0000
     24 C13        0.2589    5.3030   12.3329 C.ar      1 RES1    0.0000
     25 H7        -0.4206    4.9770   11.7545 H         1 RES1    0.0000
     26 N3         0.6194    7.6457   15.1704 N.3       1 RES1    0.0000
     27 C14       -0.7695    8.0113   15.4232 C.3       1 RES1    0.0000
     28 H8        -1.1863    8.3093   14.5874 H         1 RES1    0.0000
     29 H9        -0.8017    8.7370   16.0806 H         1 RES1    0.0000
     30 H10       -1.2536    7.2335   15.7714 H         1 RES1    0.0000
     31 C15        1.5996    7.9732   16.1928 C.3       1 RES1    0.0000
     32 H11        1.8126    7.1687   16.7106 H         1 RES1    0.0000
     33 H12        1.2330    8.6587   16.7891 H         1 RES1    0.0000
     34 H13        2.4141    8.3123   15.7667 H         1 RES1    0.0000
@<TRIPOS>BOND
     1    1    2 1
     2    2    3 2
     3    3    4 1
     4    4    5 ar
     5    5    6 1
     6    7    5 ar
     7    8    7 ar
     8    9    8 1
     9   10    8 ar
    10   11   10 1
    11   12    1 1
    12   13    7 1
    13   14   13 2
    14   15   13 2
    15   16    2 1
    16   17   16 ar
    17   18   17 1
    18   19   17 ar
    19   20   19 1
    20   21   19 ar
    21   22   21 ar
    22   23   22 1
    23   24   16 ar
    24   25   24 1
    25   26   21 1
    26   27   26 1
    27   28   27 1
    28   29   27 1
    29   30   27 1
    30   31   26 1
    31   32   31 1
    32   33   31 1
    33   34   31 1
    34    4   12 ar
    35   10   12 ar
    36   22   24 ar
@<TRIPOS>SUBSTRUCTURE
     1 RES1 1

@<TRIPOS>CRYSIN
   6.3310    8.7110   12.0120  78.0530  83.5230  80.9680   2 1

