# MOL2 file generated by ConQuest
# Please check atom types

@<TRIPOS>MOLECULE
SAQVUE
    48    52     1
SMALL
NO_CHARGES
****
Generated from CSD

@<TRIPOS>ATOM
      1 O1         4.8794    1.4464    8.6839 O.3       1 RES1    0.0000
      2 C1         5.7039    0.7141    7.8413 C.2       1 RES1    0.0000
      3 N1         5.8224   -0.5479    8.1361 N.2       1 RES1    0.0000
      4 C2         5.0006   -0.7126    9.2574 C.ar      1 RES1    0.0000
      5 C3         4.6864   -1.8450    9.9981 C.ar      1 RES1    0.0000
      6 H1         5.0651   -2.6962    9.8108 H         1 RES1    0.0000
      7 C4         3.7788   -1.6481   11.0342 C.ar      1 RES1    0.0000
      8 N2         3.3415   -2.8194   11.8075 N.pl3     1 RES1    0.0000
      9 O2         3.7119   -3.9320   11.4205 O.2       1 RES1    0.0000
     10 O3         2.6175   -2.6465   12.7847 O.2       1 RES1    0.0000
     11 C5         3.2111   -0.4148   11.3641 C.ar      1 RES1    0.0000
     12 H2         2.6053   -0.3494   12.0921 H         1 RES1    0.0000
     13 C6         3.5350    0.7167   10.6225 C.ar      1 RES1    0.0000
     14 H3         3.1702    1.5716   10.8192 H         1 RES1    0.0000
     15 C7         4.4213    0.5167    9.5826 C.ar      1 RES1    0.0000
     16 C8         6.2948    1.4201    6.7147 C.ar      1 RES1    0.0000
     17 C9         6.1742    2.8065    6.5544 C.ar      1 RES1    0.0000
     18 H4         5.6906    3.3145    7.1956 H         1 RES1    0.0000
     19 C10        6.7544    3.4451    5.4673 C.ar      1 RES1    0.0000
     20 H5         6.6611    4.3852    5.3670 H         1 RES1    0.0000
     21 C11        7.4802    2.7079    4.5132 C.ar      1 RES1    0.0000
     22 C12        7.5795    1.3172    4.6707 C.ar      1 RES1    0.0000
     23 H6         8.0519    0.8048    4.0248 H         1 RES1    0.0000
     24 C13        6.9985    0.6829    5.7530 C.ar      1 RES1    0.0000
     25 H7         7.0769   -0.2594    5.8446 H         1 RES1    0.0000
     26 N3         8.1032    3.3422    3.4263 N.pl3     1 RES1    0.0000
     27 C14        9.2115    2.7402    2.7520 C.ar      1 RES1    0.0000
     28 C15        9.2592    2.7584    1.3564 C.ar      1 RES1    0.0000
     29 H8         8.5414    3.1349    0.8611 H         1 RES1    0.0000
     30 C16       10.3577    2.2253    0.6926 C.ar      1 RES1    0.0000
     31 H9        10.3945    2.2591   -0.2557 H         1 RES1    0.0000
     32 C17       11.4012    1.6438    1.3995 C.ar      1 RES1    0.0000
     33 H10       12.1479    1.2787    0.9392 H         1 RES1    0.0000
     34 C18       11.3427    1.6005    2.7902 C.ar      1 RES1    0.0000
     35 H11       12.0448    1.1880    3.2809 H         1 RES1    0.0000
     36 C19       10.2616    2.1576    3.4664 C.ar      1 RES1    0.0000
     37 H12       10.2372    2.1420    4.4154 H         1 RES1    0.0000
     38 C20        7.6373    4.5968    2.9264 C.ar      1 RES1    0.0000
     39 C21        6.2868    4.8142    2.6657 C.ar      1 RES1    0.0000
     40 H13        5.6487    4.1363    2.8548 H         1 RES1    0.0000
     41 C22        5.8761    6.0316    2.1258 C.ar      1 RES1    0.0000
     42 H14        4.9525    6.1906    1.9707 H         1 RES1    0.0000
     43 C23        6.8067    7.0149    1.8118 C.ar      1 RES1    0.0000
     44 H15        6.5246    7.8307    1.4150 H         1 RES1    0.0000
     45 C24        8.1492    6.7983    2.0804 C.ar      1 RES1    0.0000
     46 H16        8.7871    7.4710    1.8713 H         1 RES1    0.0000
     47 C25        8.5663    5.6035    2.6530 C.ar      1 RES1    0.0000
     48 H17        9.4839    5.4708    2.8584 H         1 RES1    0.0000
@<TRIPOS>BOND
     1    1    2 1
     2    2    3 2
     3    3    4 1
     4    4    5 ar
     5    5    6 1
     6    7    5 ar
     7    8    7 1
     8    9    8 2
     9   10    8 2
    10   11    7 ar
    11   12   11 1
    12   13   11 ar
    13   14   13 1
    14   15    1 1
    15   16    2 1
    16   17   16 ar
    17   18   17 1
    18   19   17 ar
    19   20   19 1
    20   21   19 ar
    21   22   21 ar
    22   23   22 1
    23   24   16 ar
    24   25   24 1
    25   26   21 1
    26   27   26 1
    27   28   27 ar
    28   29   28 1
    29   30   28 ar
    30   31   30 1
    31   32   30 ar
    32   33   32 1
    33   34   32 ar
    34   35   34 1
    35   36   27 ar
    36   37   36 1
    37   38   26 1
    38   39   38 ar
    39   40   39 1
    40   41   39 ar
    41   42   41 1
    42   43   41 ar
    43   44   43 1
    44   45   43 ar
    45   46   45 1
    46   47   38 ar
    47   48   47 1
    48    4   15 ar
    49   13   15 ar
    50   22   24 ar
    51   34   36 ar
    52   45   47 ar
@<TRIPOS>SUBSTRUCTURE
     1 RES1 1

@<TRIPOS>CRYSIN
   7.0786    7.8200   18.1392 101.7040  90.8610  94.1500   2 1

