# MOL2 file generated by ConQuest
# Please check atom types

@<TRIPOS>MOLECULE
SAQZAK
    14    14     1
SMALL
NO_CHARGES
****
Generated from CSD

@<TRIPOS>ATOM
      1 N1         6.5194    0.4894    1.2717 N.3       1 RES1    0.0000
      2 N2         5.5310   -0.3617    1.4936 N.2       1 RES1    0.0000
      3 C1         5.9944   -0.9787    2.5521 C.2       1 RES1    0.0000
      4 N3         7.1902   -0.5489    2.9722 N.2       1 RES1    0.0000
      5 N4         7.5185    0.4012    2.1452 N.2       1 RES1    0.0000
      6 N5         5.2728   -2.0300    3.2243 N.pl3     1 RES1    0.0000
      7 O1         4.1849   -2.3383    2.7774 O.2       1 RES1    0.0000
      8 O2         5.8164   -2.5270    4.1932 O.2       1 RES1    0.0000
      9 C2         6.5231    1.4591    0.2209 C.3       1 RES1    0.0000
     10 H1         7.4411    1.5988   -0.0809 H         1 RES1    0.0000
     11 H2         5.9148    1.2107   -0.4672 H         1 RES1    0.0000
     12 N6         6.0282    2.7797    0.7399 N.pl3     1 RES1    0.0000
     13 O3         5.5899    2.8415    1.8588 O.2       1 RES1    0.0000
     14 O4         6.1272    3.7098   -0.0429 O.2       1 RES1    0.0000
@<TRIPOS>BOND
     1    1    2 1
     2    2    3 2
     3    3    4 1
     4    4    5 2
     5    5    1 1
     6    6    3 1
     7    7    6 2
     8    8    6 2
     9    9    1 1
    10   10    9 1
    11   11    9 1
    12   12    9 1
    13   13   12 2
    14   14   12 2
@<TRIPOS>SUBSTRUCTURE
     1 RES1 1

@<TRIPOS>CRYSIN
   9.2130    7.7610   10.1800  90.0000 118.0400  90.0000  14 1

