# MOL2 file generated by ConQuest
# Please check atom types

@<TRIPOS>MOLECULE
SARXOA
    86    90     1
SMALL
NO_CHARGES
****
Generated from CSD

@<TRIPOS>ATOM
      1 O1         9.6822    7.6855    4.1479 O.2       1 RES1    0.0000
      2 O2         7.4646    4.6700    1.5140 O.2       1 RES1    0.0000
      3 O3         5.6847    7.1292    2.1809 O.3       1 RES1    0.0000
      4 O4         4.8838    5.7924    0.5394 O.2       1 RES1    0.0000
      5 O5         2.9630    2.9012    6.8818 O.2       1 RES1    0.0000
      6 O6         2.7399    1.3682    5.3650 O.2       1 RES1    0.0000
      7 O7         2.4885    8.6874    1.8874 O.3       1 RES1    0.0000
      8 O8         1.7832    8.4900   -0.1887 O.2       1 RES1    0.0000
      9 O9         5.3093    9.2349   -1.6721 O.2       1 RES1    0.0000
     10 O10        2.3169    5.4123   -6.3219 O.2       1 RES1    0.0000
     11 O11        1.8039    3.9808   -4.7891 O.2       1 RES1    0.0000
     12 N1         8.4652    6.4360    2.6103 N.am      1 RES1    0.0000
     13 N2         8.5579    7.3267    1.5313 N.3       1 RES1    0.0000
     14 H1         8.4952    6.8268    0.7842 H         1 RES1    0.0000
     15 N3         3.0706    2.4947    5.7229 N.pl3     1 RES1    0.0000
     16 N4         4.0284    8.7528    0.1296 N.am      1 RES1    0.0000
     17 N5         2.2183    5.0732   -5.1459 N.pl3     1 RES1    0.0000
     18 C1         9.1005    6.6707    3.8424 C.2       1 RES1    0.0000
     19 C2         8.8844    5.4405    4.6412 C.ar      1 RES1    0.0000
     20 C3         9.2568    5.1350    5.9412 C.ar      1 RES1    0.0000
     21 H2         9.6795    5.7795    6.4962 H         1 RES1    0.0000
     22 C4         8.9902    3.8532    6.4031 C.ar      1 RES1    0.0000
     23 H3         9.2312    3.6159    7.2902 H         1 RES1    0.0000
     24 C5         8.3739    2.9122    5.5859 C.ar      1 RES1    0.0000
     25 H4         8.2146    2.0382    5.9216 H         1 RES1    0.0000
     26 C6         7.9871    3.2257    4.2810 C.ar      1 RES1    0.0000
     27 H5         7.5629    2.5851    3.7235 H         1 RES1    0.0000
     28 C7         8.2462    4.5053    3.8375 C.ar      1 RES1    0.0000
     29 C8         7.9785    5.1373    2.5117 C.2       1 RES1    0.0000
     30 C9         7.6158    8.4588    1.5459 C.3       1 RES1    0.0000
     31 H6         7.6176    8.8666    2.4591 H         1 RES1    0.0000
     32 C10        8.1546    9.4948    0.5379 C.3       1 RES1    0.0000
     33 H7         8.0217    9.1461   -0.3786 H         1 RES1    0.0000
     34 H8         7.6237   10.3269    0.6236 H         1 RES1    0.0000
     35 C11        9.6259    9.8346    0.7217 C.3       1 RES1    0.0000
     36 H9         9.8978   10.4761    0.0184 H         1 RES1    0.0000
     37 H10       10.1630    9.0113    0.6028 H         1 RES1    0.0000
     38 C12        9.9430   10.4358    2.0841 C.3       1 RES1    0.0000
     39 H11        9.3649   11.2273    2.2275 H         1 RES1    0.0000
     40 H12        9.7245    9.7720    2.7862 H         1 RES1    0.0000
     41 C13       11.3922   10.8515    2.2361 C.3       1 RES1    0.0000
     42 H13       11.5462   11.6813    1.7190 H         1 RES1    0.0000
     43 H14       11.9732   10.1450    1.8575 H         1 RES1    0.0000
     44 C14       11.7782   11.0901    3.6855 C.3       1 RES1    0.0000
     45 H15       12.6952   11.4338    3.7272 H         1 RES1    0.0000
     46 H16       11.7239   10.2469    4.1818 H         1 RES1    0.0000
     47 H17       11.1652   11.7429    4.0837 H         1 RES1    0.0000
     48 C15        6.1721    8.0790    1.1748 C.3       1 RES1    0.0000
     49 H18        6.2128    7.5888    0.3039 H         1 RES1    0.0000
     50 C16        5.0586    6.0284    1.7122 C.2       1 RES1    0.0000
     51 C17        4.5800    5.1333    2.8097 C.ar      1 RES1    0.0000
     52 C18        3.9807    3.9328    2.4162 C.ar      1 RES1    0.0000
     53 H19        3.8972    3.7208    1.4936 H         1 RES1    0.0000
     54 C19        3.5101    3.0589    3.3731 C.ar      1 RES1    0.0000
     55 H20        3.1124    2.2337    3.1207 H         1 RES1    0.0000
     56 C20        3.6276    3.4046    4.7063 C.ar      1 RES1    0.0000
     57 C21        4.1979    4.5913    5.1276 C.ar      1 RES1    0.0000
     58 H21        4.2518    4.8083    6.0515 H         1 RES1    0.0000
     59 C22        4.6907    5.4555    4.1596 C.ar      1 RES1    0.0000
     60 H22        5.1059    6.2699    4.4194 H         1 RES1    0.0000
     61 C23        5.1499    9.2374    0.9998 C.3       1 RES1    0.0000
     62 H23        5.6209    9.9452    0.4742 H         1 RES1    0.0000
     63 C24        4.5660    9.9448    2.2397 C.3       1 RES1    0.0000
     64 C25        5.6204   10.2351    3.3166 C.3       1 RES1    0.0000
     65 H24        5.9606    9.3893    3.6770 H         1 RES1    0.0000
     66 H25        5.2140   10.7587    4.0384 H         1 RES1    0.0000
     67 H26        6.3594   10.7422    2.9210 H         1 RES1    0.0000
     68 C26        3.9333   11.2821    1.8072 C.3       1 RES1    0.0000
     69 H27        4.6194   11.8527    1.4029 H         1 RES1    0.0000
     70 H28        3.5537   11.7318    2.5914 H         1 RES1    0.0000
     71 H29        3.2228   11.1103    1.1542 H         1 RES1    0.0000
     72 C27        3.5004    9.0658    2.8589 C.3       1 RES1    0.0000
     73 H30        3.9233    8.2495    3.2261 H         1 RES1    0.0000
     74 H31        3.0707    9.5501    3.6071 H         1 RES1    0.0000
     75 C28        2.7164    8.6356    0.5668 C.2       1 RES1    0.0000
     76 C29        4.3328    8.6607   -1.2494 C.2       1 RES1    0.0000
     77 C30        3.5614    7.7729   -2.1891 C.ar      1 RES1    0.0000
     78 C31        3.4888    8.1756   -3.5253 C.ar      1 RES1    0.0000
     79 H32        3.7717    9.0486   -3.7701 H         1 RES1    0.0000
     80 C32        3.0083    7.3115   -4.4968 C.ar      1 RES1    0.0000
     81 H33        2.9419    7.5838   -5.4045 H         1 RES1    0.0000
     82 C33        2.6258    6.0380   -4.1057 C.ar      1 RES1    0.0000
     83 C34        2.6674    5.6159   -2.7838 C.ar      1 RES1    0.0000
     84 H34        2.3868    4.7402   -2.5448 H         1 RES1    0.0000
     85 C35        3.1264    6.4998   -1.8207 C.ar      1 RES1    0.0000
     86 H35        3.1460    6.2391   -0.9079 H         1 RES1    0.0000
@<TRIPOS>BOND
     1    1   18 2
     2    2   29 2
     3    3   48 1
     4    4   50 2
     5    5   15 2
     6    6   15 2
     7    7   72 1
     8    8   75 2
     9    9   76 2
    10   10   17 2
    11   11   17 2
    12   12   13 1
    13   13   14 1
    14   15   56 1
    15   16   61 1
    16   17   82 1
    17   18   12 1
    18   19   18 1
    19   20   19 ar
    20   21   20 1
    21   22   20 ar
    22   23   22 1
    23   24   22 ar
    24   25   24 1
    25   26   24 ar
    26   27   26 1
    27   28   19 ar
    28   29   12 1
    29   30   13 1
    30   31   30 1
    31   32   30 1
    32   33   32 1
    33   34   32 1
    34   35   32 1
    35   36   35 1
    36   37   35 1
    37   38   35 1
    38   39   38 1
    39   40   38 1
    40   41   38 1
    41   42   41 1
    42   43   41 1
    43   44   41 1
    44   45   44 1
    45   46   44 1
    46   47   44 1
    47   48   30 1
    48   49   48 1
    49   50    3 1
    50   51   50 1
    51   52   51 ar
    52   53   52 1
    53   54   52 ar
    54   55   54 1
    55   56   54 ar
    56   57   56 ar
    57   58   57 1
    58   59   51 ar
    59   60   59 1
    60   61   48 1
    61   62   61 1
    62   63   61 1
    63   64   63 1
    64   65   64 1
    65   66   64 1
    66   67   64 1
    67   68   63 1
    68   69   68 1
    69   70   68 1
    70   71   68 1
    71   72   63 1
    72   73   72 1
    73   74   72 1
    74   75    7 1
    75   76   16 1
    76   77   76 1
    77   78   77 ar
    78   79   78 1
    79   80   78 ar
    80   81   80 1
    81   82   80 ar
    82   83   82 ar
    83   84   83 1
    84   85   77 ar
    85   86   85 1
    86   16   75 1
    87   26   28 ar
    88   28   29 1
    89   57   59 ar
    90   83   85 ar
@<TRIPOS>SUBSTRUCTURE
     1 RES1 1

@<TRIPOS>CRYSIN
  11.5843   12.0276   12.9101  73.1250  78.4280  73.3530   2 1

