# MOL2 file generated by ConQuest
# Please check atom types

@<TRIPOS>MOLECULE
SASRAF01
    63    60     2
SMALL
NO_CHARGES
****
Generated from CSD

@<TRIPOS>ATOM
      1 O1         7.6643   -0.7063    5.5387 O.2       1 RES1    0.0000
      2 O2         9.8090   -0.6007    5.4316 O.2       1 RES1    0.0000
      3 O3         8.4207    5.4462    4.9148 O.3       1 RES1    0.0000
      4 O4         2.5085    1.8220   10.0170 O.2       1 RES1    0.0000
      5 O5         2.2284    1.6470    7.8777 O.2       1 RES1    0.0000
      6 O6         7.3507    5.1392    7.9622 O.3       1 RES1    0.0000
      7 N1         8.7151   -0.0660    5.4666 N.pl3     1 RES1    0.0000
      8 N2         2.8388    2.0530    8.8784 N.pl3     1 RES1    0.0000
      9 C1         8.6265    1.3962    5.4275 C.ar      1 RES1    0.0000
     10 C2         9.8281    2.0992    5.1763 C.ar      1 RES1    0.0000
     11 C3         9.7396    3.4855    5.0446 C.ar      1 RES1    0.0000
     12 C4         8.5021    4.0863    5.1022 C.ar      1 RES1    0.0000
     13 C5         7.3507    3.3898    5.4008 C.ar      1 RES1    0.0000
     14 C6         7.3914    2.0002    5.5284 C.ar      1 RES1    0.0000
     15 C7         8.2268    5.8356    3.5229 C.3       1 RES1    0.0000
     16 C8         7.7074    7.3342    3.5991 C.3       1 RES1    0.0000
     17 C9         6.6973    7.6807    3.2326 C.3       1 RES1    0.0000
     18 C10        5.9984    4.1028    5.6231 C.3       1 RES1    0.0000
     19 C11        4.0739    2.8188    8.6210 C.ar      1 RES1    0.0000
     20 C12        4.3587    3.0763    7.2930 C.ar      1 RES1    0.0000
     21 C13        5.5388    3.8552    7.0562 C.ar      1 RES1    0.0000
     22 C14        6.2712    4.3503    8.1701 C.ar      1 RES1    0.0000
     23 C15        5.9840    3.9542    9.4632 C.ar      1 RES1    0.0000
     24 C16        4.8494    3.1720    9.7164 C.ar      1 RES1    0.0000
     25 C17        7.0755    6.5090    7.4886 C.3       1 RES1    0.0000
     26 C18        6.9462    7.4431    8.6952 C.3       1 RES1    0.0000
     27 C19        6.6446    8.8393    7.9992 C.3       1 RES1    0.0000
     28 C20       11.0249    4.2909    4.8551 C.3       1 RES1    0.0000
     29 C21        6.6781    9.1429    8.4213 Du        2 SUP2    0.0000
     30 C22        2.4319    3.1192    3.0885 Du        2 SUP2    0.0000
     31 C23        2.9920    4.1259   12.9717 Du        2 SUP2    0.0000
     32 C24        1.6995   -1.9804    3.3150 Du        2 SUP2    0.0000
     33 C25        2.0609    3.3271    2.4708 Du        2 SUP2    0.0000
     34 C26        1.7473    3.7100   12.7040 Du        2 SUP2    0.0000
     35 C27        1.4840    3.8948    2.5120 Du        2 SUP2    0.0000
     36 C20K       6.9271    4.2909   10.5874 C.3       1 RES1    0.0000
     37 C3K        8.2124    3.4855   10.3979 C.ar      1 RES1    0.0000
     38 C2K        8.1239    2.0992   10.2662 C.ar      1 RES1    0.0000
     39 C1K        9.3255    1.3962   10.0150 C.ar      1 RES1    0.0000
     40 N1K        9.2369   -0.0660    9.9759 N.pl3     1 RES1    0.0000
     41 O1K       10.2877   -0.7063    9.9038 O.2       1 RES1    0.0000
     42 O2K        8.1430   -0.6007   10.0109 O.2       1 RES1    0.0000
     43 C6K       10.5606    2.0002    9.9141 C.ar      1 RES1    0.0000
     44 C5K       10.6013    3.3898   10.0417 C.ar      1 RES1    0.0000
     45 C4K        9.4499    4.0863   10.3403 C.ar      1 RES1    0.0000
     46 O3K        9.5313    5.4462   10.5277 O.3       1 RES1    0.0000
     47 C7K        9.7252    5.8356   11.9196 C.3       1 RES1    0.0000
     48 C8K       10.2446    7.3342   11.8434 C.3       1 RES1    0.0000
     49 C9K       11.2547    7.6807   12.2099 C.3       1 RES1    0.0000
     50 C10K      11.9536    4.1028    9.8194 C.3       1 RES1    0.0000
     51 C13K      12.4132    3.8552    8.3863 C.ar      1 RES1    0.0000
     52 C12K      13.5933    3.0763    8.1495 C.ar      1 RES1    0.0000
     53 C11K      13.8781    2.8188    6.8215 C.ar      1 RES1    0.0000
     54 N2K       15.1132    2.0530    6.5641 N.pl3     1 RES1    0.0000
     55 O4K       15.4435    1.8220    5.4255 O.2       1 RES1    0.0000
     56 O5K       15.7236    1.6470    7.5648 O.2       1 RES1    0.0000
     57 C16K      13.1026    3.1720    5.7261 C.ar      1 RES1    0.0000
     58 C15K      11.9680    3.9542    5.9793 C.ar      1 RES1    0.0000
     59 C14K      11.6808    4.3503    7.2724 C.ar      1 RES1    0.0000
     60 O6K       10.6013    5.1392    7.4803 O.3       1 RES1    0.0000
     61 C17K      10.8765    6.5090    7.9539 C.3       1 RES1    0.0000
     62 C18K      11.0058    7.4431    6.7473 C.3       1 RES1    0.0000
     63 C19K      11.3074    8.8393    7.4433 C.3       1 RES1    0.0000
@<TRIPOS>BOND
     1    1    7 2
     2    2    7 2
     3    3   12 1
     4    4    8 2
     5    5    8 2
     6    6   22 1
     7    7    9 1
     8    8   19 1
     9    9   10 ar
    10   10   11 ar
    11   11   12 ar
    12   12   13 ar
    13   13   14 ar
    14   14    9 ar
    15   15    3 1
    16   16   15 1
    17   17   16 1
    18   18   13 1
    19   19   20 ar
    20   20   21 ar
    21   21   18 1
    22   22   21 ar
    23   23   22 ar
    24   24   19 ar
    25   25    6 1
    26   26   25 1
    27   27   26 1
    28   28   11 1
    29   36   23 1
    30   37   36 1
    31   38   37 ar
    32   39   38 ar
    33   40   39 1
    34   41   40 2
    35   42   40 2
    36   43   39 ar
    37   44   43 ar
    38   45   37 ar
    39   46   45 1
    40   47   46 1
    41   48   47 1
    42   49   48 1
    43   50   44 1
    44   51   50 1
    45   52   51 ar
    46   53   52 ar
    47   54   53 1
    48   55   54 2
    49   56   54 2
    50   57   53 ar
    51   58   28 1
    52   59   51 ar
    53   60   59 1
    54   61   60 1
    55   62   61 1
    56   63   62 1
    57   23   24 ar
    58   44   45 ar
    59   57   58 ar
    60   58   59 ar
@<TRIPOS>SUBSTRUCTURE
     1 RES1 1
     2 SUP2 29

@<TRIPOS>CRYSIN
  23.9360   33.0070   20.5900  90.0000  90.0000  90.0000  70 1

