# MOL2 file generated by ConQuest
# Please check atom types

@<TRIPOS>MOLECULE
SASWAN
    45    47     1
SMALL
NO_CHARGES
****
Generated from CSD

@<TRIPOS>ATOM
      1 N1         8.3931    5.1704   -2.3172 N.3       1 RES1    0.0000
      2 C1         8.7692    4.2623   -3.2914 C.ar      1 RES1    0.0000
      3 C2         8.0192    3.7513   -4.3540 C.ar      1 RES1    0.0000
      4 H1         7.1279    4.0397   -4.5114 H         1 RES1    0.0000
      5 C3         8.6242    2.8077   -5.1705 C.ar      1 RES1    0.0000
      6 H2         8.1367    2.4400   -5.8983 H         1 RES1    0.0000
      7 C4         9.9409    2.3857   -4.9420 C.ar      1 RES1    0.0000
      8 H3        10.3222    1.7255   -5.5089 H         1 RES1    0.0000
      9 C5        10.7005    2.9106   -3.9065 C.ar      1 RES1    0.0000
     10 H4        11.5956    2.6260   -3.7657 H         1 RES1    0.0000
     11 C6        10.1127    3.8707   -3.0746 C.ar      1 RES1    0.0000
     12 C7        10.5806    4.6281   -1.9419 C.ar      1 RES1    0.0000
     13 C8        11.8078    4.7046   -1.2781 C.ar      1 RES1    0.0000
     14 H5        12.5513    4.1904   -1.5702 H         1 RES1    0.0000
     15 C9        11.9151    5.5482   -0.1839 C.ar      1 RES1    0.0000
     16 C10       10.8102    6.2777    0.2870 C.ar      1 RES1    0.0000
     17 H6        10.8983    6.8177    1.0636 H         1 RES1    0.0000
     18 C11        9.5907    6.2153   -0.3739 C.ar      1 RES1    0.0000
     19 H7         8.8434    6.7119   -0.0616 H         1 RES1    0.0000
     20 C12        9.4873    5.4094   -1.5040 C.ar      1 RES1    0.0000
     21 C13        7.1325    5.8967   -2.2960 C.3       1 RES1    0.0000
     22 H8         6.9671    6.2339   -1.3800 H         1 RES1    0.0000
     23 H9         6.3965    5.2772   -2.5294 H         1 RES1    0.0000
     24 C14        7.1275    7.0631   -3.2639 C.3       1 RES1    0.0000
     25 H10        7.3144    6.7372   -4.1690 H         1 RES1    0.0000
     26 H11        7.8150    7.7093   -3.0006 H         1 RES1    0.0000
     27 H12        6.2483    7.4965   -3.2481 H         1 RES1    0.0000
     28 N2        13.1763    5.5937    0.4761 N.pl3     1 RES1    0.0000
     29 H13       13.7862    5.0144    0.2178 H         1 RES1    0.0000
     30 C15       13.5096    6.4299    1.4417 C.2       1 RES1    0.0000
     31 H14       12.8644    7.0983    1.6402 H         1 RES1    0.0000
     32 C16       14.6679    6.4751    2.2114 C.2       1 RES1    0.0000
     33 N3        15.6842    5.5210    2.0195 N.pl3     1 RES1    0.0000
     34 O1        15.5969    4.7642    1.0168 O.2       1 RES1    0.0000
     35 O2        16.6192    5.4051    2.8142 O.2       1 RES1    0.0000
     36 C17       14.8226    7.4859    3.2829 C.2       1 RES1    0.0000
     37 O3        13.6942    8.2247    3.3914 O.3       1 RES1    0.0000
     38 O4        15.7964    7.6590    3.9631 O.2       1 RES1    0.0000
     39 C18       13.7317    9.2953    4.3756 C.3       1 RES1    0.0000
     40 H15       13.1460   10.0360    4.0773 H         1 RES1    0.0000
     41 H16       14.6549    9.6447    4.4461 H         1 RES1    0.0000
     42 C19       13.2770    8.8133    5.7229 C.3       1 RES1    0.0000
     43 H17       13.9000    8.1328    6.0535 H         1 RES1    0.0000
     44 H18       12.3804    8.4251    5.6457 H         1 RES1    0.0000
     45 H19       13.2539    9.5669    6.3488 H         1 RES1    0.0000
@<TRIPOS>BOND
     1    1    2 1
     2    2    3 ar
     3    3    4 1
     4    5    3 ar
     5    6    5 1
     6    7    5 ar
     7    8    7 1
     8    9    7 ar
     9   10    9 1
    10   11    2 ar
    11   12   11 1
    12   13   12 ar
    13   14   13 1
    14   15   13 ar
    15   16   15 ar
    16   17   16 1
    17   18   16 ar
    18   19   18 1
    19   20    1 1
    20   21    1 1
    21   22   21 1
    22   23   21 1
    23   24   21 1
    24   25   24 1
    25   26   24 1
    26   27   24 1
    27   28   15 1
    28   29   28 1
    29   30   28 1
    30   31   30 1
    31   32   30 2
    32   33   32 1
    33   34   33 2
    34   35   33 2
    35   36   32 1
    36   37   36 1
    37   38   36 2
    38   39   37 1
    39   40   39 1
    40   41   39 1
    41   42   39 1
    42   43   42 1
    43   44   42 1
    44   45   42 1
    45    9   11 ar
    46   12   20 ar
    47   18   20 ar
@<TRIPOS>SUBSTRUCTURE
     1 RES1 1

@<TRIPOS>CRYSIN
   8.7617    8.8742   12.8040  87.0200  71.1070  61.2570   2 1

