# MOL2 file generated by ConQuest
# Please check atom types

@<TRIPOS>MOLECULE
SATFAV
    48    51     1
SMALL
NO_CHARGES
****
Generated from CSD

@<TRIPOS>ATOM
      1 O1         2.2290    4.9561    6.9367 O.2       1 RES1    0.0000
      2 O2         0.1256    4.4891    7.1103 O.2       1 RES1    0.0000
      3 N1         0.5941    4.2809   -2.4162 N.pl3     1 RES1    0.0000
      4 N2         0.5366    5.5295   -1.8534 N.2       1 RES1    0.0000
      5 N3         0.9272    2.0258   -1.7047 N.ar      1 RES1    0.0000
      6 N4         1.1590    4.5993    6.4580 N.pl3     1 RES1    0.0000
      7 C1         0.6993    5.4015   -0.5430 C.2       1 RES1    0.0000
      8 C2         0.8700    4.0040   -0.2055 C.ar      1 RES1    0.0000
      9 C3         1.0357    3.1706    0.9254 C.ar      1 RES1    0.0000
     10 C4         1.1481    1.8089    0.6870 C.ar      1 RES1    0.0000
     11 C5         1.0972    1.2917   -0.6066 C.ar      1 RES1    0.0000
     12 C6         0.8097    3.3375   -1.4565 C.ar      1 RES1    0.0000
     13 C7         0.3903    4.1473   -3.8193 C.ar      1 RES1    0.0000
     14 C8         0.6616    5.2349   -4.6398 C.ar      1 RES1    0.0000
     15 C9         0.4433    5.1208   -6.0047 C.ar      1 RES1    0.0000
     16 C10       -0.0438    3.9534   -6.5553 C.ar      1 RES1    0.0000
     17 C11       -0.3203    2.8813   -5.7226 C.ar      1 RES1    0.0000
     18 C12       -0.1111    2.9641   -4.3566 C.ar      1 RES1    0.0000
     19 C13        0.6534    6.6751    0.2848 C.3       1 RES1    0.0000
     20 C14        0.5932    7.8899   -0.6430 C.3       1 RES1    0.0000
     21 C15       -0.6227    6.6831    1.1371 C.3       1 RES1    0.0000
     22 C16        1.8925    6.8004    1.1656 C.3       1 RES1    0.0000
     23 C17        1.0688    3.6064    2.3516 C.ar      1 RES1    0.0000
     24 C18       -0.1207    3.7412    3.0725 C.ar      1 RES1    0.0000
     25 C19       -0.1002    4.0647    4.4170 C.ar      1 RES1    0.0000
     26 C20        1.1170    4.2585    5.0302 C.ar      1 RES1    0.0000
     27 C21        2.3122    4.1292    4.3529 C.ar      1 RES1    0.0000
     28 C22        2.2824    3.7881    3.0106 C.ar      1 RES1    0.0000
     29 H1         1.2611    1.2169    1.4204 H         1 RES1    0.0000
     30 H2         1.1913    0.3523   -0.7118 H         1 RES1    0.0000
     31 H3         0.9925    6.0457   -4.2707 H         1 RES1    0.0000
     32 H4         0.6326    5.8601   -6.5703 H         1 RES1    0.0000
     33 H5        -0.1879    3.8854   -7.4916 H         1 RES1    0.0000
     34 H6        -0.6592    2.0758   -6.0954 H         1 RES1    0.0000
     35 H7        -0.3061    2.2250   -3.7937 H         1 RES1    0.0000
     36 H8         0.5424    8.7087   -0.1063 H         1 RES1    0.0000
     37 H9        -0.2000    7.8250   -1.2151 H         1 RES1    0.0000
     38 H10        1.3974    7.9148   -1.2014 H         1 RES1    0.0000
     39 H11       -1.4067    6.6293    0.5517 H         1 RES1    0.0000
     40 H12       -0.6605    7.5102    1.6605 H         1 RES1    0.0000
     41 H13       -0.6147    5.9130    1.7437 H         1 RES1    0.0000
     42 H14        1.8737    7.6607    1.6352 H         1 RES1    0.0000
     43 H15        2.6966    6.7504    0.6075 H         1 RES1    0.0000
     44 H16        1.9031    6.0713    1.8205 H         1 RES1    0.0000
     45 H17       -0.9522    3.6097    2.6334 H         1 RES1    0.0000
     46 H18       -0.9094    4.1511    4.9067 H         1 RES1    0.0000
     47 H19        3.1400    4.2703    4.7982 H         1 RES1    0.0000
     48 H20        3.0972    3.6760    2.5355 H         1 RES1    0.0000
@<TRIPOS>BOND
     1    1    6 2
     2    2    6 2
     3    3    4 1
     4    4    7 2
     5    5   11 ar
     6    6   26 1
     7    7    8 1
     8    8    9 ar
     9    9   10 ar
    10   10   11 ar
    11   11   30 1
    12   12    3 1
    13   13    3 1
    14   14   13 ar
    15   15   14 ar
    16   16   15 ar
    17   17   16 ar
    18   18   13 ar
    19   19    7 1
    20   20   19 1
    21   21   19 1
    22   22   19 1
    23   23    9 1
    24   24   23 ar
    25   25   24 ar
    26   26   25 ar
    27   27   26 ar
    28   28   23 ar
    29   29   10 1
    30   31   14 1
    31   32   15 1
    32   33   16 1
    33   34   17 1
    34   35   18 1
    35   36   20 1
    36   37   20 1
    37   38   20 1
    38   39   21 1
    39   40   21 1
    40   41   21 1
    41   42   22 1
    42   43   22 1
    43   44   22 1
    44   45   24 1
    45   46   25 1
    46   47   27 1
    47   48   28 1
    48    5   12 ar
    49    8   12 ar
    50   17   18 ar
    51   27   28 ar
@<TRIPOS>SUBSTRUCTURE
     1 RES1 1

@<TRIPOS>CRYSIN
   9.5877    9.8541   11.7050 105.9820 103.5700 108.4330   2 1

