# MOL2 file generated by ConQuest
# Please check atom types

@<TRIPOS>MOLECULE
SATGAV01
    28    31     1
SMALL
NO_CHARGES
****
Generated from CSD

@<TRIPOS>ATOM
      1 C1        -5.7018   -3.2112   -9.9869 C.3       1 RES1    0.0000
      2 C2        -4.6860   -2.2741  -10.6359 C.3       1 RES1    0.0000
      3 C3        -4.0284   -2.9060  -11.8244 C.2       1 RES1    0.0000
      4 C4        -3.4932   -4.3123  -11.6358 C.3       1 RES1    0.0000
      5 C5        -4.4573   -5.2129  -10.8529 C.3       1 RES1    0.0000
      6 C6        -3.7655   -6.5322  -10.5324 C.3       1 RES1    0.0000
      7 C7        -2.7308   -6.4073   -9.4027 C.3       1 RES1    0.0000
      8 C8        -3.3111   -5.7527   -8.1736 C.3       1 RES1    0.0000
      9 C9        -3.9723   -4.4258   -8.5164 C.3       1 RES1    0.0000
     10 C10       -5.0595   -4.5759   -9.6177 C.3       1 RES1    0.0000
     11 C11       -4.4646   -3.6741   -7.2589 C.3       1 RES1    0.0000
     12 C12       -3.3810   -3.5127   -6.1962 C.3       1 RES1    0.0000
     13 C13       -2.7271   -4.8471   -5.8027 C.3       1 RES1    0.0000
     14 C14       -2.2370   -5.4891   -7.1230 C.3       1 RES1    0.0000
     15 C15       -1.3829   -6.6457   -6.6424 C.3       1 RES1    0.0000
     16 C16       -0.7777   -6.1727   -5.3179 C.3       1 RES1    0.0000
     17 C17       -1.4134   -4.7941   -5.0198 C.3       1 RES1    0.0000
     18 C18       -3.7728   -5.7426   -5.0948 C.3       1 RES1    0.0000
     19 C19       -6.2043   -5.4185   -9.1107 C.3       1 RES1    0.0000
     20 C20       -1.3967   -4.4523   -3.5352 C.3       1 RES1    0.0000
     21 C21       -2.2006   -3.2465   -3.1741 C.3       1 RES1    0.0000
     22 C22        0.0291   -4.2530   -3.0626 C.3       1 RES1    0.0000
     23 C23        0.2388   -4.2379   -1.5495 C.3       1 RES1    0.0000
     24 C24        1.5474   -3.6186   -1.1520 C.2       1 RES1    0.0000
     25 N1        -4.0197   -2.2526  -12.9115 N.2       1 RES1    0.0000
     26 O1        -3.4291   -2.9224  -13.9743 O.3       1 RES1    0.0000
     27 O2         2.2683   -2.9476   -1.8599 O.co2     1 RES1    0.0000
     28 O3         1.8431   -3.9163    0.1055 O.co2     1 RES1    0.0000
@<TRIPOS>BOND
     1    1    2 1
     2    2    3 1
     3    3    4 1
     4    4    5 1
     5    5    6 1
     6    6    7 1
     7    7    8 1
     8    8    9 1
     9    9   10 1
    10   10    1 1
    11   11    9 1
    12   12   11 1
    13   13   12 1
    14   14    8 1
    15   15   14 1
    16   16   15 1
    17   17   13 1
    18   18   13 1
    19   19   10 1
    20   20   17 1
    21   21   20 1
    22   22   20 1
    23   23   22 1
    24   24   23 1
    25   25    3 2
    26   26   25 1
    27   27   24 2
    28   28   24 1
    29    5   10 1
    30   13   14 1
    31   16   17 1
@<TRIPOS>SUBSTRUCTURE
     1 RES1 1

@<TRIPOS>CRYSIN
  14.5640   14.5640   20.2820  90.0000  90.0000 120.0000 170 1

