# MOL2 file generated by ConQuest
# Please check atom types

@<TRIPOS>MOLECULE
SATGAV
    67    70     1
SMALL
NO_CHARGES
****
Generated from CSD

@<TRIPOS>ATOM
      1 C1         4.0218    2.9098   11.8122 C.2       1 RES1    0.0000
      2 C2         4.6758    2.2716   10.6298 C.3       1 RES1    0.0000
      3 H1         3.9840    2.0294    9.9645 H         1 RES1    0.0000
      4 H2         5.1287    1.4391   10.9158 H         1 RES1    0.0000
      5 C3         5.6960    3.2087    9.9848 C.3       1 RES1    0.0000
      6 H3         6.0579    2.7862    9.1654 H         1 RES1    0.0000
      7 H4         6.4489    3.3550   10.6115 H         1 RES1    0.0000
      8 C4         5.0610    4.5734    9.6218 C.3       1 RES1    0.0000
      9 C5         3.9672    4.4170    8.5205 C.3       1 RES1    0.0000
     10 H5         3.2478    3.8494    8.9221 H         1 RES1    0.0000
     11 C6         4.4573    3.6640    7.2610 C.3       1 RES1    0.0000
     12 H6         5.2241    4.1547    6.8715 H         1 RES1    0.0000
     13 H7         4.7792    2.7660    7.5287 H         1 RES1    0.0000
     14 C7         3.3774    3.5089    6.2002 C.3       1 RES1    0.0000
     15 H8         2.6776    2.8972    6.5389 H         1 RES1    0.0000
     16 H9         3.7750    3.0952    5.3930 H         1 RES1    0.0000
     17 C8         2.7286    4.8395    5.8108 C.3       1 RES1    0.0000
     18 C9         1.4171    4.7878    5.0259 C.3       1 RES1    0.0000
     19 H10        0.8447    4.1042    5.4782 H         1 RES1    0.0000
     20 C10        0.7741    6.1714    5.3261 C.3       1 RES1    0.0000
     21 H11        0.9823    6.8147    4.6040 H         1 RES1    0.0000
     22 H12       -0.2097    6.0869    5.4031 H         1 RES1    0.0000
     23 C11        1.3778    6.6394    6.6525 C.3       1 RES1    0.0000
     24 H13        1.9239    7.4542    6.5207 H         1 RES1    0.0000
     25 H14        0.6641    6.8361    7.3117 H         1 RES1    0.0000
     26 C12        2.2429    5.4840    7.1271 C.3       1 RES1    0.0000
     27 H15        1.6144    4.8244    7.5388 H         1 RES1    0.0000
     28 C13        3.3119    5.7439    8.1716 C.3       1 RES1    0.0000
     29 H16        4.0029    6.3531    7.7822 H         1 RES1    0.0000
     30 C14        2.7220    6.3972    9.4027 C.3       1 RES1    0.0000
     31 H17        1.9545    5.8599    9.7232 H         1 RES1    0.0000
     32 H18        2.3863    7.2990    9.1675 H         1 RES1    0.0000
     33 C15        3.7612    6.5221   10.5345 C.3       1 RES1    0.0000
     34 H19        4.4427    7.1906   10.2728 H         1 RES1    0.0000
     35 H20        3.3104    6.8538   11.3498 H         1 RES1    0.0000
     36 C16        4.4566    5.2040   10.8529 C.3       1 RES1    0.0000
     37 H21        5.2125    5.4185   11.4695 H         1 RES1    0.0000
     38 C17        3.4873    4.3098   11.6338 C.3       1 RES1    0.0000
     39 H22        3.3206    4.7096   12.5241 H         1 RES1    0.0000
     40 H23        2.6230    4.2682   11.1531 H         1 RES1    0.0000
     41 C18        1.4003    4.4511    3.5412 C.3       1 RES1    0.0000
     42 H24        1.7841    5.2293    3.0464 H         1 RES1    0.0000
     43 C19       -0.0255    4.2568    3.0666 C.3       1 RES1    0.0000
     44 H25       -0.5811    4.9821    3.4500 H         1 RES1    0.0000
     45 H26       -0.3619    3.4017    3.4358 H         1 RES1    0.0000
     46 C20       -0.2381    4.2417    1.5536 C.3       1 RES1    0.0000
     47 H27       -0.2039    5.1712    1.2149 H         1 RES1    0.0000
     48 H28        0.5025    3.7384    1.1297 H         1 RES1    0.0000
     49 C21       -1.5445    3.6211    1.1500 C.2       1 RES1    0.0000
     50 C22        2.2050    3.2415    3.1863 C.3       1 RES1    0.0000
     51 H29        3.1276    3.3638    3.4926 H         1 RES1    0.0000
     52 H30        2.1948    3.1179    2.2148 H         1 RES1    0.0000
     53 H31        1.8183    2.4532    3.6203 H         1 RES1    0.0000
     54 C23        3.7706    5.7388    5.0989 C.3       1 RES1    0.0000
     55 H32        4.5993    5.7540    5.6222 H         1 RES1    0.0000
     56 H33        3.4167    6.6495    5.0218 H         1 RES1    0.0000
     57 H34        3.9549    5.3819    4.2065 H         1 RES1    0.0000
     58 C24        6.2043    5.4159    9.1107 C.3       1 RES1    0.0000
     59 H35        6.5888    4.9972    8.3136 H         1 RES1    0.0000
     60 H36        6.8931    5.4866    9.8063 H         1 RES1    0.0000
     61 H37        5.8758    6.3102    8.8855 H         1 RES1    0.0000
     62 N1         4.0197    2.2602   12.8994 N.2       1 RES1    0.0000
     63 O1         3.4349    2.9300   13.9682 O.3       1 RES1    0.0000
     64 H38        3.3097    2.3926   14.6010 H         1 RES1    0.0000
     65 O2        -2.2632    2.9489    1.8558 O.2       1 RES1    0.0000
     66 O3        -1.8423    3.9125   -0.1075 O.3       1 RES1    0.0000
     67 H39       -2.4941    3.4446   -0.3570 H         1 RES1    0.0000
@<TRIPOS>BOND
     1    1    2 1
     2    2    3 1
     3    4    2 1
     4    5    2 1
     5    6    5 1
     6    7    5 1
     7    8    5 1
     8    9    8 1
     9   10    9 1
    10   11    9 1
    11   12   11 1
    12   13   11 1
    13   14   11 1
    14   15   14 1
    15   16   14 1
    16   17   14 1
    17   18   17 1
    18   19   18 1
    19   20   18 1
    20   21   20 1
    21   22   20 1
    22   23   20 1
    23   24   23 1
    24   25   23 1
    25   26   17 1
    26   27   26 1
    27   28    9 1
    28   29   28 1
    29   30   28 1
    30   31   30 1
    31   32   30 1
    32   33   30 1
    33   34   33 1
    34   35   33 1
    35   36    8 1
    36   37   36 1
    37   38    1 1
    38   39   38 1
    39   40   38 1
    40   41   18 1
    41   42   41 1
    42   43   41 1
    43   44   43 1
    44   45   43 1
    45   46   43 1
    46   47   46 1
    47   48   46 1
    48   49   46 1
    49   50   41 1
    50   51   50 1
    51   52   50 1
    52   53   50 1
    53   54   17 1
    54   55   54 1
    55   56   54 1
    56   57   54 1
    57   58    8 1
    58   59   58 1
    59   60   58 1
    60   61   58 1
    61   62    1 2
    62   63   62 1
    63   64   63 1
    64   65   49 2
    65   66   49 1
    66   67   66 1
    67   23   26 1
    68   26   28 1
    69   33   36 1
    70   36   38 1
@<TRIPOS>SUBSTRUCTURE
     1 RES1 1

@<TRIPOS>CRYSIN
  14.5640   14.5640   20.2820  90.0000  90.0000 120.0000 169 1

