# MOL2 file generated by ConQuest
# Please check atom types

@<TRIPOS>MOLECULE
SATJAB
    68    73     1
SMALL
NO_CHARGES
****
Generated from CSD

@<TRIPOS>ATOM
      1 O1        -1.0371    0.6615   20.4070 O.3       1 RES1    0.0000
      2 H1        -0.6232    1.1304   20.9683 H         1 RES1    0.0000
      3 O2        -1.1581    1.2867   16.2928 O.3       1 RES1    0.0000
      4 O3        -0.9257    1.5304   14.8429 O.3       1 RES1    0.0000
      5 O4         1.9734    1.3454    8.7635 O.3       1 RES1    0.0000
      6 O5         4.0382    3.0840    8.4284 O.2       1 RES1    0.0000
      7 N1         2.3897    0.8130   10.0291 N.2       1 RES1    0.0000
      8 N2         4.9841    1.8013    6.7867 N.am      1 RES1    0.0000
      9 H2         4.8270    1.0975    6.2807 H         1 RES1    0.0000
     10 C1         1.4664    1.2303   17.6251 C.3       1 RES1    0.0000
     11 H3         2.4558    1.2510   17.6239 H         1 RES1    0.0000
     12 H4         1.1470    2.1171   17.3223 H         1 RES1    0.0000
     13 C2         0.9776    0.9939   19.0542 C.3       1 RES1    0.0000
     14 H5         1.3466    0.1403   19.3936 H         1 RES1    0.0000
     15 H6         1.2990    1.7235   19.6403 H         1 RES1    0.0000
     16 C3        -0.5406    0.9428   19.0905 C.3       1 RES1    0.0000
     17 H7        -0.8977    1.8298   18.7966 H         1 RES1    0.0000
     18 C4        -1.0763   -0.1323   18.1551 C.3       1 RES1    0.0000
     19 H8        -2.0651   -0.0899   18.1447 H         1 RES1    0.0000
     20 H9        -0.8137   -1.0218   18.5011 H         1 RES1    0.0000
     21 C5        -0.5553    0.0225   16.7214 C.3       1 RES1    0.0000
     22 C6        -1.0231   -1.0378   15.7625 C.2       1 RES1    0.0000
     23 H10       -1.5021   -1.8112   16.0369 H         1 RES1    0.0000
     24 C7        -0.7024   -0.7884   14.4954 C.2       1 RES1    0.0000
     25 H11       -0.9005   -1.3792   13.7768 H         1 RES1    0.0000
     26 C8         0.0075    0.5277   14.3160 C.3       1 RES1    0.0000
     27 C9         1.2897    0.6597   15.1710 C.3       1 RES1    0.0000
     28 H12        1.4524    1.6424   15.2541 H         1 RES1    0.0000
     29 C10        0.9916    0.1617   16.6251 C.3       1 RES1    0.0000
     30 C11        2.5560    0.0928   14.5158 C.3       1 RES1    0.0000
     31 H13        2.4993   -0.8957   14.5048 H         1 RES1    0.0000
     32 H14        3.3431    0.3454   15.0622 H         1 RES1    0.0000
     33 C12        2.7573    0.6004   13.0784 C.3       1 RES1    0.0000
     34 H15        2.9320    1.5744   13.0884 H         1 RES1    0.0000
     35 H16        3.5399    0.1502   12.6712 H         1 RES1    0.0000
     36 C13        1.5073    0.3107   12.2472 C.3       1 RES1    0.0000
     37 C14        0.2982    1.0191   12.9090 C.3       1 RES1    0.0000
     38 H17        0.5791    1.9724   13.0153 H         1 RES1    0.0000
     39 C15       -0.7746    1.0367   11.8204 C.3       1 RES1    0.0000
     40 H18       -1.4944    1.6840   12.0285 H         1 RES1    0.0000
     41 H19       -1.1695    0.1392   11.6843 H         1 RES1    0.0000
     42 C16        0.0511    1.4833   10.5990 C.3       1 RES1    0.0000
     43 H20       -0.3340    1.1227    9.7623 H         1 RES1    0.0000
     44 H21        0.0847    2.4712   10.5390 H         1 RES1    0.0000
     45 C17        1.4257    0.9124   10.8497 C.2       1 RES1    0.0000
     46 C18        1.3312   -1.2106   12.0556 C.3       1 RES1    0.0000
     47 H22        2.1001   -1.5689   11.5655 H         1 RES1    0.0000
     48 H23        0.5105   -1.3836   11.5472 H         1 RES1    0.0000
     49 H24        1.2717   -1.6457   12.9331 H         1 RES1    0.0000
     50 C19        1.6435   -1.1936   16.9364 C.3       1 RES1    0.0000
     51 H25        2.6176   -1.0865   16.9720 H         1 RES1    0.0000
     52 H26        1.4110   -1.8375   16.2349 H         1 RES1    0.0000
     53 H27        1.3193   -1.5218   17.8005 H         1 RES1    0.0000
     54 C20        2.9551    1.0272    7.7985 C.3       1 RES1    0.0000
     55 H28        2.5231    0.9374    6.9113 H         1 RES1    0.0000
     56 H29        3.3662    0.1557    8.0261 H         1 RES1    0.0000
     57 C21        4.0392    2.0864    7.7209 C.2       1 RES1    0.0000
     58 C22        6.1855    2.4918    6.5253 C.ar      1 RES1    0.0000
     59 C23        6.5552    3.6739    7.1708 C.ar      1 RES1    0.0000
     60 H30        5.9859    4.0588    7.8281 H         1 RES1    0.0000
     61 C24        7.7555    4.2815    6.8482 C.ar      1 RES1    0.0000
     62 H31        8.0048    5.0806    7.2981 H         1 RES1    0.0000
     63 C25        8.5993    3.7586    5.8930 C.ar      1 RES1    0.0000
     64 H32        9.4123    4.1969    5.6716 H         1 RES1    0.0000
     65 C26        8.2359    2.5812    5.2649 C.ar      1 RES1    0.0000
     66 H33        8.8122    2.2015    4.6116 H         1 RES1    0.0000
     67 C27        7.0447    1.9465    5.5726 C.ar      1 RES1    0.0000
     68 H34        6.8122    1.1369    5.1324 H         1 RES1    0.0000
@<TRIPOS>BOND
     1    1    2 1
     2    3    4 1
     3    4   26 1
     4    5    7 1
     5    6   57 2
     6    7   45 2
     7    8    9 1
     8   10   11 1
     9   12   10 1
    10   13   10 1
    11   14   13 1
    12   15   13 1
    13   16    1 1
    14   17   16 1
    15   18   16 1
    16   19   18 1
    17   20   18 1
    18   21    3 1
    19   22   21 1
    20   23   22 1
    21   24   22 2
    22   25   24 1
    23   26   24 1
    24   27   26 1
    25   28   27 1
    26   29   10 1
    27   30   27 1
    28   31   30 1
    29   32   30 1
    30   33   30 1
    31   34   33 1
    32   35   33 1
    33   36   33 1
    34   37   26 1
    35   38   37 1
    36   39   37 1
    37   40   39 1
    38   41   39 1
    39   42   39 1
    40   43   42 1
    41   44   42 1
    42   45   36 1
    43   46   36 1
    44   47   46 1
    45   48   46 1
    46   49   46 1
    47   50   29 1
    48   51   50 1
    49   52   50 1
    50   53   50 1
    51   54    5 1
    52   55   54 1
    53   56   54 1
    54   57    8 1
    55   58    8 1
    56   59   58 ar
    57   60   59 1
    58   61   59 ar
    59   62   61 1
    60   63   61 ar
    61   64   63 1
    62   65   63 ar
    63   66   65 1
    64   67   58 ar
    65   68   67 1
    66   13   16 1
    67   18   21 1
    68   21   29 1
    69   27   29 1
    70   36   37 1
    71   42   45 1
    72   54   57 1
    73   65   67 ar
@<TRIPOS>SUBSTRUCTURE
     1 RES1 1

@<TRIPOS>CRYSIN
   7.0027   10.9637   30.4595  90.0000  90.0000  90.0000  19 1

