# MOL2 file generated by ConQuest
# Please check atom types

@<TRIPOS>MOLECULE
SATNEG
    48    38     2
SMALL
NO_CHARGES
****
Generated from CSD

@<TRIPOS>ATOM
      1 N1        -0.4070    0.6127    5.5801 N.am      1 RES1    0.0000
      2 C1        -1.3068    0.8483    4.4916 C.3       1 RES1    0.0000
      3 N2        -0.6490    1.0286    3.1926 N.pl3     1 RES1    0.0000
      4 C2        -0.4778    2.3123    2.5505 C.3       1 RES1    0.0000
      5 N3        -1.5711    2.6826    1.6602 N.pl3     1 RES1    0.0000
      6 C3        -1.6753    2.2454    0.2859 C.3       1 RES1    0.0000
      7 N4        -1.3899    3.2546   -0.7072 N.3       1 RES1    0.0000
      8 C4         0.2321    1.6152    6.1870 C.2       1 RES1    0.0000
      9 O1         0.0844    2.7747    5.8183 O.2       1 RES1    0.0000
     10 C5         1.0859    1.2274    7.3306 C.3       1 RES1    0.0000
     11 N5        -0.0968   -0.0737    2.6132 N.pl3     1 RES1    0.0000
     12 O2         0.4418    0.0650    1.5248 O.2       1 RES1    0.0000
     13 O3        -0.1961   -1.1343    3.2277 O.2       1 RES1    0.0000
     14 N6        -2.5577    3.4737    2.1417 N.pl3     1 RES1    0.0000
     15 O4        -3.3693    3.9119    1.3467 O.2       1 RES1    0.0000
     16 O5        -2.5589    3.7064    3.3531 O.2       1 RES1    0.0000
     17 N7        -0.0695    3.5261   -0.9580 N.pl3     1 RES1    0.0000
     18 O6         0.7583    3.0277   -0.2082 O.2       1 RES1    0.0000
     19 O7         0.1775    4.2639   -1.8935 O.2       1 RES1    0.0000
     20 C6        -2.3889    3.7617   -1.5725 C.3       1 RES1    0.0000
     21 O8        -2.1109    3.6124   -2.9543 O.3       1 RES1    0.0000
     22 C7        -2.7935    2.4111   -3.2227 C.2       1 RES1    0.0000
     23 O9        -3.4326    1.8566   -2.3349 O.2       1 RES1    0.0000
     24 C8        -2.8518    1.9894   -4.6647 C.3       1 RES1    0.0000
     25 O10       -2.5974    2.6380   -2.5380 Du        2 SUP2    0.0000
     26 C9        -3.2415    2.5159   -3.8020 Du        2 SUP2    0.0000
     27 O11       -3.1335    3.6773   -4.1907 Du        2 SUP2    0.0000
     28 C10       -2.7265    1.3398   -4.5869 Du        2 SUP2    0.0000
     29 H1        -0.2594   -0.2879    5.8785 H         1 RES1    0.0000
     30 H2        -1.9000    0.0960    4.4239 H         1 RES1    0.0000
     31 H3        -1.8143    1.6394    4.6873 H         1 RES1    0.0000
     32 H4        -0.4070    2.9822    3.2327 H         1 RES1    0.0000
     33 H5         0.3338    2.2871    2.0389 H         1 RES1    0.0000
     34 H6        -1.0586    1.5211    0.1605 H         1 RES1    0.0000
     35 H7        -2.5714    1.9312    0.1404 H         1 RES1    0.0000
     36 H8         1.0685    0.2744    7.4434 H         1 RES1    0.0000
     37 H9         0.7645    1.6501    8.1281 H         1 RES1    0.0000
     38 H10        1.9856    1.5124    7.1550 H         1 RES1    0.0000
     39 H11       -3.2440    3.3826   -1.3568 H         1 RES1    0.0000
     40 H12       -2.4075    4.7069   -1.4094 H         1 RES1    0.0000
     41 H13       -3.1509    4.0544   -1.0684 Du        2 SUP2    0.0000
     42 H14       -2.0328    4.4994   -2.0740 Du        2 SUP2    0.0000
     43 H15       -3.3308    1.1644   -4.7675 H         1 RES1    0.0000
     44 H16       -1.9484    1.8770   -4.9707 H         1 RES1    0.0000
     45 H17       -3.2812    2.6758   -5.1813 H         1 RES1    0.0000
     46 H18       -2.4386    0.6050   -4.0402 Du        2 SUP2    0.0000
     47 H19       -2.0836    1.4930   -5.2841 Du        2 SUP2    0.0000
     48 H20       -3.5790    1.1343   -4.9782 Du        2 SUP2    0.0000
@<TRIPOS>BOND
     1    1    2 1
     2    2    3 1
     3    3    4 1
     4    4    5 1
     5    5    6 1
     6    6    7 1
     7    7   17 1
     8    8    1 1
     9    9    8 2
    10   10    8 1
    11   11    3 1
    12   12   11 2
    13   13   11 2
    14   14    5 1
    15   15   14 2
    16   16   14 2
    17   17   18 2
    18   19   17 2
    19   20    7 1
    20   21   20 1
    21   22   21 1
    22   23   22 2
    23   24   22 1
    24   29    1 1
    25   30    2 1
    26   31    2 1
    27   32    4 1
    28   33    4 1
    29   34    6 1
    30   35    6 1
    31   36   10 1
    32   37   10 1
    33   38   10 1
    34   39   20 1
    35   40   20 1
    36   43   24 1
    37   44   24 1
    38   45   24 1
@<TRIPOS>SUBSTRUCTURE
     1 RES1 1
     2 SUP2 25

@<TRIPOS>CRYSIN
  12.4100    9.6950   25.0790  90.0000  90.0000  90.0000  61 1

