# MOL2 file generated by ConQuest
# Please check atom types

@<TRIPOS>MOLECULE
SATROU
    23    22     1
SMALL
NO_CHARGES
****
Generated from CSD

@<TRIPOS>ATOM
      1 C1        -5.3875    0.1572   12.0026 C.3       1 RES1    0.0000
      2 N1        -5.1245    1.4186   11.3370 N.pl3     1 RES1    0.0000
      3 C2        -5.9811    2.6075   11.4076 C.3       1 RES1    0.0000
      4 N2        -5.5422    3.4902   12.4616 N.pl3     1 RES1    0.0000
      5 C3        -5.3556    3.0460   13.8209 C.3       1 RES1    0.0000
      6 N3        -3.9959    1.5217   10.6061 N.pl3     1 RES1    0.0000
      7 O1        -3.7400    2.5983   10.0855 O.2       1 RES1    0.0000
      8 O2        -3.2952    0.5158   10.5087 O.2       1 RES1    0.0000
      9 N4        -5.1180    4.7332   12.1205 N.pl3     1 RES1    0.0000
     10 O3        -5.3730    5.1526   11.0023 O.2       1 RES1    0.0000
     11 O4        -4.5088    5.3606   12.9797 O.2       1 RES1    0.0000
     12 O5        -7.2741    2.2198   11.7012 O.3       1 RES1    0.0000
     13 C4        -7.9781    1.6981   10.5548 C.3       1 RES1    0.0000
     14 H1        -6.1728    0.2687   12.5745 H         1 RES1    0.0000
     15 H2        -5.5274   -0.5566   11.5294 H         1 RES1    0.0000
     16 H3        -4.7009    0.0416   12.7386 H         1 RES1    0.0000
     17 H4        -5.8729    3.0842   10.5933 H         1 RES1    0.0000
     18 H5        -5.4617    3.7249   14.4864 H         1 RES1    0.0000
     19 H6        -5.9699    2.3596   13.9748 H         1 RES1    0.0000
     20 H7        -4.6503    2.6449   13.9260 H         1 RES1    0.0000
     21 H8        -8.9808    1.4560   10.9036 H         1 RES1    0.0000
     22 H9        -7.6237    0.9019   10.2522 H         1 RES1    0.0000
     23 H10       -7.9649    2.2938    9.8303 H         1 RES1    0.0000
@<TRIPOS>BOND
     1    1    2 1
     2    2    3 1
     3    3    4 1
     4    4    5 1
     5    5   18 1
     6    6    2 1
     7    7    6 2
     8    8    6 2
     9    9    4 1
    10   10    9 2
    11   11    9 2
    12   12    3 1
    13   13   12 1
    14   14    1 1
    15   15    1 1
    16   16    1 1
    17   17    3 1
    18   19    5 1
    19   20    5 1
    20   21   13 1
    21   22   13 1
    22   23   13 1
@<TRIPOS>SUBSTRUCTURE
     1 RES1 1

@<TRIPOS>CRYSIN
   7.9640    8.3200   14.7670  90.0000 119.7300  90.0000  14 1

