# MOL2 file generated by ConQuest
# Please check atom types

@<TRIPOS>MOLECULE
SAVFAW
    34    33     1
SMALL
NO_CHARGES
****
Generated from CSD

@<TRIPOS>ATOM
      1 C1        -1.5303    6.9865    1.2230 C.3       1 RES1    0.0000
      2 C2        -0.0807    7.0203    0.7241 C.3       1 RES1    0.0000
      3 C3         0.7954    6.3293    1.7678 C.3       1 RES1    0.0000
      4 C4         2.0916    9.4254    1.8821 C.3       1 RES1    0.0000
      5 N1         0.3475    8.4455    0.6625 N.3       1 RES1    0.0000
      6 N2        -0.4895    9.4018    0.3408 N.2       1 RES1    0.0000
      7 O1         1.7123    8.7037    0.6858 O.3       1 RES1    0.0000
      8 O2        -0.0004   10.5227    0.1759 O.2       1 RES1    0.0000
      9 H1        -1.7973    6.0663    1.3250 H         1 RES1    0.0000
     10 H2        -1.5774    7.4547    2.0703 H         1 RES1    0.0000
     11 H3         1.6982    6.3104    1.5023 H         1 RES1    0.0000
     12 H4         0.6760    6.7893    2.6309 H         1 RES1    0.0000
     13 H5        -2.1157    7.4467    0.6249 H         1 RES1    0.0000
     14 H6         0.5228    5.4841    1.8814 H         1 RES1    0.0000
     15 H7         1.6944   10.2316    1.9341 H         1 RES1    0.0000
     16 H8         2.9978    9.4817    1.9430 H         1 RES1    0.0000
     17 H9         1.7581    8.9626    2.6466 H         1 RES1    0.0000
     18 C2B        0.0807    6.3947   -0.7241 C.3       1 RES1    0.0000
     19 C1B        1.5303    6.4285   -1.2230 C.3       1 RES1    0.0000
     20 H1B        1.7973    7.3487   -1.3250 H         1 RES1    0.0000
     21 H2B        1.5774    5.9603   -2.0703 H         1 RES1    0.0000
     22 H5B        2.1157    5.9683   -0.6249 H         1 RES1    0.0000
     23 C3B       -0.7954    7.0857   -1.7678 C.3       1 RES1    0.0000
     24 H3B       -1.6982    7.1046   -1.5023 H         1 RES1    0.0000
     25 H4B       -0.6760    6.6257   -2.6309 H         1 RES1    0.0000
     26 H6B       -0.5228    7.9309   -1.8814 H         1 RES1    0.0000
     27 N1B       -0.3475    4.9695   -0.6625 N.3       1 RES1    0.0000
     28 N2B        0.4895    4.0132   -0.3408 N.2       1 RES1    0.0000
     29 O2B        0.0004    2.8923   -0.1759 O.2       1 RES1    0.0000
     30 O1B       -1.7123    4.7113   -0.6858 O.3       1 RES1    0.0000
     31 C4B       -2.0916    3.9896   -1.8821 C.3       1 RES1    0.0000
     32 H7B       -1.6944    3.1834   -1.9341 H         1 RES1    0.0000
     33 H8B       -2.9978    3.9333   -1.9430 H         1 RES1    0.0000
     34 H9B       -1.7581    4.4524   -2.6466 H         1 RES1    0.0000
@<TRIPOS>BOND
     1    1    2 1
     2    2    3 1
     3    3   11 1
     4    4    7 1
     5    5    2 1
     6    6    5 1
     7    7    5 1
     8    8    6 2
     9    9    1 1
    10   10    1 1
    11   12    3 1
    12   13    1 1
    13   14    3 1
    14   15    4 1
    15   16    4 1
    16   17    4 1
    17   18    2 1
    18   19   18 1
    19   20   19 1
    20   21   19 1
    21   22   19 1
    22   23   18 1
    23   24   23 1
    24   25   23 1
    25   26   23 1
    26   27   18 1
    27   28   27 1
    28   29   28 2
    29   30   27 1
    30   31   30 1
    31   32   31 1
    32   33   31 1
    33   34   31 1
@<TRIPOS>SUBSTRUCTURE
     1 RES1 1

@<TRIPOS>CRYSIN
   6.3990   13.4150    7.2880  90.0000 110.1000  90.0000  14 1

