# MOL2 file generated by ConQuest
# Please check atom types

@<TRIPOS>MOLECULE
SAVFUQ
    38    33     2
SMALL
NO_CHARGES
****
Generated from CSD

@<TRIPOS>ATOM
      1 O1         1.6982    2.0074    0.6865 O.3       1 RES1    0.0000
      2 N1         0.3291    1.7471    0.6493 N.2       1 RES1    0.0000
      3 O2        -0.0423    3.8731    0.1484 O.2       1 RES1    0.0000
      4 C1        -0.4834    2.7423    0.3212 C.2       1 RES1    0.0000
      5 C2         0.8054   -0.3600    1.7655 C.3       1 RES1    0.0000
      6 H1         0.5136   -1.2481    1.8662 H         1 RES1    0.0000
      7 H2         1.7183   -0.3689    1.5130 H         1 RES1    0.0000
      8 H3         0.6689    0.0830    2.6169 H         1 RES1    0.0000
      9 C3        -1.5253    0.2566    1.2305 C.3       1 RES1    0.0000
     10 H4        -2.1330    0.6737    0.5431 H         1 RES1    0.0000
     11 H5        -1.7565   -0.6533    1.3898 H         1 RES1    0.0000
     12 H6        -1.5805    0.7813    2.0146 H         1 RES1    0.0000
     13 C4        -0.0794    0.3211    0.7208 C.3       1 RES1    0.0000
     14 C5         2.0569    2.7253    1.8853 C.3       1 RES1    0.0000
     15 H7         3.0024    2.8921    1.8873 H         1 RES1    0.0000
     16 H8         1.8227    2.2010    2.6544 H         1 RES1    0.0000
     17 H9         1.5844    3.5606    1.9111 H         1 RES1    0.0000
     18 H10       -1.3910    2.5521    0.1974 Du        2 SUP2    0.0000
     19 H11        1.2707    2.8771    2.4148 Du        2 SUP2    0.0000
     20 H12        2.4505    3.5681    1.6477 Du        2 SUP2    0.0000
     21 H13        2.6887    2.2085    2.3910 Du        2 SUP2    0.0000
     22 C4B        0.0794   -0.3211   -0.7208 C.3       1 RES1    0.0000
     23 N1B       -0.3291   -1.7471   -0.6493 N.2       1 RES1    0.0000
     24 O1B       -1.6982   -2.0074   -0.6865 O.3       1 RES1    0.0000
     25 C5B       -2.0569   -2.7253   -1.8853 C.3       1 RES1    0.0000
     26 H7B       -3.0024   -2.8921   -1.8873 H         1 RES1    0.0000
     27 H8B       -1.8227   -2.2010   -2.6544 H         1 RES1    0.0000
     28 H9B       -1.5844   -3.5606   -1.9111 H         1 RES1    0.0000
     29 C1B        0.4834   -2.7423   -0.3212 C.2       1 RES1    0.0000
     30 O2B        0.0423   -3.8731   -0.1484 O.2       1 RES1    0.0000
     31 C2B       -0.8054    0.3600   -1.7655 C.3       1 RES1    0.0000
     32 H1B       -0.5136    1.2481   -1.8662 H         1 RES1    0.0000
     33 H2B       -1.7183    0.3689   -1.5130 H         1 RES1    0.0000
     34 H3B       -0.6689   -0.0830   -2.6169 H         1 RES1    0.0000
     35 C3B        1.5253   -0.2566   -1.2305 C.3       1 RES1    0.0000
     36 H4B        2.1330   -0.6737   -0.5431 H         1 RES1    0.0000
     37 H5B        1.7565    0.6533   -1.3898 H         1 RES1    0.0000
     38 H6B        1.5805   -0.7813   -2.0146 H         1 RES1    0.0000
@<TRIPOS>BOND
     1    1    2 1
     2    2    4 1
     3    3    4 1
     4    5    6 1
     5    7    5 1
     6    8    5 1
     7    9   10 1
     8   11    9 1
     9   12    9 1
    10   13    2 1
    11   14    1 1
    12   15   14 1
    13   16   14 1
    14   17   14 1
    15   22   13 1
    16   23   22 1
    17   24   23 1
    18   25   24 1
    19   26   25 1
    20   27   25 1
    21   28   25 1
    22   29   23 1
    23   30   29 1
    24   31   22 1
    25   32   31 1
    26   33   31 1
    27   34   31 1
    28   35   22 1
    29   36   35 1
    30   37   35 1
    31   38   35 1
    32    5   13 1
    33    9   13 1
@<TRIPOS>SUBSTRUCTURE
     1 RES1 1
     2 SUP2 18

@<TRIPOS>CRYSIN
   6.4240   13.6110    7.2310  90.0000 109.7400  90.0000  14 1

