# MOL2 file generated by ConQuest
# Please check atom types

@<TRIPOS>MOLECULE
SAVGUS
    36    37     1
SMALL
NO_CHARGES
****
Generated from CSD

@<TRIPOS>ATOM
      1 O1         0.1422    6.6205   13.1782 O.3       1 RES1    0.0000
      2 O2        -2.1004    8.2560    8.9765 O.2       1 RES1    0.0000
      3 O3        -1.5070    6.8359    7.4477 O.2       1 RES1    0.0000
      4 O4         3.5754   -2.8113   13.3427 O.3       1 RES1    0.0000
      5 N1         1.1041    4.2798   12.5627 N.3       1 RES1    0.0000
      6 N2         1.4967    2.9975   12.3880 N.2       1 RES1    0.0000
      7 N3         1.9526    2.5198   13.4651 N.2       1 RES1    0.0000
      8 N4        -1.5049    7.2419    8.6150 N.pl3     1 RES1    0.0000
      9 C1         0.5002    4.9875   11.5436 C.ar      1 RES1    0.0000
     10 C2        -0.0254    6.2595   11.8717 C.ar      1 RES1    0.0000
     11 C3        -0.6632    7.0082   10.9066 C.ar      1 RES1    0.0000
     12 C4        -0.7801    6.4784    9.6250 C.ar      1 RES1    0.0000
     13 C5        -0.2634    5.2492    9.2791 C.ar      1 RES1    0.0000
     14 C6         0.3768    4.5024   10.2476 C.ar      1 RES1    0.0000
     15 C7        -0.3533    7.9115   13.5842 C.3       1 RES1    0.0000
     16 C8         2.3811    1.1621   13.3543 C.ar      1 RES1    0.0000
     17 C9         2.6236    0.5215   14.5629 C.ar      1 RES1    0.0000
     18 C10        3.0259   -0.8036   14.6067 C.ar      1 RES1    0.0000
     19 C11        3.1966   -1.4946   13.4238 C.ar      1 RES1    0.0000
     20 C12        3.0013   -0.8493   12.1971 C.ar      1 RES1    0.0000
     21 C13        2.5857    0.4703   12.1587 C.ar      1 RES1    0.0000
     22 C14        3.7558   -3.4967   14.5854 C.3       1 RES1    0.0000
     23 H1         1.1590    4.5815   13.3482 H         1 RES1    0.0000
     24 H2        -1.0146    7.8668   11.1114 H         1 RES1    0.0000
     25 H3        -0.3461    4.9214    8.3913 H         1 RES1    0.0000
     26 H4         0.7366    3.6522   10.0263 H         1 RES1    0.0000
     27 H5        -0.4849    7.9189   14.5249 H         1 RES1    0.0000
     28 H6         0.2774    8.5810   13.3478 H         1 RES1    0.0000
     29 H7        -1.1787    8.0856   13.1475 H         1 RES1    0.0000
     30 H8         2.5106    1.0010   15.3750 H         1 RES1    0.0000
     31 H9         3.1833   -1.2310   15.4404 H         1 RES1    0.0000
     32 H10        3.1549   -1.3204   11.3861 H         1 RES1    0.0000
     33 H11        2.4393    0.9014   11.3250 H         1 RES1    0.0000
     34 H12        2.9800   -3.3886   15.1224 H         1 RES1    0.0000
     35 H13        4.5079   -3.1363   15.0398 H         1 RES1    0.0000
     36 H14        3.8996   -4.4213   14.4191 H         1 RES1    0.0000
@<TRIPOS>BOND
     1    1   10 1
     2    2    8 2
     3    3    8 2
     4    4   19 1
     5    5    6 1
     6    6    7 2
     7    7   16 1
     8    8   12 1
     9    9    5 1
    10   10    9 ar
    11   11   10 ar
    12   12   11 ar
    13   13   12 ar
    14   14    9 ar
    15   15    1 1
    16   16   17 ar
    17   17   18 ar
    18   18   19 ar
    19   19   20 ar
    20   20   21 ar
    21   21   16 ar
    22   22    4 1
    23   23    5 1
    24   24   11 1
    25   25   13 1
    26   26   14 1
    27   27   15 1
    28   28   15 1
    29   29   15 1
    30   30   17 1
    31   31   18 1
    32   32   20 1
    33   33   21 1
    34   34   22 1
    35   35   22 1
    36   36   22 1
    37   13   14 ar
@<TRIPOS>SUBSTRUCTURE
     1 RES1 1

@<TRIPOS>CRYSIN
   7.2800    9.3120   20.7500  90.0000  98.8290  90.0000  14 1

