# MOL2 file generated by ConQuest
# Please check atom types

@<TRIPOS>MOLECULE
SAVNAH
    74    78     1
SMALL
NO_CHARGES
****
Generated from CSD

@<TRIPOS>ATOM
      1 O1         6.9482    7.0685   14.4727 O.3       1 RES1    0.0000
      2 O2         6.9489    8.1141   16.9139 O.2       1 RES1    0.0000
      3 O3         5.0911    6.9582   17.4496 O.3       1 RES1    0.0000
      4 O4         0.7102    6.7908   16.8785 O.2       1 RES1    0.0000
      5 O5         1.1956    4.7436   16.1558 O.3       1 RES1    0.0000
      6 O6         3.7678    4.4863   15.4039 O.2       1 RES1    0.0000
      7 N1         6.5678    6.5647   13.1684 N.3       1 RES1    0.0000
      8 N2         2.5118    6.4520   15.5453 N.am      1 RES1    0.0000
      9 C1         8.8466    5.6947   13.1347 C.ar      1 RES1    0.0000
     10 H1         9.0939    6.3070   13.7890 H         1 RES1    0.0000
     11 C2         9.7847    4.8411   12.6066 C.ar      1 RES1    0.0000
     12 H2        10.6554    4.8577   12.9325 H         1 RES1    0.0000
     13 C3         9.4516    3.9613   11.5983 C.ar      1 RES1    0.0000
     14 H3        10.0954    3.3990   11.2319 H         1 RES1    0.0000
     15 C4         8.1671    3.9269   11.1458 C.ar      1 RES1    0.0000
     16 H4         7.9361    3.3384   10.4638 H         1 RES1    0.0000
     17 C5         7.2034    4.7531   11.6864 C.ar      1 RES1    0.0000
     18 H5         6.3287    4.7115   11.3742 H         1 RES1    0.0000
     19 C6         7.5365    5.6495   12.6972 C.ar      1 RES1    0.0000
     20 C7         3.3089    5.6222   11.6766 C.ar      1 RES1    0.0000
     21 H6         3.1567    4.8304   12.1399 H         1 RES1    0.0000
     22 C8         2.5108    5.9527   10.5961 C.ar      1 RES1    0.0000
     23 H7         1.8241    5.3808   10.3387 H         1 RES1    0.0000
     24 C9         2.7213    7.1059    9.9065 C.ar      1 RES1    0.0000
     25 H8         2.1818    7.3211    9.1804 H         1 RES1    0.0000
     26 C10        3.7320    7.9464   10.2849 C.ar      1 RES1    0.0000
     27 H9         3.8751    8.7394    9.8184 H         1 RES1    0.0000
     28 C11        4.5383    7.6254   11.3544 C.ar      1 RES1    0.0000
     29 H10        5.2301    8.1973   11.5976 H         1 RES1    0.0000
     30 C12        4.3288    6.4603   12.0714 C.ar      1 RES1    0.0000
     31 C13        5.1719    6.0704   13.2611 C.3       1 RES1    0.0000
     32 H11        5.2005    5.0919   13.3031 H         1 RES1    0.0000
     33 C14        3.5450    6.9918   19.1843 C.3       1 RES1    0.0000
     34 H12        2.8664    7.2295   18.5473 H         1 RES1    0.0000
     35 H13        3.2987    7.3235   20.0516 H         1 RES1    0.0000
     36 H14        3.6308    6.0371   19.2196 H         1 RES1    0.0000
     37 C15        5.9904    7.2319   19.6874 C.3       1 RES1    0.0000
     38 H15        6.1294    6.2832   19.6565 H         1 RES1    0.0000
     39 H16        5.7686    7.4947   20.5841 H         1 RES1    0.0000
     40 H17        6.7916    7.6825   19.4111 H         1 RES1    0.0000
     41 C16        4.7243    9.0735   18.5968 C.3       1 RES1    0.0000
     42 H18        5.5612    9.4444   18.3068 H         1 RES1    0.0000
     43 H19        4.4719    9.4694   19.4331 H         1 RES1    0.0000
     44 H20        4.0488    9.2554   17.9387 H         1 RES1    0.0000
     45 C17        4.8663    7.6028   18.7666 C.3       1 RES1    0.0000
     46 C18        6.1049    7.3163   16.6768 C.2       1 RES1    0.0000
     47 C19        6.0313    6.5127   15.3885 C.3       1 RES1    0.0000
     48 H21        6.2612    5.5758   15.5657 H         1 RES1    0.0000
     49 C20        0.3137    2.6013   16.4515 C.3       1 RES1    0.0000
     50 H22        0.1850    2.6084   15.5019 H         1 RES1    0.0000
     51 H23       -0.3536    2.0449   16.8614 H         1 RES1    0.0000
     52 H24        1.1864    2.2553   16.6552 H         1 RES1    0.0000
     53 C21        0.6469    4.0885   18.3828 C.3       1 RES1    0.0000
     54 H25        1.6054    4.0386   18.4049 H         1 RES1    0.0000
     55 H26        0.2759    3.3479   18.8663 H         1 RES1    0.0000
     56 H27        0.3618    4.9112   18.7853 H         1 RES1    0.0000
     57 C22       -1.1772    4.5320   16.7043 C.3       1 RES1    0.0000
     58 H28       -1.2600    5.4439   16.9914 H         1 RES1    0.0000
     59 H29       -1.8190    3.9899   17.1681 H         1 RES1    0.0000
     60 H30       -1.3387    4.4797   15.7595 H         1 RES1    0.0000
     61 C23        0.1901    4.0422   16.9988 C.3       1 RES1    0.0000
     62 C24        1.3622    6.0335   16.2459 C.2       1 RES1    0.0000
     63 C25        3.6298    5.6650   15.2371 C.2       1 RES1    0.0000
     64 C26        4.6916    6.5923   14.6400 C.3       1 RES1    0.0000
     65 C27        4.0437    7.9417   14.7006 C.ar      1 RES1    0.0000
     66 C28        4.5393    9.1841   14.3436 C.ar      1 RES1    0.0000
     67 H31        5.3865    9.2685   13.9681 H         1 RES1    0.0000
     68 C29        3.7443   10.3004   14.5585 C.ar      1 RES1    0.0000
     69 H32        4.0621   11.1457   14.3338 H         1 RES1    0.0000
     70 C30        2.5006   10.1661   15.0969 C.ar      1 RES1    0.0000
     71 H33        1.9794   10.9258   15.2221 H         1 RES1    0.0000
     72 C31        1.9876    8.9332   15.4621 C.ar      1 RES1    0.0000
     73 H34        1.1374    8.8535   15.8307 H         1 RES1    0.0000
     74 C32        2.7867    7.8264   15.2562 C.ar      1 RES1    0.0000
@<TRIPOS>BOND
     1    1    7 1
     2    2   46 2
     3    3   45 1
     4    4   62 2
     5    5   61 1
     6    6   63 2
     7    7   19 1
     8    8   62 1
     9    9   10 1
    10   11    9 ar
    11   12   11 1
    12   13   11 ar
    13   14   13 1
    14   15   13 ar
    15   16   15 1
    16   17   15 ar
    17   18   17 1
    18   19    9 ar
    19   20   21 1
    20   22   20 ar
    21   23   22 1
    22   24   22 ar
    23   25   24 1
    24   26   24 ar
    25   27   26 1
    26   28   26 ar
    27   29   28 1
    28   30   20 ar
    29   31    7 1
    30   32   31 1
    31   33   34 1
    32   35   33 1
    33   36   33 1
    34   37   38 1
    35   39   37 1
    36   40   37 1
    37   41   42 1
    38   43   41 1
    39   44   41 1
    40   45   33 1
    41   46    3 1
    42   47    1 1
    43   48   47 1
    44   49   50 1
    45   51   49 1
    46   52   49 1
    47   53   54 1
    48   55   53 1
    49   56   53 1
    50   57   58 1
    51   59   57 1
    52   60   57 1
    53   61   49 1
    54   62    5 1
    55   63    8 1
    56   64   31 1
    57   65   64 1
    58   66   65 ar
    59   67   66 1
    60   68   66 ar
    61   69   68 1
    62   70   68 ar
    63   71   70 1
    64   72   70 ar
    65   73   72 1
    66   74    8 1
    67   17   19 ar
    68   28   30 ar
    69   30   31 1
    70   37   45 1
    71   41   45 1
    72   46   47 1
    73   47   64 1
    74   53   61 1
    75   57   61 1
    76   63   64 1
    77   65   74 ar
    78   72   74 ar
@<TRIPOS>SUBSTRUCTURE
     1 RES1 1

@<TRIPOS>CRYSIN
  10.2190   11.8887   24.5399  90.0000  90.0000  90.0000  19 1

