# MOL2 file generated by ConQuest
# Please check atom types

@<TRIPOS>MOLECULE
SAWBOH
    22    22     1
SMALL
NO_CHARGES
****
Generated from CSD

@<TRIPOS>ATOM
      1 C1         1.6378    9.2430    2.8280 C.ar      1 RES1    0.0000
      2 C2         1.3160    8.7427    1.5672 C.ar      1 RES1    0.0000
      3 C3         0.7463    9.5808    0.6083 C.ar      1 RES1    0.0000
      4 C4         0.4985   10.9193    0.9117 C.ar      1 RES1    0.0000
      5 C5         0.8212   11.4197    2.1740 C.ar      1 RES1    0.0000
      6 C6         1.3909   10.5815    3.1314 C.ar      1 RES1    0.0000
      7 C7         2.2926    8.3113    3.8826 C.2       1 RES1    0.0000
      8 N1         1.5315    7.3725    1.1960 N.pl3     1 RES1    0.0000
      9 N2        -0.1646   11.7575   -0.0619 N.pl3     1 RES1    0.0000
     10 N3         1.7275   11.1939    4.3892 N.pl3     1 RES1    0.0000
     11 N4         1.4575    7.8182    4.7869 N.am      1 RES1    0.0000
     12 O1         1.5093    7.0879    0.0059 O.2       1 RES1    0.0000
     13 O2         1.6905    6.5617    2.0694 O.2       1 RES1    0.0000
     14 O3        -0.3486   12.9163    0.2224 O.2       1 RES1    0.0000
     15 O4        -0.5040   11.2514   -1.1135 O.2       1 RES1    0.0000
     16 O5         3.5013    8.1331    3.8384 O.2       1 RES1    0.0000
     17 O6         2.4378   10.5987    5.1507 O.2       1 RES1    0.0000
     18 O7         1.2328   12.2736    4.6279 O.2       1 RES1    0.0000
     19 H1         0.5493    9.2617   -0.2180 H         1 RES1    0.0000
     20 H2         0.7158   12.3843    2.3979 H         1 RES1    0.0000
     21 H3         0.5752    7.9419    4.7015 H         1 RES1    0.0000
     22 H4         1.7756    7.3208    5.4262 H         1 RES1    0.0000
@<TRIPOS>BOND
     1    1    2 ar
     2    2    3 ar
     3    3    4 ar
     4    4    5 ar
     5    5    6 ar
     6    6    1 ar
     7    7    1 1
     8    8    2 1
     9    9    4 1
    10   10    6 1
    11   11    7 1
    12   12    8 2
    13   13    8 2
    14   14    9 2
    15   15    9 2
    16   16    7 2
    17   17   10 2
    18   18   10 2
    19   19    3 1
    20   20    5 1
    21   21   11 1
    22   22   11 1
@<TRIPOS>SUBSTRUCTURE
     1 RES1 1

@<TRIPOS>CRYSIN
   9.2480   14.3770   14.7290  90.0000  90.0000  90.0000  61 1

