# MOL2 file generated by ConQuest
# Please check atom types

@<TRIPOS>MOLECULE
SAWBUN
    21    21     1
SMALL
NO_CHARGES
****
Generated from CSD

@<TRIPOS>ATOM
      1 C1         4.2470    1.8545    8.4210 C.ar      1 RES1    0.0000
      2 C2         5.1703    0.8474    8.1549 C.ar      1 RES1    0.0000
      3 C3         6.2195    0.5326    8.9879 C.ar      1 RES1    0.0000
      4 C4         6.3748    1.2990   10.1306 C.ar      1 RES1    0.0000
      5 C5         5.5045    2.3027   10.4722 C.ar      1 RES1    0.0000
      6 C6         4.4528    2.5410    9.6188 C.ar      1 RES1    0.0000
      7 C7         3.1782    2.2673    7.4319 C.2       1 RES1    0.0000
      8 N1         5.0668    0.0696    6.9034 N.pl3     1 RES1    0.0000
      9 N2         7.5392    1.0253   10.9982 N.pl3     1 RES1    0.0000
     10 N3         3.4816    3.5903   10.0269 N.pl3     1 RES1    0.0000
     11 O1         3.3447    3.1980    6.6782 O.2       1 RES1    0.0000
     12 O2         2.0950    1.5431    7.5100 O.3       1 RES1    0.0000
     13 O3         4.2929    0.4676    6.0563 O.2       1 RES1    0.0000
     14 O4         5.7719   -0.9067    6.7832 O.2       1 RES1    0.0000
     15 O5         8.1585    0.0023   10.8049 O.2       1 RES1    0.0000
     16 O6         7.7869    1.8328   11.8708 O.2       1 RES1    0.0000
     17 O7         3.8125    4.3544   10.9073 O.2       1 RES1    0.0000
     18 O8         2.4141    3.6268    9.4588 O.2       1 RES1    0.0000
     19 H1         1.5786    1.6948    6.8049 H         1 RES1    0.0000
     20 H2         7.0294   -0.1562    8.8280 H         1 RES1    0.0000
     21 H3         5.5183    2.7965   11.2861 H         1 RES1    0.0000
@<TRIPOS>BOND
     1    1    2 ar
     2    2    3 ar
     3    3    4 ar
     4    4    5 ar
     5    5    6 ar
     6    6    1 ar
     7    7    1 1
     8    8    2 1
     9    9    4 1
    10   10    6 1
    11   11    7 2
    12   12    7 1
    13   13    8 2
    14   14    8 2
    15   15    9 2
    16   16    9 2
    17   17   10 2
    18   18   10 2
    19   19   12 1
    20   20    3 1
    21   21    5 1
@<TRIPOS>SUBSTRUCTURE
     1 RES1 1

@<TRIPOS>CRYSIN
   6.5530   11.4050   12.7960  90.0000  90.0000  90.0000  19 1

