# MOL2 file generated by ConQuest
# Please check atom types

@<TRIPOS>MOLECULE
SAWFUT
    40    42     1
SMALL
NO_CHARGES
****
Generated from CSD

@<TRIPOS>ATOM
      1 N1         0.3768    0.8679    7.2790 N.3       1 RES1    0.0000
      2 O1         0.4761    1.0881    8.7246 O.3       1 RES1    0.0000
      3 C1         0.2211    2.4145    8.9785 C.2       1 RES1    0.0000
      4 N2        -0.1868    3.0086    7.8392 N.am      1 RES1    0.0000
      5 C2        -0.4212    2.0122    6.7700 C.3       1 RES1    0.0000
      6 C3         0.2405    2.3821    5.4348 C.3       1 RES1    0.0000
      7 H1         0.6002    3.3036    5.4682 H         1 RES1    0.0000
      8 H2        -0.4145    2.3234    4.6944 H         1 RES1    0.0000
      9 C4         1.3760    1.3653    5.2330 C.3       1 RES1    0.0000
     10 C5         1.7267    1.0258    6.6808 C.3       1 RES1    0.0000
     11 H3         2.2171    1.7840    7.1114 H         1 RES1    0.0000
     12 O2         0.3321    2.8699   10.0931 O.2       1 RES1    0.0000
     13 C6        -0.5787    4.3785    7.7872 C.ar      1 RES1    0.0000
     14 C7         0.3377    5.3381    7.4038 C.ar      1 RES1    0.0000
     15 H4         1.2192    5.0828    7.1583 H         1 RES1    0.0000
     16 C8        -0.0307    6.6738    7.3775 C.ar      1 RES1    0.0000
     17 H5         0.5909    7.3323    7.0917 H         1 RES1    0.0000
     18 C9        -1.3058    7.0484    7.7689 C.ar      1 RES1    0.0000
     19 H6        -1.5484    7.9668    7.7783 H         1 RES1    0.0000
     20 C10       -2.2247    6.0888    8.1455 C.ar      1 RES1    0.0000
     21 H7        -3.1008    6.3476    8.4058 H         1 RES1    0.0000
     22 C11       -1.8725    4.7511    8.1447 C.ar      1 RES1    0.0000
     23 H8        -2.5096    4.0892    8.3870 H         1 RES1    0.0000
     24 C12       -1.8952    1.6653    6.6648 C.3       1 RES1    0.0000
     25 H9        -2.2418    1.4419    7.5532 H         1 RES1    0.0000
     26 H10       -2.0076    0.8971    6.0675 H         1 RES1    0.0000
     27 H11       -2.3860    2.4329    6.3057 H         1 RES1    0.0000
     28 C13        2.5653    1.9594    4.4949 C.3       1 RES1    0.0000
     29 H12        3.2597    1.2762    4.3914 H         1 RES1    0.0000
     30 H13        2.9238    2.7139    5.0067 H         1 RES1    0.0000
     31 H14        2.2795    2.2713    3.6110 H         1 RES1    0.0000
     32 C14        0.8796    0.1142    4.5019 C.3       1 RES1    0.0000
     33 H15        1.6235   -0.5139    4.3877 H         1 RES1    0.0000
     34 H16        0.5280    0.3676    3.6232 H         1 RES1    0.0000
     35 H17        0.1701   -0.3115    5.0273 H         1 RES1    0.0000
     36 O3         2.4805   -0.1493    6.7459 O.3       1 RES1    0.0000
     37 C15        3.1116   -0.3745    8.0074 C.3       1 RES1    0.0000
     38 H18        3.6176   -1.2127    7.9743 H         1 RES1    0.0000
     39 H19        2.4290   -0.4332    8.7078 H         1 RES1    0.0000
     40 H20        3.7203    0.3677    8.2050 H         1 RES1    0.0000
@<TRIPOS>BOND
     1    1    2 1
     2    2    3 1
     3    3    4 1
     4    4    5 1
     5    5    1 1
     6    6    5 1
     7    7    6 1
     8    8    6 1
     9    9    6 1
    10   10    1 1
    11   11   10 1
    12   12    3 2
    13   13    4 1
    14   14   13 ar
    15   15   14 1
    16   16   14 ar
    17   17   16 1
    18   18   16 ar
    19   19   18 1
    20   20   18 ar
    21   21   20 1
    22   22   13 ar
    23   23   22 1
    24   24    5 1
    25   25   24 1
    26   26   24 1
    27   27   24 1
    28   28    9 1
    29   29   28 1
    30   30   28 1
    31   31   28 1
    32   32    9 1
    33   33   32 1
    34   34   32 1
    35   35   32 1
    36   36   10 1
    37   37   36 1
    38   38   37 1
    39   39   37 1
    40   40   37 1
    41    9   10 1
    42   20   22 ar
@<TRIPOS>SUBSTRUCTURE
     1 RES1 1

@<TRIPOS>CRYSIN
   8.1087    9.4194    9.7461  98.4620 102.9210  91.8430   2 1

