# MOL2 file generated by ConQuest
# Please check atom types

@<TRIPOS>MOLECULE
SAWFUS
    33    34     1
SMALL
NO_CHARGES
****
Generated from CSD

@<TRIPOS>ATOM
      1 O1         9.2976    1.3769    0.9601 O.3       1 RES1    0.0000
      2 O2         8.3152    3.1366    1.9424 O.2       1 RES1    0.0000
      3 O3        13.0269    0.2764    6.0400 O.2       1 RES1    0.0000
      4 O4        13.4957   -1.2740    4.6301 O.2       1 RES1    0.0000
      5 N1         7.5875    0.0138    2.8935 N.2       1 RES1    0.0000
      6 N2        12.7268   -0.4527    5.1091 N.pl3     1 RES1    0.0000
      7 C1         5.6611    1.9645    0.5046 C.ar      1 RES1    0.0000
      8 H1         6.3487    2.4669    0.1312 H         1 RES1    0.0000
      9 C2         4.3838    2.0655   -0.0108 C.ar      1 RES1    0.0000
     10 H2         4.2137    2.6260   -0.7331 H         1 RES1    0.0000
     11 C3         3.3655    1.3313    0.5524 C.ar      1 RES1    0.0000
     12 H3         2.5045    1.3963    0.2066 H         1 RES1    0.0000
     13 C4         3.6107    0.5001    1.6228 C.ar      1 RES1    0.0000
     14 H4         2.9179    0.0076    1.9992 H         1 RES1    0.0000
     15 C5         4.8842    0.4022    2.1333 C.ar      1 RES1    0.0000
     16 H5         5.0466   -0.1529    2.8618 H         1 RES1    0.0000
     17 C6         5.9287    1.1230    1.5724 C.ar      1 RES1    0.0000
     18 C7         7.2998    0.9654    2.0968 C.2       1 RES1    0.0000
     19 C8         8.3456    1.9729    1.6612 C.2       1 RES1    0.0000
     20 C9        10.4251    2.2085    0.5855 C.3       1 RES1    0.0000
     21 H6        10.1075    2.9938    0.1345 H         1 RES1    0.0000
     22 H7        11.0055    1.7160    0.0000 H         1 RES1    0.0000
     23 H8        10.9087    2.4654    1.3743 H         1 RES1    0.0000
     24 C10        8.8829   -0.0941    3.4496 C.ar      1 RES1    0.0000
     25 C11        9.3229    0.8144    4.3921 C.ar      1 RES1    0.0000
     26 H9         8.7723    1.5172    4.6527 H         1 RES1    0.0000
     27 C12       10.5778    0.6806    4.9484 C.ar      1 RES1    0.0000
     28 H10       10.8719    1.2824    5.5941 H         1 RES1    0.0000
     29 C13       11.3842   -0.3456    4.5425 C.ar      1 RES1    0.0000
     30 C14       10.9569   -1.2740    3.6185 C.ar      1 RES1    0.0000
     31 H11       11.5179   -1.9660    3.3538 H         1 RES1    0.0000
     32 C15        9.6879   -1.1639    3.0919 C.ar      1 RES1    0.0000
     33 H12        9.3726   -1.8055    2.4977 H         1 RES1    0.0000
@<TRIPOS>BOND
     1    1   19 1
     2    2   19 2
     3    3    6 2
     4    4    6 2
     5    5   18 2
     6    6   29 1
     7    7    8 1
     8    9    7 ar
     9   10    9 1
    10   11    9 ar
    11   12   11 1
    12   13   11 ar
    13   14   13 1
    14   15   13 ar
    15   16   15 1
    16   17    7 ar
    17   18   17 1
    18   19   18 1
    19   20    1 1
    20   21   20 1
    21   22   20 1
    22   23   20 1
    23   24    5 1
    24   25   24 ar
    25   26   25 1
    26   27   25 ar
    27   28   27 1
    28   29   27 ar
    29   30   29 ar
    30   31   30 1
    31   32   24 ar
    32   33   32 1
    33   15   17 ar
    34   30   32 ar
@<TRIPOS>SUBSTRUCTURE
     1 RES1 1

@<TRIPOS>CRYSIN
  11.0730    7.6470   16.6430  90.0000  99.8000  90.0000 231 1

