# MOL2 file generated by ConQuest
# Please check atom types

@<TRIPOS>MOLECULE
SAWMIO
    19    20     1
SMALL
NO_CHARGES
****
Generated from CSD

@<TRIPOS>ATOM
      1 O1         3.9359    4.0380    2.1696 O.3       1 RES1    0.0000
      2 N1         3.1727    4.3057    1.0294 N.2       1 RES1    0.0000
      3 C1         2.9261    3.1329    0.5066 C.2       1 RES1    0.0000
      4 C2         3.4748    2.0585    1.2300 C.2       1 RES1    0.0000
      5 C3         4.0728    2.7088    2.2238 C.2       1 RES1    0.0000
      6 N2         4.8310    2.2254    3.3546 N.pl3     1 RES1    0.0000
      7 O2         5.2169    3.0551    4.1735 O.2       1 RES1    0.0000
      8 O3         5.0314    1.0206    3.4088 O.2       1 RES1    0.0000
      9 C4         2.1309    2.9558   -0.7497 C.2       1 RES1    0.0000
     10 O4         1.7634    3.9058   -1.4032 O.2       1 RES1    0.0000
     11 C5         1.8597    1.5310   -1.0691 C.3       1 RES1    0.0000
     12 H1         1.6912    1.4476   -2.0207 H         1 RES1    0.0000
     13 H2         1.0583    1.2477   -0.6013 H         1 RES1    0.0000
     14 C6         3.0022    0.6185   -0.6892 C.3       1 RES1    0.0000
     15 H3         3.7933    0.8791   -1.1855 H         1 RES1    0.0000
     16 H4         2.7782   -0.2903   -0.9425 H         1 RES1    0.0000
     17 C7         3.3166    0.6564    0.8090 C.3       1 RES1    0.0000
     18 H5         2.5963    0.2404    1.3087 H         1 RES1    0.0000
     19 H6         4.1344    0.1647    0.9870 H         1 RES1    0.0000
@<TRIPOS>BOND
     1    1    2 1
     2    2    3 2
     3    3    4 1
     4    4    5 2
     5    5    1 1
     6    6    5 1
     7    7    6 2
     8    8    6 2
     9    9    3 1
    10   10    9 2
    11   11    9 1
    12   12   11 1
    13   13   11 1
    14   14   11 1
    15   15   14 1
    16   16   14 1
    17   17    4 1
    18   18   17 1
    19   19   17 1
    20   14   17 1
@<TRIPOS>SUBSTRUCTURE
     1 RES1 1

@<TRIPOS>CRYSIN
  10.2744   13.5037   11.4102  90.0000  90.0000  90.0000  61 1

