# MOL2 file generated by ConQuest
# Please check atom types

@<TRIPOS>MOLECULE
SAWNAH
    16    16     1
SMALL
NO_CHARGES
****
Generated from CSD

@<TRIPOS>ATOM
      1 O1         6.3082   10.7764    0.6455 O.3       1 RES1    0.0000
      2 N1         5.2553   10.7608    1.5744 N.2       1 RES1    0.0000
      3 C1         4.4527    9.8230    1.1744 C.2       1 RES1    0.0000
      4 C2         4.8921    9.2037   -0.0023 C.2       1 RES1    0.0000
      5 H1         4.4837    8.5259   -0.4919 H         1 RES1    0.0000
      6 C3         6.0357    9.8256   -0.2440 C.2       1 RES1    0.0000
      7 N2         7.0237    9.6280   -1.2725 N.pl3     1 RES1    0.0000
      8 O2         8.0898   10.2010   -1.1582 O.2       1 RES1    0.0000
      9 O3         6.7201    8.8673   -2.1690 O.2       1 RES1    0.0000
     10 C4         3.2469    9.4890    1.9559 C.2       1 RES1    0.0000
     11 O4         2.5020    8.6107    1.6269 O.2       1 RES1    0.0000
     12 O5         3.1272   10.2189    3.0330 O.3       1 RES1    0.0000
     13 C5         2.0237    9.9031    3.9217 C.3       1 RES1    0.0000
     14 H2         1.1926   10.0532    3.4654 H         1 RES1    0.0000
     15 H3         2.0683   10.4647    4.6993 H         1 RES1    0.0000
     16 H4         2.0805    8.9821    4.1874 H         1 RES1    0.0000
@<TRIPOS>BOND
     1    1    2 1
     2    2    3 2
     3    3    4 1
     4    4    5 1
     5    6    1 1
     6    7    6 1
     7    8    7 2
     8    9    7 2
     9   10    3 1
    10   11   10 2
    11   12   10 1
    12   13   12 1
    13   14   13 1
    14   15   13 1
    15   16   13 1
    16    4    6 2
@<TRIPOS>SUBSTRUCTURE
     1 RES1 1

@<TRIPOS>CRYSIN
   5.9523   15.4120    7.9307  90.0000 103.1900  90.0000  14 1

