# MOL2 file generated by ConQuest
# Please check atom types

@<TRIPOS>MOLECULE
SAWNEL
    26    27     1
SMALL
NO_CHARGES
****
Generated from CSD

@<TRIPOS>ATOM
      1 O1         0.5489    9.8371    3.6556 O.3       1 RES1    0.0000
      2 N1         1.4488    8.8324    4.0319 N.2       1 RES1    0.0000
      3 C1         1.3609    7.9508    3.0684 C.2       1 RES1    0.0000
      4 C2         0.4821    8.3154    2.0559 C.2       1 RES1    0.0000
      5 H1         0.2745    7.8618    1.2721 H         1 RES1    0.0000
      6 C3         0.0212    9.4640    2.4887 C.2       1 RES1    0.0000
      7 N2        -0.9748   10.3541    1.9514 N.pl3     1 RES1    0.0000
      8 O2        -1.4195   10.0545    0.8492 O.2       1 RES1    0.0000
      9 O3        -1.2672   11.3472    2.5805 O.2       1 RES1    0.0000
     10 C4         2.1744    6.7287    3.2317 C.2       1 RES1    0.0000
     11 O4         3.0182    6.5548    4.0662 O.2       1 RES1    0.0000
     12 O5         1.8357    5.7888    2.3577 O.3       1 RES1    0.0000
     13 C5         2.5540    4.5326    2.4789 C.3       1 RES1    0.0000
     14 H2         2.3870    4.1372    3.3477 H         1 RES1    0.0000
     15 H3         3.5084    4.6883    2.3923 H         1 RES1    0.0000
     16 C6         2.0898    3.6185    1.4093 C.ar      1 RES1    0.0000
     17 C7         1.1125    2.6720    1.6722 C.ar      1 RES1    0.0000
     18 H4         0.7061    2.6343    2.5083 H         1 RES1    0.0000
     19 C8         0.7501    1.7870    0.6793 C.ar      1 RES1    0.0000
     20 H5         0.1165    1.1297    0.8573 H         1 RES1    0.0000
     21 C9         1.3104    1.8640   -0.5618 C.ar      1 RES1    0.0000
     22 H6         1.0506    1.2735   -1.2329 H         1 RES1    0.0000
     23 C10        2.2477    2.8072   -0.8100 C.ar      1 RES1    0.0000
     24 H7         2.6354    2.8568   -1.6526 H         1 RES1    0.0000
     25 C11        2.6313    3.6836    0.1551 C.ar      1 RES1    0.0000
     26 H8         3.2682    4.3323   -0.0392 H         1 RES1    0.0000
@<TRIPOS>BOND
     1    1    2 1
     2    2    3 2
     3    3    4 1
     4    4    5 1
     5    6    1 1
     6    7    6 1
     7    8    7 2
     8    9    7 2
     9   10    3 1
    10   11   10 2
    11   12   10 1
    12   13   12 1
    13   14   13 1
    14   15   13 1
    15   16   13 1
    16   17   16 ar
    17   18   17 1
    18   19   17 ar
    19   20   19 1
    20   21   19 ar
    21   22   21 1
    22   23   21 ar
    23   24   23 1
    24   25   16 ar
    25   26   25 1
    26    4    6 2
    27   23   25 ar
@<TRIPOS>SUBSTRUCTURE
     1 RES1 1

@<TRIPOS>CRYSIN
   8.1440   17.1170   16.3300  90.0000  90.0000  90.0000  61 1

