# MOL2 file generated by ConQuest
# Please check atom types

@<TRIPOS>MOLECULE
SAWVAO
    34    36     1
SMALL
USER_CHARGES
****
Generated from CSD

@<TRIPOS>ATOM
      1 N1         4.2683    5.0964    5.9427 N.pl3     1 RES1    1.0000
      2 O1         3.4754    5.5308    5.0519 O.2       1 RES1   -1.0000
      3 C1         5.4605    5.5643    6.3011 C.2       1 RES1    0.0000
      4 C2         6.0332    4.6281    7.3098 C.2       1 RES1    0.0000
      5 O2         7.1320    4.7355    7.8270 O.2       1 RES1    0.0000
      6 C3         4.9938    2.4105    8.2626 C.ar      1 RES1    0.0000
      7 H1         5.7164    2.1815    8.8358 H         1 RES1    0.0000
      8 C4         3.8819    1.5975    8.1667 C.ar      1 RES1    0.0000
      9 H2         3.8406    0.8018    8.6832 H         1 RES1    0.0000
     10 C5         2.8146    1.9227    7.3248 C.ar      1 RES1    0.0000
     11 C6         2.8404    3.0902    6.5355 C.ar      1 RES1    0.0000
     12 H3         2.1302    3.3233    5.9498 H         1 RES1    0.0000
     13 C7         3.9640    3.8657    6.6740 C.ar      1 RES1    0.0000
     14 C8         5.0309    3.5698    7.5000 C.ar      1 RES1    0.0000
     15 C9         6.1348    6.7202    5.7279 C.ar      1 RES1    0.0000
     16 C10        5.5292    7.9908    5.6728 C.ar      1 RES1    0.0000
     17 C11        6.2481    9.0654    5.1555 C.ar      1 RES1    0.0000
     18 H4         5.8409    9.9217    5.0946 H         1 RES1    0.0000
     19 C12        7.5574    8.8907    4.7283 C.ar      1 RES1    0.0000
     20 H5         8.0391    9.6332    4.3829 H         1 RES1    0.0000
     21 C13        8.1721    7.6513    4.7967 C.ar      1 RES1    0.0000
     22 H6         9.0682    7.5405    4.5014 H         1 RES1    0.0000
     23 C14        7.4597    6.5775    5.3032 C.ar      1 RES1    0.0000
     24 H7         7.8792    5.7275    5.3632 H         1 RES1    0.0000
     25 O3         1.7840    1.0462    7.3242 O.3       1 RES1    0.0000
     26 C15        0.7056    1.2844    6.4246 C.3       1 RES1    0.0000
     27 H8         0.0290    0.5846    6.5330 H         1 RES1    0.0000
     28 H9         1.0409    1.2756    5.5034 H         1 RES1    0.0000
     29 H10        0.3065    2.1585    6.6173 H         1 RES1    0.0000
     30 O4         4.2814    8.0868    6.1856 O.3       1 RES1    0.0000
     31 C16        3.7360    9.4040    6.3369 C.3       1 RES1    0.0000
     32 H11        2.8609    9.3469    6.7750 H         1 RES1    0.0000
     33 H12        3.6332    9.8186    5.4550 H         1 RES1    0.0000
     34 H13        4.3407    9.9469    6.8843 H         1 RES1    0.0000
@<TRIPOS>BOND
     1    1    2 1
     2    3    1 2
     3    4    3 1
     4    5    4 2
     5    6    7 1
     6    8    6 ar
     7    9    8 1
     8   10    8 ar
     9   11   10 ar
    10   12   11 1
    11   13    1 1
    12   14    4 1
    13   15    3 1
    14   16   15 ar
    15   17   16 ar
    16   18   17 1
    17   19   17 ar
    18   20   19 1
    19   21   19 ar
    20   22   21 1
    21   23   15 ar
    22   24   23 1
    23   25   10 1
    24   26   25 1
    25   27   26 1
    26   28   26 1
    27   29   26 1
    28   30   16 1
    29   31   30 1
    30   32   31 1
    31   33   31 1
    32   34   31 1
    33    6   14 ar
    34   11   13 ar
    35   13   14 ar
    36   21   23 ar
@<TRIPOS>SUBSTRUCTURE
     1 RES1 1

@<TRIPOS>CRYSIN
   7.2000   10.9680    8.3610  90.0000  93.7000  90.0000   4 1

