# MOL2 file generated by ConQuest
# Please check atom types

@<TRIPOS>MOLECULE
SAWVIW
    32    32     2
SMALL
USER_CHARGES
****
Generated from CSD

@<TRIPOS>ATOM
      1 N1         1.3870    1.8635    6.8912 N.pl3     1 RES1    1.0000
      2 C1         1.3870    1.8635    6.8912 Du        2 SUP2    0.0000
      3 O1         0.6698    1.7927    7.9273 O.2       1 RES1   -1.0000
      4 C2         0.9947    2.0213    5.6005 C.2       1 RES1    0.0000
      5 C3         2.1514    1.9146    4.7652 C.2       1 RES1    0.0000
      6 N2         2.1514    1.9146    4.7652 Du        2 SUP2    0.0000
      7 O2         2.1945    1.9833    3.5303 O.2       1 RES1    0.0000
      8 C4         4.6671    1.6120    5.3844 C.ar      1 RES1    0.0000
      9 H1         4.9933    1.5943    4.4921 H         1 RES1    0.0000
     10 C5         5.5309    1.5144    6.4780 C.ar      1 RES1    0.0000
     11 H2         6.4659    1.4423    6.3273 H         1 RES1    0.0000
     12 C6         5.0558    1.5203    7.7713 C.ar      1 RES1    0.0000
     13 H3         5.6688    1.4600    8.4939 H         1 RES1    0.0000
     14 C7         3.6790    1.6139    8.0393 C.ar      1 RES1    0.0000
     15 H4         3.3380    1.5969    8.9251 H         1 RES1    0.0000
     16 C8         2.8622    1.7305    6.9558 C.ar      1 RES1    0.0000
     17 C9         3.3225    1.7338    5.6554 C.ar      1 RES1    0.0000
     18 C10       -0.3872    2.1943    5.1281 C.ar      1 RES1    0.0000
     19 C11       -1.2161    3.1990    5.6487 C.ar      1 RES1    0.0000
     20 C12       -2.5409    3.3019    5.1862 C.ar      1 RES1    0.0000
     21 H5        -3.1258    3.9523    5.5572 H         1 RES1    0.0000
     22 C13       -2.9886    2.4563    4.1922 C.ar      1 RES1    0.0000
     23 H6        -3.8834    2.5329    3.8823 H         1 RES1    0.0000
     24 C14       -2.1546    1.4967    3.6380 C.ar      1 RES1    0.0000
     25 H7        -2.4655    0.9353    2.9367 H         1 RES1    0.0000
     26 C15       -0.8624    1.3676    4.1215 C.ar      1 RES1    0.0000
     27 H8        -0.2918    0.7015    3.7568 H         1 RES1    0.0000
     28 O3        -0.6619    4.0328    6.5703 O.3       1 RES1    0.0000
     29 C16       -1.3792    5.2354    6.8712 C.3       1 RES1    0.0000
     30 H9        -0.8396    5.7968    7.4666 H         1 RES1    0.0000
     31 H10       -2.2255    5.0101    7.3123 H         1 RES1    0.0000
     32 H11       -1.5636    5.7221    6.0414 H         1 RES1    0.0000
@<TRIPOS>BOND
     1    1    3 1
     2    4    1 2
     3    5    4 1
     4    7    5 2
     5    8    9 1
     6   10    8 ar
     7   11   10 1
     8   12   10 ar
     9   13   12 1
    10   14   12 ar
    11   15   14 1
    12   16    1 1
    13   17    5 1
    14   18    4 1
    15   19   18 ar
    16   20   19 ar
    17   21   20 1
    18   22   20 ar
    19   23   22 1
    20   24   22 ar
    21   25   24 1
    22   26   18 ar
    23   27   26 1
    24   28   19 1
    25   29   28 1
    26   30   29 1
    27   31   29 1
    28   32   29 1
    29    8   17 ar
    30   14   16 ar
    31   16   17 ar
    32   24   26 ar
@<TRIPOS>SUBSTRUCTURE
     1 RES1 1
     2 SUP2 2

@<TRIPOS>CRYSIN
  11.8030    6.5500   15.7170  90.0000 105.7100  90.0000 231 1

