# MOL2 file generated by ConQuest
# Please check atom types

@<TRIPOS>MOLECULE
SAWXUK
    36    31     2
SMALL
USER_CHARGES
****
Generated from CSD

@<TRIPOS>ATOM
      1 O1         3.0945   -0.1786   10.9811 O.2       1 RES1   -1.0000
      2 N1         2.0890    0.5846   11.1649 N.pl3     1 RES1    1.0000
      3 C1         2.0890    0.5846   11.1649 Du        2 SUP2    0.0000
      4 C2         1.2860    1.1582   10.2433 C.2       1 RES1    0.0000
      5 C3         0.2968    1.9473   11.0023 C.2       1 RES1    0.0000
      6 N2         0.2968    1.9473   11.0023 Du        2 SUP2    0.0000
      7 O2        -0.6099    2.6389   10.5373 O.2       1 RES1    0.0000
      8 C4        -0.0279    2.2148   13.5831 C.ar      1 RES1    0.0000
      9 H1        -0.7658    2.7798   13.5457 H         1 RES1    0.0000
     10 C5         0.5132    1.7923   14.8052 C.ar      1 RES1    0.0000
     11 H2         0.1152    2.0811   15.5954 H         1 RES1    0.0000
     12 C6        -0.2560    2.2266   15.9646 Du        2 SUP2    0.0000
     13 H3        -0.9729    2.7916   15.6781 Du        2 SUP2    0.0000
     14 H4         0.3177    2.7066   16.5635 Du        2 SUP2    0.0000
     15 H5        -0.6133    1.4540   16.4138 Du        2 SUP2    0.0000
     16 C7         1.6177    0.9615   14.8819 C.ar      1 RES1    0.0000
     17 H6         1.9540    0.7050   15.7090 Du        2 SUP2    0.0000
     18 C8         2.1647    0.5138   16.2137 C.3       1 RES1    0.0000
     19 H7         2.9770    0.9898   16.4035 H         1 RES1    0.0000
     20 H8         2.3462   -0.4288   16.1841 H         1 RES1    0.0000
     21 H9         1.5211    0.6947   16.9017 H         1 RES1    0.0000
     22 C9         2.2263    0.5083   13.7036 C.ar      1 RES1    0.0000
     23 H10        2.9689   -0.0511   13.7212 H         1 RES1    0.0000
     24 C10        1.6724    0.9316   12.5190 C.ar      1 RES1    0.0000
     25 C11        0.5854    1.7554   12.4374 C.ar      1 RES1    0.0000
     26 C12        1.3872    0.9851    8.8079 C.ar      1 RES1    0.0000
     27 C13        2.3986    0.2478    8.2012 C.ar      1 RES1    0.0000
     28 H11        3.0596   -0.1416    8.7258 H         1 RES1    0.0000
     29 C14        2.4370    0.0858    6.8281 C.ar      1 RES1    0.0000
     30 H12        3.1236   -0.4083    6.4411 H         1 RES1    0.0000
     31 C15        1.4780    0.6444    6.0373 C.ar      1 RES1    0.0000
     32 H13        1.5013    0.5209    5.1167 H         1 RES1    0.0000
     33 C16        0.4818    1.3879    6.6076 C.ar      1 RES1    0.0000
     34 H14       -0.1688    1.7782    6.0693 H         1 RES1    0.0000
     35 C17        0.4318    1.5626    7.9709 C.ar      1 RES1    0.0000
     36 H15       -0.2502    2.0740    8.3411 H         1 RES1    0.0000
@<TRIPOS>BOND
     1    1    2 1
     2    2    4 2
     3    4    5 1
     4    5    7 2
     5    8    9 1
     6   10    8 ar
     7   11   10 1
     8   16   10 ar
     9   18   16 1
    10   19   18 1
    11   20   18 1
    12   21   18 1
    13   22   16 ar
    14   23   22 1
    15   24    2 1
    16   25    5 1
    17   26    4 1
    18   27   26 ar
    19   28   27 1
    20   29   27 ar
    21   30   29 1
    22   31   29 ar
    23   32   31 1
    24   33   31 ar
    25   34   33 1
    26   35   26 ar
    27   36   35 1
    28    8   25 ar
    29   22   24 ar
    30   24   25 ar
    31   33   35 ar
@<TRIPOS>SUBSTRUCTURE
     1 RES1 1
     2 SUP2 3

@<TRIPOS>CRYSIN
  11.6380    7.8680   25.8160  90.0000  90.0000  90.0000  61 1

