# MOL2 file generated by ConQuest
# Please check atom types

@<TRIPOS>MOLECULE
SAWYAR
    29    29     2
SMALL
USER_CHARGES
****
Generated from CSD

@<TRIPOS>ATOM
      1 N1        -0.6838    2.1507    4.5061 N.pl3     1 RES1    1.0000
      2 C1        -0.6838    2.1507    4.5061 Du        2 SUP2    0.0000
      3 O1        -0.2741    1.0142    4.2248 O.2       1 RES1   -1.0000
      4 C2        -1.0565    2.6729    5.7361 C.2       1 RES1    0.0000
      5 C3        -1.5064    3.9964    5.5069 C.2       1 RES1    0.0000
      6 N2        -1.5064    3.9964    5.5069 Du        2 SUP2    0.0000
      7 O2        -1.9733    4.7952    6.3340 O.2       1 RES1    0.0000
      8 C4        -1.5938    5.4434    3.3756 C.ar      1 RES1    0.0000
      9 H1        -1.9265    6.2084    3.7873 H         1 RES1    0.0000
     10 C5        -1.3258    5.4078    2.0004 C.ar      1 RES1    0.0000
     11 H2        -1.4743    6.1666    1.4832 H         1 RES1    0.0000
     12 C6        -0.8482    4.2689    1.4076 C.ar      1 RES1    0.0000
     13 H3        -0.6875    4.2701    0.4920 H         1 RES1    0.0000
     14 C7        -0.5994    3.1250    2.1252 C.ar      1 RES1    0.0000
     15 H4        -0.2763    2.3526    1.7208 H         1 RES1    0.0000
     16 C8        -0.8550    3.1831    3.4752 C.ar      1 RES1    0.0000
     17 C9        -1.3439    4.3120    4.0753 C.ar      1 RES1    0.0000
     18 C10       -1.0076    1.9568    7.0033 C.ar      1 RES1    0.0000
     19 C11       -1.3612    2.6165    8.1997 C.ar      1 RES1    0.0000
     20 H5        -1.6321    3.5060    8.1769 H         1 RES1    0.0000
     21 C12       -1.3083    1.9488    9.4009 C.ar      1 RES1    0.0000
     22 H6        -1.5349    2.3944   10.1857 H         1 RES1    0.0000
     23 C13       -0.9238    0.6302    9.4561 C.ar      1 RES1    0.0000
     24 C14       -0.5751   -0.0349    8.2921 C.ar      1 RES1    0.0000
     25 H7        -0.3151   -0.9271    8.3269 H         1 RES1    0.0000
     26 C15       -0.6137    0.6235    7.0849 C.ar      1 RES1    0.0000
     27 H8        -0.3728    0.1702    6.3097 H         1 RES1    0.0000
     28 C16       -0.8788   -0.0619   10.7306 C.1       1 RES1    0.0000
     29 N3        -0.8530   -0.5881   11.7338 N.1       1 RES1    0.0000
@<TRIPOS>BOND
     1    1    3 1
     2    4    1 2
     3    5    4 1
     4    7    5 2
     5    8    9 1
     6   10    8 ar
     7   11   10 1
     8   12   10 ar
     9   13   12 1
    10   14   12 ar
    11   15   14 1
    12   16    1 1
    13   17    5 1
    14   18    4 1
    15   19   18 ar
    16   20   19 1
    17   21   19 ar
    18   22   21 1
    19   23   21 ar
    20   24   23 ar
    21   25   24 1
    22   26   18 ar
    23   27   26 1
    24   28   23 1
    25   29   28 3
    26    8   17 ar
    27   14   16 ar
    28   16   17 ar
    29   24   26 ar
@<TRIPOS>SUBSTRUCTURE
     1 RES1 1
     2 SUP2 2

@<TRIPOS>CRYSIN
   7.3795    7.5864   12.3950  93.4880 101.0930 115.7250   2 1

