# MOL2 file generated by ConQuest
# Please check atom types

@<TRIPOS>MOLECULE
SAXHAA
    64    64     1
SMALL
NO_CHARGES
****
Generated from CSD

@<TRIPOS>ATOM
      1 O1        10.1789    1.1600    5.2202 O.2       1 RES1    0.0000
      2 O2         8.4945    1.8612    4.0498 O.2       1 RES1    0.0000
      3 O3        13.7171    2.2532    2.0039 O.3       1 RES1    0.0000
      4 O4        13.8068    1.2747   -0.0132 O.2       1 RES1    0.0000
      5 O5        12.4176    3.9895    3.6601 O.3       1 RES1    0.0000
      6 O6        10.4119    4.2639    4.5430 O.2       1 RES1    0.0000
      7 O7        11.9936    4.3394    0.0722 O.3       1 RES1    0.0000
      8 O8        14.0875    4.5282   -0.6519 O.2       1 RES1    0.0000
      9 O9        10.5291    6.1571    1.7609 O.3       1 RES1    0.0000
     10 O10       10.5957    7.3824    3.6469 O.2       1 RES1    0.0000
     11 O11       12.3713    8.4277    1.1667 O.3       1 RES1    0.0000
     12 O12       14.2525    8.9707    0.0674 O.2       1 RES1    0.0000
     13 N1        11.2526   -1.1832    2.8651 N.2       1 RES1    0.0000
     14 N2        10.1731   -0.6315    3.0732 N.2       1 RES1    0.0000
     15 N3         9.5798    1.3516    4.1653 N.pl3     1 RES1    0.0000
     16 C1        10.2672    0.8609    2.8819 C.3       1 RES1    0.0000
     17 C2        11.7910    1.1614    2.9408 C.3       1 RES1    0.0000
     18 C3        12.3452   -0.2352    2.5596 C.3       1 RES1    0.0000
     19 C4        12.2642    2.2561    1.9786 C.3       1 RES1    0.0000
     20 C5        11.8474    3.6672    2.3647 C.3       1 RES1    0.0000
     21 C6        12.4161    4.7125    1.4133 C.3       1 RES1    0.0000
     22 C7        11.9661    6.1251    1.7032 C.3       1 RES1    0.0000
     23 C8        12.4769    7.0833    0.6423 C.3       1 RES1    0.0000
     24 C9         9.5277    1.2050    1.6430 C.3       1 RES1    0.0000
     25 C10       13.5535   -0.6620    3.3751 C.3       1 RES1    0.0000
     26 C11       14.3494    1.7697    0.9033 C.2       1 RES1    0.0000
     27 C12       15.8327    1.9817    1.0561 C.3       1 RES1    0.0000
     28 C13       11.5956    4.2741    4.6753 C.2       1 RES1    0.0000
     29 C14       12.3004    4.6124    5.8937 C.3       1 RES1    0.0000
     30 C15       12.9588    4.2770   -0.8804 C.2       1 RES1    0.0000
     31 C16       12.3843    3.8778   -2.1891 C.3       1 RES1    0.0000
     32 C17        9.9647    6.8162    2.8230 C.2       1 RES1    0.0000
     33 C18        8.4757    6.6797    2.8025 C.3       1 RES1    0.0000
     34 C19       13.3350    9.2973    0.7602 C.2       1 RES1    0.0000
     35 C20       13.0760   10.6722    1.2100 C.3       1 RES1    0.0000
     36 H1        12.0399    1.4082    3.9211 H         1 RES1    0.0000
     37 H2        12.5608   -0.1887    1.4674 H         1 RES1    0.0000
     38 H3        11.9096    2.1196    1.0344 H         1 RES1    0.0000
     39 H4        10.8822    3.6876    2.4297 H         1 RES1    0.0000
     40 H5        13.3423    4.6603    1.3832 H         1 RES1    0.0000
     41 H6        12.2859    6.3008    2.6943 H         1 RES1    0.0000
     42 H7        11.7794    7.0412   -0.1203 H         1 RES1    0.0000
     43 H8        13.3133    6.8235    0.3488 H         1 RES1    0.0000
     44 H9         8.6247    0.9437    1.5877 H         1 RES1    0.0000
     45 H10        9.9560    0.5952    0.7578 H         1 RES1    0.0000
     46 H11        9.5074    2.1632    1.6599 H         1 RES1    0.0000
     47 H12       13.3567   -1.5099    3.6806 H         1 RES1    0.0000
     48 H13       13.8777    0.0290    3.9572 H         1 RES1    0.0000
     49 H14       14.1961   -0.4646    2.6101 H         1 RES1    0.0000
     50 H15       16.3812    1.6551    0.3849 H         1 RES1    0.0000
     51 H16       16.0483    1.4518    1.9485 H         1 RES1    0.0000
     52 H17       16.1641    2.9181    1.0224 H         1 RES1    0.0000
     53 H18       11.8517    4.7764    6.6274 H         1 RES1    0.0000
     54 H19       12.9226    5.2410    5.7855 H         1 RES1    0.0000
     55 H20       12.6766    3.8618    6.1343 H         1 RES1    0.0000
     56 H21       11.4610    3.9489   -2.2733 H         1 RES1    0.0000
     57 H22       12.5608    2.9907   -2.4056 H         1 RES1    0.0000
     58 H23       12.9226    4.0796   -2.8747 H         1 RES1    0.0000
     59 H24        8.0893    7.1283    3.5964 H         1 RES1    0.0000
     60 H25        8.1761    5.5894    2.8025 H         1 RES1    0.0000
     61 H26        8.0459    6.6492    1.8403 H         1 RES1    0.0000
     62 H27       12.4016   11.2224    1.6959 H         1 RES1    0.0000
     63 H28       13.2265   11.0627    0.5052 H         1 RES1    0.0000
     64 H29       13.8343   10.4965    2.0688 H         1 RES1    0.0000
@<TRIPOS>BOND
     1    1   15 2
     2    2   15 2
     3    3   19 1
     4    4   26 2
     5    5   20 1
     6    6   28 2
     7    7   21 1
     8    8   30 2
     9    9   22 1
    10   10   32 2
    11   11   23 1
    12   12   34 2
    13   13   14 2
    14   14   16 1
    15   15   16 1
    16   16   17 1
    17   17   18 1
    18   18   13 1
    19   19   17 1
    20   20   19 1
    21   21   20 1
    22   22   21 1
    23   23   22 1
    24   24   16 1
    25   25   18 1
    26   26    3 1
    27   27   26 1
    28   28    5 1
    29   29   28 1
    30   30    7 1
    31   31   30 1
    32   32    9 1
    33   33   32 1
    34   34   11 1
    35   35   34 1
    36   36   17 1
    37   37   18 1
    38   38   19 1
    39   39   20 1
    40   40   21 1
    41   41   22 1
    42   42   23 1
    43   43   23 1
    44   44   24 1
    45   45   24 1
    46   46   24 1
    47   47   25 1
    48   48   25 1
    49   49   25 1
    50   50   27 1
    51   51   27 1
    52   52   27 1
    53   53   29 1
    54   54   29 1
    55   55   29 1
    56   56   31 1
    57   57   31 1
    58   58   31 1
    59   59   33 1
    60   60   33 1
    61   61   33 1
    62   62   35 1
    63   63   35 1
    64   64   35 1
@<TRIPOS>SUBSTRUCTURE
     1 RES1 1

@<TRIPOS>CRYSIN
  14.4710   14.5180   12.0280  90.0000  90.0000  90.0000  19 1

