# MOL2 file generated by ConQuest
# Please check atom types

@<TRIPOS>MOLECULE
SAXJEJ
    32    33     1
SMALL
USER_CHARGES
****
Generated from CSD

@<TRIPOS>ATOM
      1 O1         1.1544    5.9475    4.2687 O.2       1 RES1    0.0000
      2 O2        -2.6791    6.5877    5.9213 O.2       1 RES1   -1.0000
      3 N1        -0.2909    5.5900    6.0197 N.am      1 RES1    0.0000
      4 N2        -2.2990    7.0116    4.7121 N.pl3     1 RES1    1.0000
      5 N3         2.5309    2.6757    9.8904 N.pl3     1 RES1    0.0000
      6 O3         1.8831    2.2277   10.8363 O.2       1 RES1    0.0000
      7 O4         3.7431    2.5284    9.7869 O.2       1 RES1    0.0000
      8 C1         0.4690    4.8449    6.9131 C.ar      1 RES1    0.0000
      9 N4        -2.3283    7.9533    2.7661 N.3       1 RES1    0.0000
     10 C2         1.8168    3.4131    8.8493 C.ar      1 RES1    0.0000
     11 C3        -3.0668    7.6805    3.8650 C.2       1 RES1    0.0000
     12 H1        -3.9740    7.9249    4.0052 H         1 RES1    0.0000
     13 C4         0.0660    6.0889    4.8031 C.2       1 RES1    0.0000
     14 C5         2.4978    3.8235    7.7221 C.ar      1 RES1    0.0000
     15 H2         3.4184    3.6146    7.6160 H         1 RES1    0.0000
     16 C6        -1.0337    6.8369    4.1531 C.2       1 RES1    0.0000
     17 C7        -0.2011    4.3938    8.0594 C.ar      1 RES1    0.0000
     18 H3        -1.1246    4.5862    8.1706 H         1 RES1    0.0000
     19 C8         1.8267    4.5442    6.7452 C.ar      1 RES1    0.0000
     20 H4         2.2860    4.8331    5.9650 H         1 RES1    0.0000
     21 C9         0.4668    3.6746    9.0259 C.ar      1 RES1    0.0000
     22 H5         0.0109    3.3638    9.7992 H         1 RES1    0.0000
     23 C10       -1.0667    7.4439    2.9228 C.2       1 RES1    0.0000
     24 C11       -0.0195    7.5989    1.8952 C.3       1 RES1    0.0000
     25 H6         0.2290    8.5439    1.8220 H         1 RES1    0.0000
     26 H7        -0.3591    7.2829    1.0323 H         1 RES1    0.0000
     27 H8         0.7673    7.0734    2.1490 H         1 RES1    0.0000
     28 C12       -2.8506    8.6802    1.6029 C.3       1 RES1    0.0000
     29 H9        -3.7180    9.0763    1.8284 H         1 RES1    0.0000
     30 H10       -2.9597    8.0598    0.8517 H         1 RES1    0.0000
     31 H11       -2.2225    9.3895    1.3518 H         1 RES1    0.0000
     32 H12       -1.2492    5.8646    6.2097 H         1 RES1    0.0000
@<TRIPOS>BOND
     1    1   13 2
     2    2    4 1
     3    3    8 1
     4    4   11 2
     5    5    6 2
     6    7    5 2
     7    8   17 ar
     8    9   11 1
     9   10    5 1
    10   11   12 1
    11   13    3 1
    12   14   10 ar
    13   15   14 1
    14   16    4 1
    15   17   18 1
    16   19    8 ar
    17   20   19 1
    18   21   10 ar
    19   22   21 1
    20   23    9 1
    21   24   23 1
    22   25   24 1
    23   26   24 1
    24   27   24 1
    25   28    9 1
    26   29   28 1
    27   30   28 1
    28   31   28 1
    29   32    3 1
    30   13   16 1
    31   14   19 ar
    32   16   23 2
    33   17   21 ar
@<TRIPOS>SUBSTRUCTURE
     1 RES1 1

@<TRIPOS>CRYSIN
   6.8475    8.0309   10.6862  90.1050  90.0640  94.4920   2 1

