# MOL2 file generated by ConQuest
# Please check atom types

@<TRIPOS>MOLECULE
SAXJIN
    34    35     1
SMALL
USER_CHARGES
****
Generated from CSD

@<TRIPOS>ATOM
      1 O1        10.5953    0.9205    1.7773 O.2       1 RES1    0.0000
      2 C1        13.5495    2.0073   -2.7530 C.3       1 RES1    0.0000
      3 H1        12.8027    2.4596   -3.1999 H         1 RES1    0.0000
      4 H2        13.5926    1.0752   -3.0528 H         1 RES1    0.0000
      5 H3        14.3876    2.4619   -2.9766 H         1 RES1    0.0000
      6 C2         9.6659    0.6653    8.8177 C.3       1 RES1    0.0000
      7 H4         9.5832    0.7098    9.7942 H         1 RES1    0.0000
      8 H5         9.7928   -0.2666    8.5437 H         1 RES1    0.0000
      9 H6         8.8508    1.0198    8.4044 H         1 RES1    0.0000
     10 C3        11.1183    0.9092   -1.2965 C.3       1 RES1    0.0000
     11 H7        10.7412    0.2239   -0.7067 H         1 RES1    0.0000
     12 H8        11.4237    0.4912   -2.1280 H         1 RES1    0.0000
     13 H9        10.4331    1.5791   -1.5001 H         1 RES1    0.0000
     14 O2        10.7891    1.4424    8.3981 O.3       1 RES1    0.0000
     15 O3        14.3136    2.9639    1.8866 O.2       1 RES1   -1.0000
     16 N1        12.2275    1.9288    3.0462 N.am      1 RES1    0.0000
     17 N2        13.3476    2.0448   -1.3078 N.pl3     1 RES1    0.0000
     18 N3        13.7241    2.5105    0.7740 N.pl3     1 RES1    1.0000
     19 C4        11.0313    1.5229    7.0522 C.ar      1 RES1    0.0000
     20 C5        12.4904    1.8472    0.7067 C.2       1 RES1    0.0000
     21 C6        11.6684    1.5197    1.8848 C.2       1 RES1    0.0000
     22 C7        12.2689    1.5667   -0.6200 C.2       1 RES1    0.0000
     23 C8        12.4626    2.4475    5.3592 C.ar      1 RES1    0.0000
     24 H10       13.1989    2.9980    5.1178 H         1 RES1    0.0000
     25 C9        11.7471    1.7741    4.3591 C.ar      1 RES1    0.0000
     26 C10       10.6558    0.9965    4.7279 C.ar      1 RES1    0.0000
     27 H11       10.1507    0.5473    4.0617 H         1 RES1    0.0000
     28 C11       14.2192    2.6106   -0.4429 C.2       1 RES1    0.0000
     29 H12       15.0483    3.0122   -0.6726 H         1 RES1    0.0000
     30 C12       10.2969    0.8704    6.0688 C.ar      1 RES1    0.0000
     31 H13        9.5487    0.3377    6.3105 H         1 RES1    0.0000
     32 C13       12.1147    2.3232    6.6841 C.ar      1 RES1    0.0000
     33 H14       12.6123    2.7824    7.3509 H         1 RES1    0.0000
     34 H15       13.0737    2.3885    2.8978 H         1 RES1    0.0000
@<TRIPOS>BOND
     1    1   21 2
     2    2    3 1
     3    4    2 1
     4    5    2 1
     5    6    7 1
     6    8    6 1
     7    9    6 1
     8   10   11 1
     9   12   10 1
    10   13   10 1
    11   14    6 1
    12   15   18 1
    13   16   21 1
    14   17    2 1
    15   18   20 1
    16   19   14 1
    17   20   21 1
    18   22   10 1
    19   23   24 1
    20   25   16 1
    21   26   25 ar
    22   27   26 1
    23   28   17 1
    24   29   28 1
    25   30   19 ar
    26   31   30 1
    27   32   19 ar
    28   33   32 1
    29   34   16 1
    30   17   22 1
    31   18   28 2
    32   20   22 2
    33   23   25 ar
    34   23   32 ar
    35   26   30 ar
@<TRIPOS>SUBSTRUCTURE
     1 RES1 1

@<TRIPOS>CRYSIN
  12.7810    7.4875   26.2720  90.0000  90.0000  90.0000  61 1

