# MOL2 file generated by ConQuest
# Please check atom types

@<TRIPOS>MOLECULE
SAYMUD
    56    58     1
SMALL
NO_CHARGES
****
Generated from CSD

@<TRIPOS>ATOM
      1 O1         6.2150    5.5160    4.9160 O.2       1 RES1    0.0000
      2 O2         6.0447    5.6336    7.0306 O.2       1 RES1    0.0000
      3 O3         0.1312    2.6399    4.5065 O.3       1 RES1    0.0000
      4 O4        -0.3580    3.2116    6.5842 O.2       1 RES1    0.0000
      5 N1         5.6085    5.3430    5.9463 N.pl3     1 RES1    0.0000
      6 C1         4.2744    4.7688    5.8754 C.ar      1 RES1    0.0000
      7 C2         3.8900    4.1786    4.7124 C.ar      1 RES1    0.0000
      8 H1         4.4677    4.1371    3.9851 H         1 RES1    0.0000
      9 C3         2.6381    3.6484    4.6401 C.ar      1 RES1    0.0000
     10 H2         2.3585    3.2339    3.8565 H         1 RES1    0.0000
     11 C4         1.7752    3.7196    5.7199 C.ar      1 RES1    0.0000
     12 C5         2.2011    4.3147    6.8816 C.ar      1 RES1    0.0000
     13 H3         1.6332    4.3547    7.6168 H         1 RES1    0.0000
     14 C6         3.4523    4.8460    6.9624 C.ar      1 RES1    0.0000
     15 H4         3.7425    5.2552    7.7454 H         1 RES1    0.0000
     16 C7         0.4061    3.1781    5.6768 C.2       1 RES1    0.0000
     17 C8        -1.1897    2.0957    4.3342 C.3       1 RES1    0.0000
     18 H5        -1.8561    2.7992    4.3803 H         1 RES1    0.0000
     19 H6        -1.3804    1.4426    5.0247 H         1 RES1    0.0000
     20 C9        -1.2030    1.4471    2.9811 C.3       1 RES1    0.0000
     21 C10       -0.2141    0.2939    2.9424 C.3       1 RES1    0.0000
     22 H7         0.6722    0.6264    3.1052 H         1 RES1    0.0000
     23 H8        -0.2448   -0.1254    2.0792 H         1 RES1    0.0000
     24 H9        -0.4435   -0.3478    3.6182 H         1 RES1    0.0000
     25 C11       -1.1871    2.4681    1.7432 C.3       1 RES1    0.0000
     26 C12       -2.5419    1.9237    1.4700 C.2       1 RES1    0.0000
     27 H10       -3.1574    2.1112    0.7986 H         1 RES1    0.0000
     28 C13       -2.5915    1.0843    2.4942 C.2       1 RES1    0.0000
     29 C14       -3.5520    0.0888    2.9544 C.ar      1 RES1    0.0000
     30 C15       -4.6754   -0.1745    2.1788 C.ar      1 RES1    0.0000
     31 H11       -4.8189    0.3005    1.3929 H         1 RES1    0.0000
     32 C16       -5.5831   -1.1482    2.5788 C.ar      1 RES1    0.0000
     33 H12       -6.3343   -1.3245    2.0602 H         1 RES1    0.0000
     34 C17       -5.3679   -1.8580    3.7544 C.ar      1 RES1    0.0000
     35 H13       -5.9756   -2.5094    4.0216 H         1 RES1    0.0000
     36 C18       -4.2447   -1.5951    4.5299 C.ar      1 RES1    0.0000
     37 H14       -4.1015   -2.0692    5.3157 H         1 RES1    0.0000
     38 C19       -3.3368   -0.6214    4.1299 C.ar      1 RES1    0.0000
     39 H15       -2.5850   -0.4451    4.6483 H         1 RES1    0.0000
     40 C20       -1.1789    3.9546    2.0832 C.3       1 RES1    0.0000
     41 H16       -1.9008    4.1497    2.6856 H         1 RES1    0.0000
     42 H17       -1.2866    4.4680    1.2792 H         1 RES1    0.0000
     43 H18       -0.3437    4.1828    2.4988 H         1 RES1    0.0000
     44 C21       -0.1885    2.1906    0.6209 C.3       1 RES1    0.0000
     45 H19       -0.1836    1.2364    0.4480 H         1 RES1    0.0000
     46 H20       -0.5070    2.6295   -0.1841 H         1 RES1    0.0000
     47 C22        1.2307    2.6316    0.8650 C.3       1 RES1    0.0000
     48 H21        1.5557    2.1988    1.6704 H         1 RES1    0.0000
     49 H22        1.2358    3.5882    1.0233 H         1 RES1    0.0000
     50 C23        2.1862    2.3192   -0.2748 C.3       1 RES1    0.0000
     51 H23        3.0921    2.5017    0.0217 H         1 RES1    0.0000
     52 H24        2.1295    1.3727   -0.4765 H         1 RES1    0.0000
     53 C24        1.9363    3.0801   -1.5147 C.3       1 RES1    0.0000
     54 H25        2.6192    2.8784   -2.1577 H         1 RES1    0.0000
     55 H26        1.9461    4.0210   -1.3211 H         1 RES1    0.0000
     56 H27        1.0782    2.8373   -1.8721 H         1 RES1    0.0000
@<TRIPOS>BOND
     1    1    5 2
     2    2    5 2
     3    3   16 1
     4    4   16 2
     5    5    6 1
     6    6    7 ar
     7    7    8 1
     8    9    7 ar
     9   10    9 1
    10   11    9 ar
    11   12   11 ar
    12   13   12 1
    13   14    6 ar
    14   15   14 1
    15   16   11 1
    16   17    3 1
    17   18   17 1
    18   19   17 1
    19   20   17 1
    20   21   20 1
    21   22   21 1
    22   23   21 1
    23   24   21 1
    24   25   20 1
    25   26   25 1
    26   27   26 1
    27   28   20 1
    28   29   28 1
    29   30   29 ar
    30   31   30 1
    31   32   30 ar
    32   33   32 1
    33   34   32 ar
    34   35   34 1
    35   36   34 ar
    36   37   36 1
    37   38   29 ar
    38   39   38 1
    39   40   25 1
    40   41   40 1
    41   42   40 1
    42   43   40 1
    43   44   25 1
    44   45   44 1
    45   46   44 1
    46   47   44 1
    47   48   47 1
    48   49   47 1
    49   50   47 1
    50   51   50 1
    51   52   50 1
    52   53   50 1
    53   54   53 1
    54   55   53 1
    55   56   53 1
    56   12   14 ar
    57   26   28 2
    58   36   38 ar
@<TRIPOS>SUBSTRUCTURE
     1 RES1 1

@<TRIPOS>CRYSIN
   8.7800    9.4290   14.1320 104.7000  92.4700 109.3320   2 1

