# MOL2 file generated by ConQuest
# Please check atom types

@<TRIPOS>MOLECULE
SAYROZ
    50    50     1
SMALL
NO_CHARGES
****
Generated from CSD

@<TRIPOS>ATOM
      1 C1         9.9449    5.0527    2.9161 C.ar      1 RES1    0.0000
      2 C2         9.9369    6.1861    2.1125 C.ar      1 RES1    0.0000
      3 C3        11.1246    6.7467    1.6642 C.ar      1 RES1    0.0000
      4 C4        12.3335    6.1867    2.0228 C.ar      1 RES1    0.0000
      5 C5        12.3640    5.0637    2.8043 C.ar      1 RES1    0.0000
      6 C6        11.1803    4.5021    3.2526 C.ar      1 RES1    0.0000
      7 C7         8.6741    4.4228    3.4716 C.3       1 RES1    0.0000
      8 C8         7.8073    5.5319    4.0678 C.2       1 RES1    0.0000
      9 O1         7.0025    6.1631    3.4261 O.2       1 RES1    0.0000
     10 C9         8.0966    5.8645    5.5002 C.3       1 RES1    0.0000
     11 C10        7.9442    3.4830    2.4724 C.3       1 RES1    0.0000
     12 C11        7.4555    4.2171    1.2205 C.3       1 RES1    0.0000
     13 N1         8.8442    2.4305    1.9646 N.3       1 RES1    0.0000
     14 O2         9.2511    1.6596    3.1432 O.3       1 RES1    0.0000
     15 C12        9.9688    0.5830    2.8345 C.2       1 RES1    0.0000
     16 O3        10.3779    0.3893    1.7527 O.2       1 RES1    0.0000
     17 C13       10.1795   -0.2711    4.0375 C.3       1 RES1    0.0000
     18 C14        6.7782    2.8083    3.2526 C.2       1 RES1    0.0000
     19 O4         6.5519    3.2066    4.3939 O.2       1 RES1    0.0000
     20 N2         6.0461    1.8206    2.7076 N.am      1 RES1    0.0000
     21 C15        6.1361    1.2505    1.3567 C.3       1 RES1    0.0000
     22 C16        4.9896    1.6774    0.4588 C.3       1 RES1    0.0000
     23 C17        5.0425    1.1965    3.5834 C.3       1 RES1    0.0000
     24 C18        5.6460    0.1440    4.4673 C.3       1 RES1    0.0000
     25 H1         9.0963    6.5703    1.8982 H         1 RES1    0.0000
     26 H2        11.0691    7.5421    1.1529 H         1 RES1    0.0000
     27 H3        13.1944    6.5886    1.7119 H         1 RES1    0.0000
     28 H4        13.1826    4.6424    3.0512 H         1 RES1    0.0000
     29 H5        11.1830    3.6891    3.7499 H         1 RES1    0.0000
     30 H6         8.9490    3.8612    4.1924 H         1 RES1    0.0000
     31 H7         7.6249    6.6852    5.7995 H         1 RES1    0.0000
     32 H8         7.8496    5.1521    6.0557 H         1 RES1    0.0000
     33 H9         9.0485    6.0410    5.6365 H         1 RES1    0.0000
     34 H10        7.0640    3.6333    0.6056 H         1 RES1    0.0000
     35 H11        6.8661    4.9829    1.5139 H         1 RES1    0.0000
     36 H12        8.2266    4.5994    0.7104 H         1 RES1    0.0000
     37 H13        9.3992    2.5923    1.5605 H         1 RES1    0.0000
     38 H14       10.7655   -1.0065    3.8081 H         1 RES1    0.0000
     39 H15       10.5188    0.2599    4.7631 H         1 RES1    0.0000
     40 H16        9.3699   -0.6212    4.2972 H         1 RES1    0.0000
     41 H17        7.0383    1.4400    0.9433 H         1 RES1    0.0000
     42 H18        6.1074    0.2686    1.4324 H         1 RES1    0.0000
     43 H19        5.1089    1.4216   -0.4891 H         1 RES1    0.0000
     44 H20        4.1293    1.3842    0.8035 H         1 RES1    0.0000
     45 H21        4.9058    2.7110    0.4425 H         1 RES1    0.0000
     46 H22        4.6095    1.9245    4.1458 H         1 RES1    0.0000
     47 H23        4.3955    0.8085    3.0162 H         1 RES1    0.0000
     48 H24        4.9542   -0.2888    4.9843 H         1 RES1    0.0000
     49 H25        6.1887   -0.5823    3.9362 H         1 RES1    0.0000
     50 H26        6.3337    0.4595    5.0193 H         1 RES1    0.0000
@<TRIPOS>BOND
     1    1    2 ar
     2    2    3 ar
     3    3    4 ar
     4    4    5 ar
     5    5    6 ar
     6    6    1 ar
     7    7    1 1
     8    8    7 1
     9    9    8 2
    10   10    8 1
    11   11    7 1
    12   12   11 1
    13   13   11 1
    14   14   13 1
    15   15   14 1
    16   16   15 2
    17   17   15 1
    18   18   11 1
    19   19   18 2
    20   20   18 1
    21   21   20 1
    22   22   21 1
    23   23   20 1
    24   24   23 1
    25   25    2 1
    26   26    3 1
    27   27    4 1
    28   28    5 1
    29   29    6 1
    30   30    7 1
    31   31   10 1
    32   32   10 1
    33   33   10 1
    34   34   12 1
    35   35   12 1
    36   36   12 1
    37   37   13 1
    38   38   17 1
    39   39   17 1
    40   40   17 1
    41   41   21 1
    42   42   21 1
    43   43   22 1
    44   44   22 1
    45   45   22 1
    46   46   23 1
    47   47   23 1
    48   48   24 1
    49   49   24 1
    50   50   24 1
@<TRIPOS>SUBSTRUCTURE
     1 RES1 1

@<TRIPOS>CRYSIN
   8.6590    9.8590   11.8910  78.4100  87.2500  70.0300   2 1

