# MOL2 file generated by ConQuest
# Please check atom types

@<TRIPOS>MOLECULE
SAYVEV01
    48    50     1
SMALL
NO_CHARGES
****
Generated from CSD

@<TRIPOS>ATOM
      1 O1        -1.8254   14.6333    8.3580 O.2       1 RES1    0.0000
      2 O2         2.1732   11.8776    9.7062 O.2       1 RES1    0.0000
      3 O3        -2.5950    7.8966    6.3816 O.2       1 RES1    0.0000
      4 O4        -1.2095    7.9707    4.7192 O.2       1 RES1    0.0000
      5 N1         2.1764   14.6758    5.8939 N.pl3     1 RES1    0.0000
      6 N2        -1.6763    8.4259    5.7618 N.pl3     1 RES1    0.0000
      7 C1         2.9410   15.2234    4.7725 C.3       1 RES1    0.0000
      8 H1         3.8392   15.4870    5.0959 H         1 RES1    0.0000
      9 H2         2.4885   16.0407    4.4433 H         1 RES1    0.0000
     10 C2         0.8506   15.0053    6.0681 C.2       1 RES1    0.0000
     11 H3         0.4581   15.6491    5.4904 H         1 RES1    0.0000
     12 C3         0.0893   14.4455    7.0329 C.2       1 RES1    0.0000
     13 C4         0.6127   13.2737    7.8518 C.3       1 RES1    0.0000
     14 H4         0.3149   13.3901    8.7996 H         1 RES1    0.0000
     15 C5         2.1268   13.2627    7.8222 C.2       1 RES1    0.0000
     16 C6         2.7982   13.8918    6.8351 C.2       1 RES1    0.0000
     17 H5         3.7411   13.7859    6.7884 H         1 RES1    0.0000
     18 C7        -1.2379   14.9929    7.3441 C.2       1 RES1    0.0000
     19 C8        -1.8506   16.0298    6.4306 C.3       1 RES1    0.0000
     20 H6        -2.7582   16.2407    6.7372 H         1 RES1    0.0000
     21 H7        -1.8883   15.6786    5.5170 H         1 RES1    0.0000
     22 H8        -1.3049   16.8450    6.4452 H         1 RES1    0.0000
     23 C9         2.8203   12.4722    8.8498 C.2       1 RES1    0.0000
     24 C10        4.3257   12.3900    8.8415 C.3       1 RES1    0.0000
     25 H9         4.7018   13.2827    8.9860 H         1 RES1    0.0000
     26 H10        4.6296   12.0448    7.9769 H         1 RES1    0.0000
     27 H11        4.6235   11.7900    9.5567 H         1 RES1    0.0000
     28 C11        3.1001   14.2512    3.6203 C.ar      1 RES1    0.0000
     29 C12        4.2552   14.2979    2.8465 C.ar      1 RES1    0.0000
     30 H12        4.9355   14.9270    3.0551 H         1 RES1    0.0000
     31 C13        4.4220   13.4358    1.7748 C.ar      1 RES1    0.0000
     32 H13        5.2098   13.4827    1.2468 H         1 RES1    0.0000
     33 C14        3.4410   12.5056    1.4729 C.ar      1 RES1    0.0000
     34 H14        3.5605   11.9037    0.7479 H         1 RES1    0.0000
     35 C15        2.2890   12.4585    2.2297 C.ar      1 RES1    0.0000
     36 H15        1.6142   11.8237    2.0203 H         1 RES1    0.0000
     37 C16        2.1078   13.3358    3.3011 C.ar      1 RES1    0.0000
     38 H16        1.3058   13.3059    3.8102 H         1 RES1    0.0000
     39 C17        0.0301   11.9648    7.3171 C.ar      1 RES1    0.0000
     40 C18        0.5522   11.3715    6.1675 C.ar      1 RES1    0.0000
     41 H17        1.3008   11.7648    5.7352 H         1 RES1    0.0000
     42 C19       -0.0091   10.2146    5.6486 C.ar      1 RES1    0.0000
     43 H18        0.3409    9.8152    4.8603 H         1 RES1    0.0000
     44 C20       -1.0882    9.6558    6.3037 C.ar      1 RES1    0.0000
     45 C21       -1.6147   10.2022    7.4601 C.ar      1 RES1    0.0000
     46 H19       -2.3490    9.7920    7.9011 H         1 RES1    0.0000
     47 C22       -1.0451   11.3637    7.9621 C.ar      1 RES1    0.0000
     48 H20       -1.3949   11.7542    8.7555 H         1 RES1    0.0000
@<TRIPOS>BOND
     1    1   18 2
     2    2   23 2
     3    3    6 2
     4    4    6 2
     5    5    7 1
     6    6   44 1
     7    7    8 1
     8    9    7 1
     9   10    5 1
    10   11   10 1
    11   12   10 2
    12   13   12 1
    13   14   13 1
    14   15   13 1
    15   16    5 1
    16   17   16 1
    17   18   12 1
    18   19   18 1
    19   20   19 1
    20   21   19 1
    21   22   19 1
    22   23   15 1
    23   24   23 1
    24   25   24 1
    25   26   24 1
    26   27   24 1
    27   28    7 1
    28   29   28 ar
    29   30   29 1
    30   31   29 ar
    31   32   31 1
    32   33   31 ar
    33   34   33 1
    34   35   33 ar
    35   36   35 1
    36   37   28 ar
    37   38   37 1
    38   39   13 1
    39   40   39 ar
    40   41   40 1
    41   42   40 ar
    42   43   42 1
    43   44   42 ar
    44   45   44 ar
    45   46   45 1
    46   47   39 ar
    47   48   47 1
    48   15   16 2
    49   35   37 ar
    50   45   47 ar
@<TRIPOS>SUBSTRUCTURE
     1 RES1 1

@<TRIPOS>CRYSIN
   8.5606   21.0536   10.9717  90.0000 110.9680  90.0000  14 1

