# MOL2 file generated by ConQuest
# Please check atom types

@<TRIPOS>MOLECULE
SAYWIB
    53    55     1
SMALL
NO_CHARGES
****
Generated from CSD

@<TRIPOS>ATOM
      1 O1        -3.8347   -1.6936   27.0789 O.2       1 RES1    0.0000
      2 O2        -2.8618   -3.5379   27.6395 O.2       1 RES1    0.0000
      3 O3         3.0536   -1.2888   24.8443 O.2       1 RES1    0.0000
      4 O4         1.9027    0.5031   24.0910 O.3       1 RES1    0.0000
      5 N1        -2.8593   -2.4181   27.1202 N.pl3     1 RES1    0.0000
      6 C1        -1.5985   -1.9564   26.5105 C.ar      1 RES1    0.0000
      7 C2        -0.4520   -2.7041   26.6836 C.ar      1 RES1    0.0000
      8 H1        -0.4695   -3.4866   27.1874 H         1 RES1    0.0000
      9 C3         0.7252   -2.2684   26.0972 C.ar      1 RES1    0.0000
     10 H2         1.5079   -2.7610   26.1980 H         1 RES1    0.0000
     11 C4         0.7313   -1.0961   25.3584 C.ar      1 RES1    0.0000
     12 C5        -0.4410   -0.3678   25.1982 C.ar      1 RES1    0.0000
     13 H3        -0.4293    0.4142   24.6944 H         1 RES1    0.0000
     14 C6        -1.6265   -0.7913   25.7769 C.ar      1 RES1    0.0000
     15 H4        -2.4138   -0.3059   25.6735 H         1 RES1    0.0000
     16 C7         2.0252   -0.6643   24.7487 C.2       1 RES1    0.0000
     17 C8         3.0956    1.0553   23.4983 C.3       1 RES1    0.0000
     18 H5         3.8785    0.6411   23.8936 H         1 RES1    0.0000
     19 H6         3.1369    2.0084   23.6740 H         1 RES1    0.0000
     20 C9         3.0930    0.8145   22.0077 C.3       1 RES1    0.0000
     21 H7         3.0799   -0.1392   21.7830 H         1 RES1    0.0000
     22 C10        4.2065    1.5760   21.2844 C.2       1 RES1    0.0000
     23 C11        3.3636    2.3065   20.5688 C.2       1 RES1    0.0000
     24 H8         3.4999    2.9819   19.9462 H         1 RES1    0.0000
     25 C12        2.0906    1.6654   21.1165 C.3       1 RES1    0.0000
     26 C13        1.1715    2.6263   21.8501 C.3       1 RES1    0.0000
     27 H9         0.5082    2.1287   22.3307 H         1 RES1    0.0000
     28 H10        0.7425    3.2039   21.2146 H         1 RES1    0.0000
     29 H11        1.6872    3.1536   22.4650 H         1 RES1    0.0000
     30 C14        1.3625    0.8327   20.0935 C.3       1 RES1    0.0000
     31 H12        0.5942    0.4202   20.5197 H         1 RES1    0.0000
     32 H13        1.9502    0.1204   19.7989 H         1 RES1    0.0000
     33 C15        0.8778    1.6179   18.8560 C.3       1 RES1    0.0000
     34 H14        0.2228    2.2751   19.1428 H         1 RES1    0.0000
     35 H15        1.6311    2.1033   18.4814 H         1 RES1    0.0000
     36 C16        0.2826    0.7952   17.8020 C.3       1 RES1    0.0000
     37 H16       -0.4863    0.3247   18.1559 H         1 RES1    0.0000
     38 H17        0.9303    0.1381   17.5023 H         1 RES1    0.0000
     39 C17       -0.1574    1.6676   16.5982 C.3       1 RES1    0.0000
     40 H18       -0.6361    1.1221   15.9678 H         1 RES1    0.0000
     41 H19        0.6181    2.0420   16.1719 H         1 RES1    0.0000
     42 H20       -0.7276    2.3745   16.9056 H         1 RES1    0.0000
     43 C18        5.6546    1.4716   21.3929 C.ar      1 RES1    0.0000
     44 C19        6.2752    0.3948   22.0387 C.ar      1 RES1    0.0000
     45 H21        5.7540   -0.2805   22.4133 H         1 RES1    0.0000
     46 C20        7.6461    0.3286   22.1291 C.ar      1 RES1    0.0000
     47 H22        8.0439   -0.3959   22.5554 H         1 RES1    0.0000
     48 C21        8.4379    1.3164   21.5944 C.ar      1 RES1    0.0000
     49 H23        9.3625    1.2629   21.6667 H         1 RES1    0.0000
     50 C22        7.8576    2.3772   20.9589 C.ar      1 RES1    0.0000
     51 H24        8.3913    3.0465   20.5920 H         1 RES1    0.0000
     52 C23        6.4894    2.4589   20.8555 C.ar      1 RES1    0.0000
     53 H25        6.1093    3.1873   20.4215 H         1 RES1    0.0000
@<TRIPOS>BOND
     1    1    5 2
     2    2    5 2
     3    3   16 2
     4    4   16 1
     5    5    6 1
     6    6    7 ar
     7    7    8 1
     8    9    7 ar
     9   10    9 1
    10   11    9 ar
    11   12   11 ar
    12   13   12 1
    13   14    6 ar
    14   15   14 1
    15   16   11 1
    16   17    4 1
    17   18   17 1
    18   19   17 1
    19   20   17 1
    20   21   20 1
    21   22   20 1
    22   23   22 2
    23   24   23 1
    24   25   20 1
    25   26   25 1
    26   27   26 1
    27   28   26 1
    28   29   26 1
    29   30   25 1
    30   31   30 1
    31   32   30 1
    32   33   30 1
    33   34   33 1
    34   35   33 1
    35   36   33 1
    36   37   36 1
    37   38   36 1
    38   39   36 1
    39   40   39 1
    40   41   39 1
    41   42   39 1
    42   43   22 1
    43   44   43 ar
    44   45   44 1
    45   46   44 ar
    46   47   46 1
    47   48   46 ar
    48   49   48 1
    49   50   48 ar
    50   51   50 1
    51   52   43 ar
    52   53   52 1
    53   12   14 ar
    54   23   25 1
    55   50   52 ar
@<TRIPOS>SUBSTRUCTURE
     1 RES1 1

@<TRIPOS>CRYSIN
  14.4140    5.5220   28.1160  90.0000 113.2450  90.0000  14 1

