# MOL2 file generated by ConQuest
# Please check atom types

@<TRIPOS>MOLECULE
SAYWAS
    45    47     1
SMALL
NO_CHARGES
****
Generated from CSD

@<TRIPOS>ATOM
      1 O1        -3.0205    6.1619    0.5979 O.2       1 RES1    0.0000
      2 O2         1.1513    8.9558    0.1912 O.2       1 RES1    0.0000
      3 O3        -3.2276   11.9963    4.2237 O.2       1 RES1    0.0000
      4 O4        -2.6190   10.8397    5.9493 O.2       1 RES1    0.0000
      5 N1         1.1147    4.8052    2.4356 N.pl3     1 RES1    0.0000
      6 N2        -2.7092   11.0049    4.7372 N.pl3     1 RES1    0.0000
      7 C1        -0.2376    4.6575    2.1828 C.2       1 RES1    0.0000
      8 H1        -0.6515    3.8335    2.4143 H         1 RES1    0.0000
      9 C2        -0.9981    5.6180    1.6269 C.2       1 RES1    0.0000
     10 C3        -0.4403    6.9909    1.2908 C.3       1 RES1    0.0000
     11 H2        -0.6693    7.2011    0.3399 H         1 RES1    0.0000
     12 C4         1.0722    6.9873    1.4308 C.2       1 RES1    0.0000
     13 C5         1.7412    5.9583    1.9947 C.2       1 RES1    0.0000
     14 H3         2.6837    6.0287    2.0933 H         1 RES1    0.0000
     15 C6        -2.4110    5.3587    1.2896 C.2       1 RES1    0.0000
     16 C7        -3.0841    4.1168    1.8112 C.3       1 RES1    0.0000
     17 H4        -3.1286    4.1555    2.7891 H         1 RES1    0.0000
     18 H5        -2.5705    3.3273    1.5391 H         1 RES1    0.0000
     19 H6        -3.9907    4.0582    1.4444 H         1 RES1    0.0000
     20 C8         1.7847    8.1389    0.8546 C.2       1 RES1    0.0000
     21 C9         3.2667    8.3084    1.0722 C.3       1 RES1    0.0000
     22 H7         3.7506    7.6065    0.5881 H         1 RES1    0.0000
     23 H8         3.4659    8.2425    2.0296 H         1 RES1    0.0000
     24 H9         3.5472    9.1862    0.7397 H         1 RES1    0.0000
     25 C10        1.8944    3.6761    2.8454 C.ar      1 RES1    0.0000
     26 C11        1.7083    2.4471    2.2204 C.ar      1 RES1    0.0000
     27 H10        1.0479    2.3472    1.5451 H         1 RES1    0.0000
     28 C12        2.4983    1.3673    2.5943 C.ar      1 RES1    0.0000
     29 H11        2.3673    0.5200    2.1841 H         1 RES1    0.0000
     30 C13        3.4763    1.5215    3.5626 C.ar      1 RES1    0.0000
     31 H12        4.0363    0.7891    3.7910 H         1 RES1    0.0000
     32 C14        3.6398    2.7425    4.2006 C.ar      1 RES1    0.0000
     33 H13        4.2999    2.8394    4.8765 H         1 RES1    0.0000
     34 C15        2.8408    3.8225    3.8529 C.ar      1 RES1    0.0000
     35 H14        2.9399    4.6555    4.2993 H         1 RES1    0.0000
     36 C16       -1.0600    8.0634    2.1852 C.ar      1 RES1    0.0000
     37 C17       -0.7499    8.0803    3.5454 C.ar      1 RES1    0.0000
     38 H15       -0.1564    7.4276    3.8976 H         1 RES1    0.0000
     39 C18       -1.2960    9.0361    4.3920 C.ar      1 RES1    0.0000
     40 H16       -1.0898    9.0423    5.3191 H         1 RES1    0.0000
     41 C19       -2.1474    9.9789    3.8464 C.ar      1 RES1    0.0000
     42 C20       -2.4703   10.0043    2.5020 C.ar      1 RES1    0.0000
     43 H17       -3.0501   10.6711    2.1522 H         1 RES1    0.0000
     44 C21       -1.9244    9.0282    1.6761 C.ar      1 RES1    0.0000
     45 H18       -2.1441    9.0196    0.7516 H         1 RES1    0.0000
@<TRIPOS>BOND
     1    1   15 2
     2    2   20 2
     3    3    6 2
     4    4    6 2
     5    5    7 1
     6    6   41 1
     7    7    8 1
     8    9    7 2
     9   10    9 1
    10   11   10 1
    11   12   10 1
    12   13    5 1
    13   14   13 1
    14   15    9 1
    15   16   15 1
    16   17   16 1
    17   18   16 1
    18   19   16 1
    19   20   12 1
    20   21   20 1
    21   22   21 1
    22   23   21 1
    23   24   21 1
    24   25    5 1
    25   26   25 ar
    26   27   26 1
    27   28   26 ar
    28   29   28 1
    29   30   28 ar
    30   31   30 1
    31   32   30 ar
    32   33   32 1
    33   34   25 ar
    34   35   34 1
    35   36   10 1
    36   37   36 ar
    37   38   37 1
    38   39   37 ar
    39   40   39 1
    40   41   39 ar
    41   42   41 ar
    42   43   42 1
    43   44   36 ar
    44   45   44 1
    45   12   13 2
    46   32   34 ar
    47   42   44 ar
@<TRIPOS>SUBSTRUCTURE
     1 RES1 1

@<TRIPOS>CRYSIN
   8.7082   10.1835   11.0221 100.6660 110.8310  97.8430   2 1

