# MOL2 file generated by ConQuest
# Please check atom types

@<TRIPOS>MOLECULE
SAZHEH
    43    47     1
SMALL
NO_CHARGES
****
Generated from CSD

@<TRIPOS>ATOM
      1 C1         0.6573    3.9946    1.6644 C.3       1 RES1    0.0000
      2 C2         0.1327    4.6300    2.9215 C.ar      1 RES1    0.0000
      3 C3        -0.8608    5.5680    3.1161 C.ar      1 RES1    0.0000
      4 H1        -1.3303    5.9479    2.3833 H         1 RES1    0.0000
      5 C4        -1.1489    5.9347    4.4259 C.ar      1 RES1    0.0000
      6 H2        -1.8301    6.5773    4.5870 H         1 RES1    0.0000
      7 C5        -0.4682    5.3885    5.4996 C.ar      1 RES1    0.0000
      8 H3        -0.6936    5.6539    6.3837 H         1 RES1    0.0000
      9 C6         0.5285    4.4668    5.3004 C.ar      1 RES1    0.0000
     10 H4         1.0109    4.0995    6.0308 H         1 RES1    0.0000
     11 C7         0.8066    4.0920    3.9971 C.ar      1 RES1    0.0000
     12 C8         1.7827    3.1106    3.4968 C.2       1 RES1    0.0000
     13 C9        -0.3197    3.2870    0.7362 C.3       1 RES1    0.0000
     14 H5        -1.2316    3.6600    0.8334 H         1 RES1    0.0000
     15 H6        -0.3479    2.3155    0.9265 H         1 RES1    0.0000
     16 C10        0.2370    3.5540   -0.6799 C.3       1 RES1    0.0000
     17 H7        -0.3801    4.1623   -1.1776 H         1 RES1    0.0000
     18 C11        2.0264    5.1784   -1.3501 C.ar      1 RES1    0.0000
     19 C12        2.9236    6.1608   -0.9410 C.ar      1 RES1    0.0000
     20 H8         3.1008    6.2848   -0.0152 H         1 RES1    0.0000
     21 C13        3.5580    6.9553   -1.8779 C.ar      1 RES1    0.0000
     22 H9         4.1704    7.6217   -1.5910 H         1 RES1    0.0000
     23 C14        3.3091    6.7888   -3.2269 C.ar      1 RES1    0.0000
     24 H10        3.7712    7.3139   -3.8683 H         1 RES1    0.0000
     25 C15        2.3869    5.8556   -3.6280 C.ar      1 RES1    0.0000
     26 H11        2.1871    5.7626   -4.5523 H         1 RES1    0.0000
     27 C16        1.7420    5.0452   -2.7035 C.ar      1 RES1    0.0000
     28 H12        1.1081    4.4012   -2.9959 H         1 RES1    0.0000
     29 C17        0.4535    2.2816   -1.4705 C.ar      1 RES1    0.0000
     30 C18       -0.4606    1.9297   -2.4474 C.ar      1 RES1    0.0000
     31 H13       -1.1816    2.5145   -2.6496 H         1 RES1    0.0000
     32 C19       -0.3350    0.7312   -3.1364 C.ar      1 RES1    0.0000
     33 H14       -0.9692    0.4992   -3.8055 H         1 RES1    0.0000
     34 C20        0.7078   -0.1228   -2.8522 C.ar      1 RES1    0.0000
     35 H15        0.7931   -0.9449   -3.3206 H         1 RES1    0.0000
     36 C21        1.6267    0.2224   -1.8835 C.ar      1 RES1    0.0000
     37 H16        2.3527   -0.3599   -1.6949 H         1 RES1    0.0000
     38 C22        1.4999    1.4109   -1.1845 C.ar      1 RES1    0.0000
     39 H17        2.1288    1.6325   -0.5087 H         1 RES1    0.0000
     40 N1         1.5154    4.2490   -0.4063 N.3       1 RES1    0.0000
     41 O1         1.2909    4.9583    0.8665 O.3       1 RES1    0.0000
     42 O2         1.6640    3.0458    2.1363 O.3       1 RES1    0.0000
     43 O3         2.5605    2.4326    4.0999 O.2       1 RES1    0.0000
@<TRIPOS>BOND
     1    1    2 1
     2    2    3 ar
     3    3    4 1
     4    5    3 ar
     5    6    5 1
     6    7    5 ar
     7    8    7 1
     8    9    7 ar
     9   10    9 1
    10   11    2 ar
    11   12   11 1
    12   13    1 1
    13   14   13 1
    14   15   13 1
    15   16   13 1
    16   17   16 1
    17   18   19 ar
    18   19   20 1
    19   21   19 ar
    20   22   21 1
    21   23   21 ar
    22   24   23 1
    23   25   23 ar
    24   26   25 1
    25   27   18 ar
    26   28   27 1
    27   29   16 1
    28   30   29 ar
    29   31   30 1
    30   32   30 ar
    31   33   32 1
    32   34   32 ar
    33   35   34 1
    34   36   34 ar
    35   37   36 1
    36   38   29 ar
    37   39   38 1
    38   40   16 1
    39   41    1 1
    40   42    1 1
    41   43   12 2
    42    9   11 ar
    43   12   42 1
    44   18   40 1
    45   25   27 ar
    46   36   38 ar
    47   40   41 1
@<TRIPOS>SUBSTRUCTURE
     1 RES1 1

@<TRIPOS>CRYSIN
   5.1476   15.3139   21.6530  90.0000  91.3650  90.0000 231 1

