# MOL2 file generated by ConQuest
# Please check atom types

@<TRIPOS>MOLECULE
SAZLIP
    61    64     1
SMALL
NO_CHARGES
****
Generated from CSD

@<TRIPOS>ATOM
      1 O1         2.1672   12.4699    0.5175 O.3       1 RES1    0.0000
      2 O2         0.1375   13.4000    0.2984 O.2       1 RES1    0.0000
      3 O3         6.0260   11.1163    5.1771 O.2       1 RES1    0.0000
      4 O4         6.1531   10.4306    3.1737 O.2       1 RES1    0.0000
      5 O5         1.3851    6.3879    1.6911 O.2       1 RES1    0.0000
      6 O6         2.9020    7.9541    1.0776 O.3       1 RES1    0.0000
      7 C1         2.5625   14.7233    1.3479 C.3       1 RES1    0.0000
      8 H1         1.6489   14.9977    1.2406 H         1 RES1    0.0000
      9 H2         3.1372   15.4890    1.2678 H         1 RES1    0.0000
     10 H3         2.6782   14.3245    2.2123 H         1 RES1    0.0000
     11 C2         4.3500   13.2613    0.4162 C.3       1 RES1    0.0000
     12 H4         4.5476   12.6262   -0.2769 H         1 RES1    0.0000
     13 H5         4.4762   12.8476    1.2742 H         1 RES1    0.0000
     14 H6         4.9382   14.0167    0.3362 H         1 RES1    0.0000
     15 C3         2.6251   14.2517   -1.0949 C.3       1 RES1    0.0000
     16 H7         2.8675   13.5906   -1.7480 H         1 RES1    0.0000
     17 H8         3.1359   15.0508   -1.2438 H         1 RES1    0.0000
     18 H9         1.6893   14.4503   -1.1718 H         1 RES1    0.0000
     19 C4         2.9130   13.7230    0.2846 C.3       1 RES1    0.0000
     20 C5         0.8250   12.4493    0.5718 C.2       1 RES1    0.0000
     21 C6         0.3440   11.1368    1.0344 C.2       1 RES1    0.0000
     22 C7        -0.9791   10.9005    1.1835 C.2       1 RES1    0.0000
     23 C8        -2.1236   11.8162    0.8867 C.3       1 RES1    0.0000
     24 H10       -1.7865   12.6550    0.5619 H         1 RES1    0.0000
     25 H11       -2.6319   11.9636    1.6872 H         1 RES1    0.0000
     26 H12       -2.6869   11.4177    0.2193 H         1 RES1    0.0000
     27 C9        -0.5885    8.5644    1.7343 C.2       1 RES1    0.0000
     28 C10       -1.3096    7.2961    2.0677 C.3       1 RES1    0.0000
     29 H13       -2.2473    7.4769    2.1642 H         1 RES1    0.0000
     30 H14       -0.9659    6.9401    2.8910 H         1 RES1    0.0000
     31 H15       -1.1769    6.6581    1.3623 H         1 RES1    0.0000
     32 C11        0.7507    8.7077    1.5174 C.2       1 RES1    0.0000
     33 C12        1.3804   10.0946    1.4112 C.3       1 RES1    0.0000
     34 H16        2.0597   10.0697    0.7059 H         1 RES1    0.0000
     35 C13        2.0766   10.4220    2.7340 C.ar      1 RES1    0.0000
     36 C14        1.3365   10.6115    3.8873 C.ar      1 RES1    0.0000
     37 H17        0.4087   10.5625    3.8467 H         1 RES1    0.0000
     38 C15        1.9489   10.8731    5.1020 C.ar      1 RES1    0.0000
     39 H18        1.4299   11.0008    5.8620 H         1 RES1    0.0000
     40 C16        3.3267   10.9462    5.1928 C.ar      1 RES1    0.0000
     41 H19        3.7481   11.1296    6.0013 H         1 RES1    0.0000
     42 C17        4.0479   10.7375    4.0466 C.ar      1 RES1    0.0000
     43 C18        3.4647   10.4810    2.8164 C.ar      1 RES1    0.0000
     44 H20        3.9908   10.3503    2.0602 H         1 RES1    0.0000
     45 C19        1.5943    7.5418    1.4828 C.2       1 RES1    0.0000
     46 C20        4.6200    6.5568    2.0802 C.ar      1 RES1    0.0000
     47 C21        4.7254    6.9010    3.4204 C.ar      1 RES1    0.0000
     48 H21        4.1764    7.5406    3.8130 H         1 RES1    0.0000
     49 C22        5.6941    6.2341    4.1257 C.ar      1 RES1    0.0000
     50 H22        5.8008    6.4215    5.0296 H         1 RES1    0.0000
     51 C23        6.5296    5.2776    3.5283 C.ar      1 RES1    0.0000
     52 H23        7.1780    4.8582    4.0468 H         1 RES1    0.0000
     53 C24        6.4220    4.9469    2.2172 C.ar      1 RES1    0.0000
     54 H24        6.9806    4.3124    1.8313 H         1 RES1    0.0000
     55 C25        5.4300    5.6029    1.4663 C.ar      1 RES1    0.0000
     56 N1        -1.3927    9.6596    1.6563 N.pl3     1 RES1    0.0000
     57 H25       -2.2091    9.5800    1.9161 H         1 RES1    0.0000
     58 N2         5.5124   10.7768    4.1356 N.pl3     1 RES1    0.0000
     59 N3         3.8113    6.9309    1.0642 N.pl3     1 RES1    0.0000
     60 N4         4.0825    6.3036   -0.0858 N.2       1 RES1    0.0000
     61 N5         5.0655    5.4741    0.1494 N.2       1 RES1    0.0000
@<TRIPOS>BOND
     1    1   19 1
     2    2   20 2
     3    3   58 2
     4    4   58 2
     5    5   45 2
     6    6   45 1
     7    7    8 1
     8    9    7 1
     9   10    7 1
    10   11   12 1
    11   13   11 1
    12   14   11 1
    13   15   16 1
    14   17   15 1
    15   18   15 1
    16   19    7 1
    17   20    1 1
    18   21   20 1
    19   22   21 2
    20   23   22 1
    21   24   23 1
    22   25   23 1
    23   26   23 1
    24   27   28 1
    25   28   29 1
    26   30   28 1
    27   31   28 1
    28   32   27 2
    29   33   21 1
    30   34   33 1
    31   35   33 1
    32   36   35 ar
    33   37   36 1
    34   38   36 ar
    35   39   38 1
    36   40   38 ar
    37   41   40 1
    38   42   40 ar
    39   43   35 ar
    40   44   43 1
    41   45   32 1
    42   46   47 ar
    43   47   48 1
    44   49   47 ar
    45   50   49 1
    46   51   49 ar
    47   52   51 1
    48   53   51 ar
    49   54   53 1
    50   55   46 ar
    51   56   22 1
    52   57   56 1
    53   58   42 1
    54   59    6 1
    55   60   59 1
    56   61   55 1
    57   11   19 1
    58   15   19 1
    59   27   56 1
    60   32   33 1
    61   42   43 ar
    62   46   59 1
    63   53   55 ar
    64   60   61 2
@<TRIPOS>SUBSTRUCTURE
     1 RES1 1

@<TRIPOS>CRYSIN
  10.3320   15.1630   16.0100  90.0000  90.9600  90.0000 231 1

