# MOL2 file generated by ConQuest
# Please check atom types

@<TRIPOS>MOLECULE
SEBHIQ
    34    35     1
SMALL
NO_CHARGES
****
Generated from CSD

@<TRIPOS>ATOM
      1 O1         6.9578    3.9895   12.1340 O.2       1 RES1    0.0000
      2 O2         7.4409    2.2968   10.9428 O.2       1 RES1    0.0000
      3 N1         6.8943    2.8095   11.8669 N.pl3     1 RES1    0.0000
      4 N2         4.6175    1.5320   11.0257 N.2       1 RES1    0.0000
      5 N3         3.5319    0.9606   10.7235 N.2       1 RES1    0.0000
      6 N4         1.7563    1.3613    5.4568 N.3       1 RES1    0.0000
      7 C1         6.1493    1.9593   12.8186 C.ar      1 RES1    0.0000
      8 C2         6.6178    1.8717   14.1044 C.ar      1 RES1    0.0000
      9 C3         5.9356    1.0818   15.0005 C.ar      1 RES1    0.0000
     10 C4         4.8133    0.3969   14.5840 C.ar      1 RES1    0.0000
     11 C5         4.3525    0.4990   13.2872 C.ar      1 RES1    0.0000
     12 C6         5.0124    1.3004   12.3695 C.ar      1 RES1    0.0000
     13 C7         3.1339    1.1511    9.3953 C.ar      1 RES1    0.0000
     14 C8         1.9414    0.5371    9.0204 C.ar      1 RES1    0.0000
     15 C9         1.4753    0.6178    7.7351 C.ar      1 RES1    0.0000
     16 C10        2.1936    1.2996    6.7456 C.ar      1 RES1    0.0000
     17 C11        3.3967    1.9296    7.1434 C.ar      1 RES1    0.0000
     18 C12        3.8441    1.8458    8.4216 C.ar      1 RES1    0.0000
     19 C13        0.5360    0.6978    5.0509 C.3       1 RES1    0.0000
     20 C14        2.5201    2.0424    4.4420 C.3       1 RES1    0.0000
     21 H1         7.4144    2.3479   14.3930 H         1 RES1    0.0000
     22 H2         6.1962    1.0338   15.9211 H         1 RES1    0.0000
     23 H3         4.3409   -0.1242   15.2418 H         1 RES1    0.0000
     24 H4         3.5495    0.0229   13.0445 H         1 RES1    0.0000
     25 H5         1.4396    0.1204    9.7428 H         1 RES1    0.0000
     26 H6         0.6668    0.1615    7.5110 H         1 RES1    0.0000
     27 H7         3.9063    2.4271    6.4483 H         1 RES1    0.0000
     28 H8         4.6748    2.2382    8.7059 H         1 RES1    0.0000
     29 H9         0.3375    0.8890    4.0657 H         1 RES1    0.0000
     30 H10       -0.1801    0.9972    5.5694 H         1 RES1    0.0000
     31 H11        0.4933   -0.2788    5.1069 H         1 RES1    0.0000
     32 H12        2.1153    1.9304    3.5975 H         1 RES1    0.0000
     33 H13        3.4684    1.7567    4.3817 H         1 RES1    0.0000
     34 H14        2.5940    2.9870    4.6000 H         1 RES1    0.0000
@<TRIPOS>BOND
     1    1    3 2
     2    2    3 2
     3    3    7 1
     4    4    5 2
     5    5   13 1
     6    6   16 1
     7    7    8 ar
     8    8    9 ar
     9    9   10 ar
    10   10   11 ar
    11   11   12 ar
    12   12    4 1
    13   13   14 ar
    14   14   15 ar
    15   15   16 ar
    16   16   17 ar
    17   17   18 ar
    18   18   13 ar
    19   19    6 1
    20   20    6 1
    21   21    8 1
    22   22    9 1
    23   23   10 1
    24   24   11 1
    25   25   14 1
    26   26   15 1
    27   27   17 1
    28   28   18 1
    29   29   19 1
    30   30   19 1
    31   31   19 1
    32   32   20 1
    33   33   20 1
    34   34   20 1
    35    7   12 ar
@<TRIPOS>SUBSTRUCTURE
     1 RES1 1

@<TRIPOS>CRYSIN
  12.5560    7.6180   15.2600  90.0000 109.7600  90.0000  14 1

