# MOL2 file generated by ConQuest
# Please check atom types

@<TRIPOS>MOLECULE
SEBSAT
    37    41     1
SMALL
NO_CHARGES
****
Generated from CSD

@<TRIPOS>ATOM
      1 O1         8.3700    1.6507    5.6091 O.2       1 RES1    0.0000
      2 O2         9.9762    0.9682    7.9815 O.3       1 RES1    0.0000
      3 O3         7.4238   -2.1543   10.5863 O.2       1 RES1    0.0000
      4 O4         8.1646   -3.9522    9.7794 O.2       1 RES1    0.0000
      5 N1         8.0431   -2.7540    9.7486 N.pl3     1 RES1    0.0000
      6 C1         8.7363   -2.0023    8.6252 C.3       1 RES1    0.0000
      7 C2        10.2054   -1.8436    8.9798 C.3       1 RES1    0.0000
      8 C3        10.9761   -1.3262    7.7567 C.3       1 RES1    0.0000
      9 C4        10.2909   -0.1528    7.1144 C.3       1 RES1    0.0000
     10 C5         8.8939    0.1716    7.4360 C.3       1 RES1    0.0000
     11 C6         8.0047    0.8123    6.4083 C.2       1 RES1    0.0000
     12 C7         6.6222    0.2381    6.5419 C.3       1 RES1    0.0000
     13 C8         5.5016    1.2799    6.8841 C.3       1 RES1    0.0000
     14 C9         6.0080    2.0741    8.0712 C.2       1 RES1    0.0000
     15 C10        6.0008    1.2799    9.1268 C.2       1 RES1    0.0000
     16 C11        5.5036   -0.0791    8.6694 C.3       1 RES1    0.0000
     17 C12        6.6351   -0.6919    7.7896 C.3       1 RES1    0.0000
     18 C13        8.0604   -0.6516    8.3987 C.3       1 RES1    0.0000
     19 C14       12.4184   -0.9659    8.1041 C.3       1 RES1    0.0000
     20 C15        4.5009    0.3513    7.5902 C.3       1 RES1    0.0000
     21 H1         8.6406   -2.6118    7.8636 H         1 RES1    0.0000
     22 H2        10.5421   -2.6423    9.2203 H         1 RES1    0.0000
     23 H3        10.2894   -1.2042    9.7322 H         1 RES1    0.0000
     24 H4        11.0167   -2.0413    7.0250 H         1 RES1    0.0000
     25 H5        10.6730    0.1469    6.2747 H         1 RES1    0.0000
     26 H6         6.4264   -0.2203    5.7166 H         1 RES1    0.0000
     27 H7         5.1773    1.7691    6.1143 H         1 RES1    0.0000
     28 H8         6.4033    2.9710    8.0003 H         1 RES1    0.0000
     29 H9         6.3890    1.4528    9.9747 H         1 RES1    0.0000
     30 H10        5.2010   -0.7015    9.3508 H         1 RES1    0.0000
     31 H11        6.4174   -1.5781    7.5080 H         1 RES1    0.0000
     32 H12        8.0783   -0.1830    9.2357 H         1 RES1    0.0000
     33 H13       12.3401   -0.1898    8.7917 H         1 RES1    0.0000
     34 H14       12.9423   -0.6699    7.2459 H         1 RES1    0.0000
     35 H15       12.8831   -1.6979    8.5738 H         1 RES1    0.0000
     36 H16        4.1987   -0.4067    6.9962 H         1 RES1    0.0000
     37 H17        3.6726    0.8382    7.9582 H         1 RES1    0.0000
@<TRIPOS>BOND
     1    1   11 2
     2    2    9 1
     3    3    5 2
     4    4    5 2
     5    5    6 1
     6    6    7 1
     7    7    8 1
     8    8    9 1
     9    9   10 1
    10   10    2 1
    11   11   10 1
    12   12   11 1
    13   13   12 1
    14   14   13 1
    15   15   14 2
    16   16   15 1
    17   17   12 1
    18   18    6 1
    19   19    8 1
    20   20   13 1
    21   21    6 1
    22   22    7 1
    23   23    7 1
    24   24    8 1
    25   25    9 1
    26   26   12 1
    27   27   13 1
    28   28   14 1
    29   29   15 1
    30   30   16 1
    31   31   17 1
    32   32   18 1
    33   33   19 1
    34   34   19 1
    35   35   19 1
    36   36   20 1
    37   37   20 1
    38   10   18 1
    39   16   17 1
    40   16   20 1
    41   17   18 1
@<TRIPOS>SUBSTRUCTURE
     1 RES1 1

@<TRIPOS>CRYSIN
  11.5320   11.2967   10.3406  90.0000  96.3120  90.0000  14 1

