# MOL2 file generated by ConQuest
# Please check atom types

@<TRIPOS>MOLECULE
SECHIT
    38    38     1
SMALL
NO_CHARGES
****
Generated from CSD

@<TRIPOS>ATOM
      1 C1         9.0770    2.7159    2.3407 C.ar      1 RES1    0.0000
      2 C2         8.8278    2.2280    3.6043 C.ar      1 RES1    0.0000
      3 H1         9.4533    1.6951    4.0392 H         1 RES1    0.0000
      4 C3         7.6213    2.5491    4.2143 C.ar      1 RES1    0.0000
      5 C4         6.6978    3.3296    3.5485 C.ar      1 RES1    0.0000
      6 H2         5.8951    3.5624    3.9552 H         1 RES1    0.0000
      7 C5         6.9859    3.7599    2.2661 C.ar      1 RES1    0.0000
      8 C6         8.1727    3.4749    1.6357 C.ar      1 RES1    0.0000
      9 H3         8.3548    3.7789    0.7766 H         1 RES1    0.0000
     10 C7         7.3601    1.9897    5.5837 C.2       1 RES1    0.0000
     11 C8         6.2615    2.2570    7.7200 C.3       1 RES1    0.0000
     12 H4         6.6823    1.3798    7.8312 H         1 RES1    0.0000
     13 C9         6.9117    3.1991    8.7514 C.2       1 RES1    0.0000
     14 C10        4.0200    3.3573    7.9151 C.3       1 RES1    0.0000
     15 H5         3.0817    3.1907    8.0271 H         1 RES1    0.0000
     16 H6         4.1668    3.8109    7.0803 H         1 RES1    0.0000
     17 H7         4.3363    3.9050    8.6358 H         1 RES1    0.0000
     18 C11        4.2304    1.0824    6.8643 C.3       1 RES1    0.0000
     19 H8         3.2871    0.9591    6.9916 H         1 RES1    0.0000
     20 H9         4.6787    0.2381    6.9567 H         1 RES1    0.0000
     21 H10        4.3920    1.4363    5.9865 H         1 RES1    0.0000
     22 C12        7.5683    3.3827   10.9921 C.3       1 RES1    0.0000
     23 H11        7.5316    2.8885   11.8144 H         1 RES1    0.0000
     24 H12        7.1108    4.2194   11.1008 H         1 RES1    0.0000
     25 H13        8.4847    3.5474   10.7580 H         1 RES1    0.0000
     26 C13        4.7613    2.0575    7.9114 C.3       1 RES1    0.0000
     27 H14        4.6314    1.6433    8.7897 H         1 RES1    0.0000
     28 N1        10.3606    2.4048    1.6971 N.pl3     1 RES1    0.0000
     29 N2         5.9834    4.5531    1.5385 N.pl3     1 RES1    0.0000
     30 N3         6.6216    2.7342    6.3981 N.am      1 RES1    0.0000
     31 H15        6.3540    3.5088    6.1381 H         1 RES1    0.0000
     32 O1        11.1576    1.7384    2.3102 O.2       1 RES1    0.0000
     33 O2        10.5632    2.8481    0.5877 O.2       1 RES1    0.0000
     34 O3         6.1697    4.7531    0.3521 O.2       1 RES1    0.0000
     35 O4         5.0303    4.9639    2.1616 O.2       1 RES1    0.0000
     36 O5         7.8168    0.8927    5.8872 O.2       1 RES1    0.0000
     37 O6         6.9252    2.6109    9.9305 O.3       1 RES1    0.0000
     38 O7         7.3389    4.2674    8.5292 O.2       1 RES1    0.0000
@<TRIPOS>BOND
     1    1    2 ar
     2    2    3 1
     3    4    2 ar
     4    5    4 ar
     5    6    5 1
     6    7    5 ar
     7    8    1 ar
     8    9    8 1
     9   10    4 1
    10   11   12 1
    11   13   11 1
    12   14   15 1
    13   16   14 1
    14   17   14 1
    15   18   19 1
    16   20   18 1
    17   21   18 1
    18   22   23 1
    19   24   22 1
    20   25   22 1
    21   26   11 1
    22   27   26 1
    23   28    1 1
    24   29    7 1
    25   30   10 1
    26   31   30 1
    27   32   28 2
    28   33   28 2
    29   34   29 2
    30   35   29 2
    31   36   10 2
    32   37   13 1
    33   38   13 2
    34    7    8 ar
    35   11   30 1
    36   14   26 1
    37   18   26 1
    38   22   37 1
@<TRIPOS>SUBSTRUCTURE
     1 RES1 1

@<TRIPOS>CRYSIN
   7.0600    9.4120   23.3210  90.0000  90.0000  90.0000  19 1

