# MOL2 file generated by ConQuest
# Please check atom types

@<TRIPOS>MOLECULE
SECMUK
    32    35     1
SMALL
NO_CHARGES
****
Generated from CSD

@<TRIPOS>ATOM
      1 O1         1.2177    5.9553   -2.8379 O.3       1 RES1    0.0000
      2 N1         2.2923    5.0988   -2.9671 N.2       1 RES1    0.0000
      3 N2         0.3061    5.5166   -1.8943 N.2       1 RES1    0.0000
      4 N3         1.4770    0.5108    1.3726 N.2       1 RES1    0.0000
      5 N4         0.8609   -0.1398    2.3299 N.2       1 RES1    0.0000
      6 N5        -0.3626    0.4041    2.4569 N.3       1 RES1    0.0000
      7 C1         2.0501    4.1327   -2.1111 C.2       1 RES1    0.0000
      8 C2         0.8162    4.3889   -1.4433 C.2       1 RES1    0.0000
      9 C3         0.3219    3.5138   -0.4448 C.2       1 RES1    0.0000
     10 H1        -0.4977    3.6882    0.0023 H         1 RES1    0.0000
     11 C4         1.0699    2.4113   -0.1516 C.2       1 RES1    0.0000
     12 C5         2.3136    2.1511   -0.8475 C.2       1 RES1    0.0000
     13 H2         2.8036    1.3691   -0.6218 H         1 RES1    0.0000
     14 C6         2.8070    2.9676   -1.8006 C.2       1 RES1    0.0000
     15 H3         3.6237    2.7740   -2.2451 H         1 RES1    0.0000
     16 C7         0.6475    1.4805    0.8924 C.2       1 RES1    0.0000
     17 C8        -0.5297    1.4085    1.5905 C.2       1 RES1    0.0000
     18 H4        -1.2992    1.9546    1.4825 H         1 RES1    0.0000
     19 C9        -1.2753   -0.0421    3.5029 C.3       1 RES1    0.0000
     20 H5        -0.8883   -0.8327    3.9561 H         1 RES1    0.0000
     21 H6        -2.1318   -0.3181    3.0896 H         1 RES1    0.0000
     22 C10       -1.5454    1.0332    4.5290 C.ar      1 RES1    0.0000
     23 C11       -0.6052    1.9907    4.8650 C.ar      1 RES1    0.0000
     24 H7         0.2367    2.0016    4.4245 H         1 RES1    0.0000
     25 C12       -0.8862    2.9327    5.8400 C.ar      1 RES1    0.0000
     26 H8        -0.2384    3.5928    6.0581 H         1 RES1    0.0000
     27 C13       -2.0955    2.9210    6.4953 C.ar      1 RES1    0.0000
     28 H9        -2.2787    3.5605    7.1738 H         1 RES1    0.0000
     29 C14       -3.0386    1.9758    6.1594 C.ar      1 RES1    0.0000
     30 H10       -3.8750    1.9612    6.6096 H         1 RES1    0.0000
     31 C15       -2.7706    1.0469    5.1684 C.ar      1 RES1    0.0000
     32 H11       -3.4351    0.4129    4.9252 H         1 RES1    0.0000
@<TRIPOS>BOND
     1    1    2 1
     2    2    7 2
     3    3    1 1
     4    4    5 2
     5    5    6 1
     6    6   17 1
     7    7    8 1
     8    8    3 2
     9    9    8 1
    10   10    9 1
    11   11    9 2
    12   12   11 1
    13   13   12 1
    14   14    7 1
    15   15   14 1
    16   16    4 1
    17   17   16 2
    18   18   17 1
    19   19    6 1
    20   20   19 1
    21   21   19 1
    22   22   19 1
    23   23   22 ar
    24   24   23 1
    25   25   23 ar
    26   26   25 1
    27   27   25 ar
    28   28   27 1
    29   29   27 ar
    30   30   29 1
    31   31   22 ar
    32   32   31 1
    33   11   16 1
    34   12   14 2
    35   29   31 ar
@<TRIPOS>SUBSTRUCTURE
     1 RES1 1

@<TRIPOS>CRYSIN
   5.7526    9.9261   11.7012  90.3799  99.2517 103.2900   2 1

