# MOL2 file generated by ConQuest
# Please check atom types

@<TRIPOS>MOLECULE
SECMOE
    37    39     1
SMALL
NO_CHARGES
****
Generated from CSD

@<TRIPOS>ATOM
      1 O1         3.0565    1.0587   11.6825 O.3       1 RES1    0.0000
      2 N1         2.0274    1.9176   12.0198 N.2       1 RES1    0.0000
      3 N2         3.0965    0.7948   10.3236 N.2       1 RES1    0.0000
      4 N3         0.0546    2.5170    6.9417 N.pl3     1 RES1    0.0000
      5 N4        -1.1569    3.0996    6.7491 N.2       1 RES1    0.0000
      6 N5        -1.3809    3.1039    5.4618 N.2       1 RES1    0.0000
      7 C1         1.4325    2.1880   10.8764 C.2       1 RES1    0.0000
      8 C2         2.0954    1.4902    9.8244 C.2       1 RES1    0.0000
      9 C3         1.6553    1.5850    8.4743 C.2       1 RES1    0.0000
     10 H1         2.0914    1.1222    7.7681 H         1 RES1    0.0000
     11 C4         0.5756    2.3771    8.2581 C.2       1 RES1    0.0000
     12 C5        -0.0962    3.1043    9.3107 C.2       1 RES1    0.0000
     13 H2        -0.8385    3.6552    9.0924 H         1 RES1    0.0000
     14 C6         0.3054    3.0208   10.5980 C.2       1 RES1    0.0000
     15 H3        -0.1426    3.4950   11.2877 H         1 RES1    0.0000
     16 C7         0.5962    2.1509    5.7520 C.2       1 RES1    0.0000
     17 H4         1.4325    1.7256    5.6055 H         1 RES1    0.0000
     18 C8        -0.3204    2.5263    4.8130 C.2       1 RES1    0.0000
     19 C9        -0.3087    2.4111    3.3247 C.3       1 RES1    0.0000
     20 H5        -0.6872    3.2417    2.9422 H         1 RES1    0.0000
     21 H6        -0.9032    1.6645    3.0629 H         1 RES1    0.0000
     22 C10        1.0607    2.1763    2.7090 C.3       1 RES1    0.0000
     23 H7         1.4325    1.3256    3.0531 H         1 RES1    0.0000
     24 H8         1.6707    2.9078    2.9797 H         1 RES1    0.0000
     25 C11        0.9877    2.1162    1.1868 C.3       1 RES1    0.0000
     26 H9         0.4251    1.3443    0.9264 H         1 RES1    0.0000
     27 H10        0.5410    2.9362    0.8579 H         1 RES1    0.0000
     28 C12        2.3393    1.9884    0.4984 C.3       1 RES1    0.0000
     29 H11        2.9042    2.7597    0.7535 H         1 RES1    0.0000
     30 H12        2.7875    1.1662    0.8204 H         1 RES1    0.0000
     31 C13        2.2338    1.9332   -1.0177 C.3       1 RES1    0.0000
     32 H13        1.6870    1.1478   -1.2738 H         1 RES1    0.0000
     33 H14        1.7641    2.7446   -1.3357 H         1 RES1    0.0000
     34 C14        3.5830    1.8409   -1.7110 C.3       1 RES1    0.0000
     35 H15        3.4510    1.8202   -2.6813 H         1 RES1    0.0000
     36 H16        4.0416    1.0227   -1.4254 H         1 RES1    0.0000
     37 H17        4.1271    2.6201   -1.4727 H         1 RES1    0.0000
@<TRIPOS>BOND
     1    1    2 1
     2    2    7 2
     3    3    1 1
     4    4    5 1
     5    5    6 2
     6    6   18 1
     7    7    8 1
     8    8    3 2
     9    9    8 1
    10   10    9 1
    11   11    4 1
    12   12   11 1
    13   13   12 1
    14   14    7 1
    15   15   14 1
    16   16    4 1
    17   17   16 1
    18   18   16 2
    19   19   18 1
    20   20   19 1
    21   21   19 1
    22   22   19 1
    23   23   22 1
    24   24   22 1
    25   25   22 1
    26   26   25 1
    27   27   25 1
    28   28   25 1
    29   29   28 1
    30   30   28 1
    31   31   28 1
    32   32   31 1
    33   33   31 1
    34   34   31 1
    35   35   34 1
    36   36   34 1
    37   37   34 1
    38    9   11 2
    39   12   14 2
@<TRIPOS>SUBSTRUCTURE
     1 RES1 1

@<TRIPOS>CRYSIN
   5.3604    7.8585   16.3570  87.4656  86.2519  85.6240   2 1

