# MOL2 file generated by ConQuest
# Please check atom types

@<TRIPOS>MOLECULE
SECNAR
    39    41     1
SMALL
NO_CHARGES
****
Generated from CSD

@<TRIPOS>ATOM
      1 O1        -1.2852    1.0637    2.6052 O.3       1 RES1    0.0000
      2 O2         8.4532    0.0488    1.8738 O.2       1 RES1    0.0000
      3 N1        -0.6425   -0.0915    3.0139 N.2       1 RES1    0.0000
      4 N2        -0.6022    1.7238    1.5997 N.2       1 RES1    0.0000
      5 N3         4.8104    0.8641    0.0372 N.pl3     1 RES1    0.0000
      6 N4         4.9152    2.2138    0.1468 N.2       1 RES1    0.0000
      7 N5         6.0477    2.4544    0.7727 N.2       1 RES1    0.0000
      8 C1         0.4367   -0.1497    2.2561 C.2       1 RES1    0.0000
      9 C2         0.4586    0.9711    1.3766 C.2       1 RES1    0.0000
     10 C3         1.5054    1.1424    0.4239 C.2       1 RES1    0.0000
     11 H1         1.5255    1.8879   -0.1640 H         1 RES1    0.0000
     12 C4         2.4715    0.1879    0.3981 C.2       1 RES1    0.0000
     13 C5         2.4495   -0.9423    1.2963 C.2       1 RES1    0.0000
     14 H2         3.1512   -1.5797    1.2440 H         1 RES1    0.0000
     15 C6         1.4691   -1.1302    2.2115 C.2       1 RES1    0.0000
     16 H3         1.4701   -1.8802    2.7950 H         1 RES1    0.0000
     17 C7         3.6128    0.2916   -0.5905 C.3       1 RES1    0.0000
     18 H4         3.8247   -0.6086   -0.9420 H         1 RES1    0.0000
     19 H5         3.3372    0.8608   -1.3528 H         1 RES1    0.0000
     20 C8         5.8638    0.2511    0.5876 C.2       1 RES1    0.0000
     21 H6         6.0281   -0.6834    0.6415 H         1 RES1    0.0000
     22 C9         6.6539    1.2677    1.0566 C.2       1 RES1    0.0000
     23 C10        7.9591    1.1496    1.7446 C.2       1 RES1    0.0000
     24 C11        8.6126    2.3945    2.2535 C.3       1 RES1    0.0000
     25 H7         8.0288    2.8030    2.9412 H         1 RES1    0.0000
     26 H8         8.6960    3.0397    1.5071 H         1 RES1    0.0000
     27 C12        9.9921    2.1573    2.8559 C.3       1 RES1    0.0000
     28 H9         9.9072    1.5337    3.6200 H         1 RES1    0.0000
     29 H10       10.5713    1.7277    2.1779 H         1 RES1    0.0000
     30 C13       10.6569    3.4383    3.3342 C.3       1 RES1    0.0000
     31 H11       10.7060    4.0768    2.5790 H         1 RES1    0.0000
     32 H12       10.0961    3.8473    4.0407 H         1 RES1    0.0000
     33 C14       12.0556    3.2154    3.8822 C.3       1 RES1    0.0000
     34 H13       12.6298    2.8568    3.1604 H         1 RES1    0.0000
     35 H14       12.0154    2.5364    4.6010 H         1 RES1    0.0000
     36 C15       12.6898    4.4842    4.4356 C.3       1 RES1    0.0000
     37 H15       13.5860    4.2808    4.7731 H         1 RES1    0.0000
     38 H16       12.1380    4.8345    5.1645 H         1 RES1    0.0000
     39 H17       12.7540    5.1549    3.7240 H         1 RES1    0.0000
@<TRIPOS>BOND
     1    1    3 1
     2    2   23 2
     3    3    8 2
     4    4    1 1
     5    5    6 1
     6    6    7 2
     7    7   22 1
     8    8    9 1
     9    9    4 2
    10   10    9 1
    11   11   10 1
    12   12   10 2
    13   13   12 1
    14   14   13 1
    15   15    8 1
    16   16   15 1
    17   17    5 1
    18   18   17 1
    19   19   17 1
    20   20    5 1
    21   21   20 1
    22   22   20 2
    23   23   22 1
    24   24   23 1
    25   25   24 1
    26   26   24 1
    27   27   24 1
    28   28   27 1
    29   29   27 1
    30   30   27 1
    31   31   30 1
    32   32   30 1
    33   33   30 1
    34   34   33 1
    35   35   33 1
    36   36   33 1
    37   37   36 1
    38   38   36 1
    39   39   36 1
    40   12   17 1
    41   13   15 2
@<TRIPOS>SUBSTRUCTURE
     1 RES1 1

@<TRIPOS>CRYSIN
  16.5752    5.5429   16.2452  90.0000  91.3612  90.0000  14 1

