# MOL2 file generated by ConQuest
# Please check atom types

@<TRIPOS>MOLECULE
SECSOK
    35    36     1
SMALL
NO_CHARGES
****
Generated from CSD

@<TRIPOS>ATOM
      1 O1         7.0361   -2.9384    5.3541 O.2       1 RES1    0.0000
      2 O2         8.8022   -1.7510    5.3847 O.2       1 RES1    0.0000
      3 N1         8.0294    1.7348    8.8615 N.pl3     1 RES1    0.0000
      4 N2         8.8213    2.5749    8.0948 N.2       1 RES1    0.0000
      5 N3         7.6767   -1.9815    5.7445 N.pl3     1 RES1    0.0000
      6 N4         7.5552    1.2366   11.1596 N.pl3     1 RES1    0.0000
      7 H1         7.8195    1.4376   11.9976 H         1 RES1    0.0000
      8 H2         7.3295    0.3963   10.9497 H         1 RES1    0.0000
      9 C1         9.4860    3.3041    8.9861 C.2       1 RES1    0.0000
     10 C2         9.1601    2.9329   10.2966 C.2       1 RES1    0.0000
     11 H3         9.4997    3.2985   11.0813 H         1 RES1    0.0000
     12 C3         8.2435    1.9269   10.1920 C.2       1 RES1    0.0000
     13 C4        10.4465    4.3863    8.5402 C.3       1 RES1    0.0000
     14 C5        11.3902    3.8462    7.4692 C.3       1 RES1    0.0000
     15 H4        11.9090    3.1249    7.8343 H         1 RES1    0.0000
     16 H5        11.9779    4.5471    7.1777 H         1 RES1    0.0000
     17 H6        10.8772    3.5260    6.7230 H         1 RES1    0.0000
     18 C6         9.6674    5.5766    7.9871 C.3       1 RES1    0.0000
     19 H7         9.1731    5.3030    7.2106 H         1 RES1    0.0000
     20 H8        10.2795    6.2759    7.7462 H         1 RES1    0.0000
     21 H9         9.0595    5.8999    8.6555 H         1 RES1    0.0000
     22 C7        11.2701    4.8582    9.7401 C.3       1 RES1    0.0000
     23 H10       10.6885    5.2587   10.3906 H         1 RES1    0.0000
     24 H11       11.9176    5.5046    9.4496 H         1 RES1    0.0000
     25 H12       11.7205    4.1074   10.1333 H         1 RES1    0.0000
     26 C8         7.2515    0.7227    8.2400 C.ar      1 RES1    0.0000
     27 C9         7.8293   -0.0912    7.2874 C.ar      1 RES1    0.0000
     28 H13        8.7147    0.0260    7.0308 H         1 RES1    0.0000
     29 C10        7.0539   -1.0842    6.7279 C.ar      1 RES1    0.0000
     30 C11        5.7397   -1.2807    7.0632 C.ar      1 RES1    0.0000
     31 H14        5.2373   -1.9506    6.6584 H         1 RES1    0.0000
     32 C12        5.1859   -0.4623    8.0123 C.ar      1 RES1    0.0000
     33 H15        4.2973   -0.5814    8.2608 H         1 RES1    0.0000
     34 C13        5.9311    0.5349    8.6013 C.ar      1 RES1    0.0000
     35 H16        5.5447    1.0837    9.2440 H         1 RES1    0.0000
@<TRIPOS>BOND
     1    1    5 2
     2    2    5 2
     3    3    4 1
     4    4    9 2
     5    5   29 1
     6    6    7 1
     7    8    6 1
     8    9   10 1
     9   10   11 1
    10   12    3 1
    11   13    9 1
    12   14   13 1
    13   15   14 1
    14   16   14 1
    15   17   14 1
    16   18   13 1
    17   19   18 1
    18   20   18 1
    19   21   18 1
    20   22   13 1
    21   23   22 1
    22   24   22 1
    23   25   22 1
    24   26    3 1
    25   27   26 ar
    26   28   27 1
    27   29   27 ar
    28   30   29 ar
    29   31   30 1
    30   32   30 ar
    31   33   32 1
    32   34   26 ar
    33   35   34 1
    34    6   12 1
    35   10   12 2
    36   32   34 ar
@<TRIPOS>SUBSTRUCTURE
     1 RES1 1

@<TRIPOS>CRYSIN
  11.9421    9.6419   11.7694  90.0000  93.5040  90.0000  14 1

