# MOL2 file generated by ConQuest
# Please check atom types

@<TRIPOS>MOLECULE
SECYUV
    41    44     1
SMALL
NO_CHARGES
****
Generated from CSD

@<TRIPOS>ATOM
      1 O1         6.9355   -0.4203   13.9066 O.2       1 RES1    0.0000
      2 O2         6.5809    5.6903    7.5852 O.3       1 RES1    0.0000
      3 N1         6.5333    0.7601   13.5463 N.pl3     1 RES1    0.0000
      4 C1         5.8980    2.9754   13.4348 C.3       1 RES1    0.0000
      5 H1         6.6825    3.5565   13.3437 H         1 RES1    0.0000
      6 C2         4.7843    3.7565   14.1062 C.3       1 RES1    0.0000
      7 H2         3.9926    3.2024   14.1864 H         1 RES1    0.0000
      8 H3         4.5587    4.5358   13.5755 H         1 RES1    0.0000
      9 C3         5.2639    4.1879   15.4888 C.3       1 RES1    0.0000
     10 H4         5.9875    4.8260   15.3890 H         1 RES1    0.0000
     11 H5         4.5363    4.6321   15.9535 H         1 RES1    0.0000
     12 C4         5.7446    3.0221   16.3241 C.ar      1 RES1    0.0000
     13 C5         5.6877    3.0859   17.7142 C.ar      1 RES1    0.0000
     14 H6         5.3726    3.8612   18.1189 H         1 RES1    0.0000
     15 C6         6.0850    2.0348   18.5077 C.ar      1 RES1    0.0000
     16 H7         6.0342    2.1021   19.4333 H         1 RES1    0.0000
     17 C7         6.5565    0.8874   17.9244 C.ar      1 RES1    0.0000
     18 H8         6.8187    0.1726   18.4597 H         1 RES1    0.0000
     19 C8         6.6459    0.7844   16.5500 C.ar      1 RES1    0.0000
     20 H9         6.9742    0.0045   16.1635 H         1 RES1    0.0000
     21 C9         6.2435    1.8515   15.7359 C.ar      1 RES1    0.0000
     22 C10        6.2628    1.8017   14.2862 C.2       1 RES1    0.0000
     23 C11        6.3624    1.0347   12.1116 C.3       1 RES1    0.0000
     24 H10        5.8655    0.3216   11.6802 H         1 RES1    0.0000
     25 H11        7.2231    1.1272   11.6720 H         1 RES1    0.0000
     26 C12        5.5815    2.3519   12.0631 C.3       1 RES1    0.0000
     27 H12        4.6257    2.1346   12.0429 H         1 RES1    0.0000
     28 C13        5.8858    3.2086   10.8642 C.ar      1 RES1    0.0000
     29 C14        7.1297    3.7718   10.6676 C.ar      1 RES1    0.0000
     30 H13        7.8004    3.5990   11.2875 H         1 RES1    0.0000
     31 C15        7.4193    4.5821    9.5866 C.ar      1 RES1    0.0000
     32 H14        8.2719    4.9380    9.4821 H         1 RES1    0.0000
     33 C16        6.4366    4.8568    8.6659 C.ar      1 RES1    0.0000
     34 C17        5.1938    4.2904    8.8173 C.ar      1 RES1    0.0000
     35 H15        4.5292    4.4562    8.1895 H         1 RES1    0.0000
     36 C18        4.9296    3.4725    9.9040 C.ar      1 RES1    0.0000
     37 H16        4.0861    3.0915    9.9894 H         1 RES1    0.0000
     38 C19        7.7384    6.5146    7.5470 C.3       1 RES1    0.0000
     39 H17        7.8044    7.0121    8.3667 H         1 RES1    0.0000
     40 H18        7.6733    7.1241    6.8068 H         1 RES1    0.0000
     41 H19        8.5188    5.9667    7.4423 H         1 RES1    0.0000
@<TRIPOS>BOND
     1    1    3 1
     2    2   33 1
     3    3   22 2
     4    4    5 1
     5    6    4 1
     6    7    6 1
     7    8    6 1
     8    9    6 1
     9   10    9 1
    10   11    9 1
    11   12    9 1
    12   13   12 ar
    13   14   13 1
    14   15   13 ar
    15   16   15 1
    16   17   15 ar
    17   18   17 1
    18   19   17 ar
    19   20   19 1
    20   21   12 ar
    21   22    4 1
    22   23    3 1
    23   24   23 1
    24   25   23 1
    25   26    4 1
    26   27   26 1
    27   28   26 1
    28   29   28 ar
    29   30   29 1
    30   31   29 ar
    31   32   31 1
    32   33   31 ar
    33   34   33 ar
    34   35   34 1
    35   36   28 ar
    36   37   36 1
    37   38    2 1
    38   39   38 1
    39   40   38 1
    40   41   38 1
    41   19   21 ar
    42   21   22 1
    43   23   26 1
    44   34   36 ar
@<TRIPOS>SUBSTRUCTURE
     1 RES1 1

@<TRIPOS>CRYSIN
  10.1620   11.2050   27.2710  90.0000  90.0000  90.0000  61 1

