# MOL2 file generated by ConQuest
# Please check atom types

@<TRIPOS>MOLECULE
SEDPEZ
    72    78     1
SMALL
NO_CHARGES
****
Generated from CSD

@<TRIPOS>ATOM
      1 O1         2.6486    0.9458    6.3348 O.3       1 RES1    0.0000
      2 O2         9.2586   10.6367    0.9139 O.2       1 RES1    0.0000
      3 O3         5.5114    5.2134    1.6293 O.2       1 RES1    0.0000
      4 N1         2.5488    1.0700    8.5302 N.2       1 RES1    0.0000
      5 N2         3.2597    2.1821    8.0491 N.2       1 RES1    0.0000
      6 N3         6.4484    6.4835    3.2052 N.am      1 RES1    0.0000
      7 H1         6.5756    6.5935    4.0481 H         1 RES1    0.0000
      8 N4         8.6179    9.6846    1.4964 N.3       1 RES1    0.0000
      9 C1         2.2064    0.3749    7.4929 C.2       1 RES1    0.0000
     10 C2         3.2901    2.0622    6.7640 C.2       1 RES1    0.0000
     11 C3         0.9793   -1.1371    9.8007 C.ar      1 RES1    0.0000
     12 H2         1.4725   -0.3749   10.0000 H         1 RES1    0.0000
     13 C4         4.9878    4.9841    5.1954 C.ar      1 RES1    0.0000
     14 H3         5.3272    5.8096    5.4579 H         1 RES1    0.0000
     15 C5         5.6950    5.4545    2.8030 C.2       1 RES1    0.0000
     16 C6        -1.7765   -5.3530   10.0380 C.ar      1 RES1    0.0000
     17 H4        -2.2457   -6.1388    9.8718 H         1 RES1    0.0000
     18 C7         4.5420    3.3790    3.4980 C.ar      1 RES1    0.0000
     19 H5         4.5798    3.1143    2.6066 H         1 RES1    0.0000
     20 C8         8.5769    7.3861    2.4039 C.3       1 RES1    0.0000
     21 H6         8.8819    6.4830    2.2221 H         1 RES1    0.0000
     22 H7         8.8249    7.6036    3.3165 H         1 RES1    0.0000
     23 C9        -1.4058   -5.0409    7.6112 C.ar      1 RES1    0.0000
     24 H8        -1.9031   -5.8048    7.4237 H         1 RES1    0.0000
     25 C10       -0.8680   -4.3460    6.5969 C.ar      1 RES1    0.0000
     26 H9        -1.0145   -4.6275    5.7229 H         1 RES1    0.0000
     27 C11        4.3990    4.1598    6.1305 C.ar      1 RES1    0.0000
     28 H10        4.3438    4.4331    7.0176 H         1 RES1    0.0000
     29 C12        6.4830    9.8065    0.2550 C.3       1 RES1    0.0000
     30 H11        5.5593   10.0573    0.3298 H         1 RES1    0.0000
     31 H12        6.5449    8.9084   -0.0778 H         1 RES1    0.0000
     32 H13        6.9286   10.4031   -0.3499 H         1 RES1    0.0000
     33 C13        7.0647    7.4274    2.2833 C.3       1 RES1    0.0000
     34 H14        6.8090    7.1936    1.3666 H         1 RES1    0.0000
     35 C14       -0.0730   -3.1827    6.8347 C.ar      1 RES1    0.0000
     36 C15        7.1437    9.8864    1.6276 C.3       1 RES1    0.0000
     37 C16        0.5239   -2.4735    5.7936 C.ar      1 RES1    0.0000
     38 H15        0.4204   -2.7684    4.9179 H         1 RES1    0.0000
     39 C17       -0.3603   -3.0103   10.5677 C.ar      1 RES1    0.0000
     40 C18        3.9495    2.5500    4.4313 C.ar      1 RES1    0.0000
     41 H16        3.5903    1.7342    4.1662 H         1 RES1    0.0000
     42 C19        1.4405   -0.8632    7.3430 C.ar      1 RES1    0.0000
     43 C20        1.2618   -1.3439    6.0485 C.ar      1 RES1    0.0000
     44 H17        1.6529   -0.8882    5.3384 H         1 RES1    0.0000
     45 C21        0.8623   -1.5542    8.4325 C.ar      1 RES1    0.0000
     46 C22       -0.4978   -3.4537    9.2382 C.ar      1 RES1    0.0000
     47 C23        6.5951    8.8303    2.5838 C.3       1 RES1    0.0000
     48 H18        6.8607    9.0602    3.4879 H         1 RES1    0.0000
     49 H19        5.6260    8.8500    2.5475 H         1 RES1    0.0000
     50 C24       -1.2359   -4.6375    8.9685 C.ar      1 RES1    0.0000
     51 C25        3.8904    2.9313    5.7594 C.ar      1 RES1    0.0000
     52 C26        0.1033   -2.7267    8.1655 C.ar      1 RES1    0.0000
     53 C27        5.0788    4.5985    3.8724 C.ar      1 RES1    0.0000
     54 C28       -0.9376   -3.7496   11.6015 C.ar      1 RES1    0.0000
     55 H20       -0.8576   -3.4521   12.4798 H         1 RES1    0.0000
     56 C29        9.2878    8.3482    1.4542 C.3       1 RES1    0.0000
     57 C30        0.3935   -1.8216   10.8059 C.ar      1 RES1    0.0000
     58 H21        0.4825   -1.5105   11.6777 H         1 RES1    0.0000
     59 C31        6.9210   11.2745    2.2127 C.3       1 RES1    0.0000
     60 H22        5.9870   11.3973    2.3978 H         1 RES1    0.0000
     61 H23        7.2124   11.9375    1.5827 H         1 RES1    0.0000
     62 H24        7.4231   11.3629    3.0256 H         1 RES1    0.0000
     63 C32       -1.6258   -4.9167   11.3361 C.ar      1 RES1    0.0000
     64 H25       -1.9897   -5.4101   12.0363 H         1 RES1    0.0000
     65 C33        9.2788    7.8450    0.0145 C.3       1 RES1    0.0000
     66 H26        9.8882    7.1081   -0.0706 H         1 RES1    0.0000
     67 H27        9.5494    8.5535   -0.5732 H         1 RES1    0.0000
     68 H28        8.3929    7.5571   -0.2175 H         1 RES1    0.0000
     69 C34       10.7259    8.5346    1.9209 C.3       1 RES1    0.0000
     70 H29       11.1719    7.6838    1.9312 H         1 RES1    0.0000
     71 H30       10.7289    8.9079    2.8053 H         1 RES1    0.0000
     72 H31       11.1822    9.1286    1.3206 H         1 RES1    0.0000
@<TRIPOS>BOND
     1    1    9 1
     2    2    8 1
     3    3   15 2
     4    4    5 1
     5    5   10 2
     6    6    7 1
     7    8   36 1
     8    9    4 2
     9   10    1 1
    10   11   12 1
    11   13   14 1
    12   15    6 1
    13   16   17 1
    14   18   19 1
    15   20   21 1
    16   22   20 1
    17   23   24 1
    18   25   23 ar
    19   26   25 1
    20   27   13 ar
    21   28   27 1
    22   29   30 1
    23   31   29 1
    24   32   29 1
    25   33    6 1
    26   34   33 1
    27   35   25 ar
    28   36   29 1
    29   37   35 ar
    30   38   37 1
    31   39   46 ar
    32   40   18 ar
    33   41   40 1
    34   42    9 1
    35   43   37 ar
    36   44   43 1
    37   45   11 ar
    38   46   50 ar
    39   47   33 1
    40   48   47 1
    41   49   47 1
    42   50   16 ar
    43   51   10 1
    44   52   35 ar
    45   53   13 ar
    46   54   39 ar
    47   55   54 1
    48   56    8 1
    49   57   11 ar
    50   58   57 1
    51   59   36 1
    52   60   59 1
    53   61   59 1
    54   62   59 1
    55   63   16 ar
    56   64   63 1
    57   65   56 1
    58   66   65 1
    59   67   65 1
    60   68   65 1
    61   69   56 1
    62   70   69 1
    63   71   69 1
    64   72   69 1
    65   15   53 1
    66   18   53 ar
    67   20   33 1
    68   20   56 1
    69   23   50 ar
    70   27   51 ar
    71   36   47 1
    72   39   57 ar
    73   40   51 ar
    74   42   43 ar
    75   42   45 ar
    76   45   52 ar
    77   46   52 ar
    78   54   63 ar
@<TRIPOS>SUBSTRUCTURE
     1 RES1 1

@<TRIPOS>CRYSIN
   7.9900   12.4750   14.5390  94.8210  94.4040 108.3720   2 1

