# MOL2 file generated by ConQuest
# Please check atom types

@<TRIPOS>MOLECULE
SEDROI
    38    41     1
SMALL
NO_CHARGES
****
Generated from CSD

@<TRIPOS>ATOM
      1 C1         2.4476    6.1467   -0.1856 C.3       1 RES1    0.0000
      2 C2         3.6582    7.0252    0.2769 C.3       1 RES1    0.0000
      3 C3         4.3451    7.3870   -1.0460 C.3       1 RES1    0.0000
      4 C4         3.4871    6.6873   -2.1179 C.3       1 RES1    0.0000
      5 C5         2.1487    7.3961   -2.1467 C.ar      1 RES1    0.0000
      6 C6         1.5732    8.2544   -3.0458 C.ar      1 RES1    0.0000
      7 C7         0.3042    8.7643   -2.7213 C.ar      1 RES1    0.0000
      8 C8        -0.3098    8.4446   -1.5820 C.ar      1 RES1    0.0000
      9 C9         0.2801    7.5999   -0.6292 C.ar      1 RES1    0.0000
     10 C10        1.5303    7.0740   -0.9587 C.ar      1 RES1    0.0000
     11 C11        3.0913    5.4113   -1.3587 C.3       1 RES1    0.0000
     12 C12        4.5474    6.2536    1.2167 C.2       1 RES1    0.0000
     13 C13        4.5030    5.0818    3.2632 C.ar      1 RES1    0.0000
     14 C14        4.2137    3.7445    3.2622 C.ar      1 RES1    0.0000
     15 C15        4.7572    2.9321    4.2199 C.ar      1 RES1    0.0000
     16 C16        5.5709    3.4622    5.1587 C.ar      1 RES1    0.0000
     17 C17        5.8777    4.8094    5.1508 C.ar      1 RES1    0.0000
     18 C18        5.3153    5.5913    4.1961 C.ar      1 RES1    0.0000
     19 N1         6.1541    2.6430    6.1750 N.pl3     1 RES1    0.0000
     20 O1         5.6740    5.9491    1.0490 O.2       1 RES1    0.0000
     21 O2         3.8643    5.9027    2.3352 O.3       1 RES1    0.0000
     22 O3         5.8730    1.4632    6.1889 O.2       1 RES1    0.0000
     23 O4         6.9104    3.0925    6.9809 O.2       1 RES1    0.0000
     24 H1         2.0518    5.6866    0.5558 H         1 RES1    0.0000
     25 H2         3.3816    7.7961    0.8833 H         1 RES1    0.0000
     26 H3         4.3848    8.3941   -1.2505 H         1 RES1    0.0000
     27 H4         5.1338    6.8723   -0.9726 H         1 RES1    0.0000
     28 H5         3.8908    6.5587   -3.0667 H         1 RES1    0.0000
     29 H6         2.0253    8.3402   -3.9102 H         1 RES1    0.0000
     30 H7        -0.1638    9.2701   -3.5033 H         1 RES1    0.0000
     31 H8        -1.1136    8.8352   -1.4589 H         1 RES1    0.0000
     32 H9        -0.1427    7.3415    0.4268 H         1 RES1    0.0000
     33 H10        3.8254    4.9372   -1.0123 H         1 RES1    0.0000
     34 H11        2.3780    4.8329   -1.9452 H         1 RES1    0.0000
     35 H12        3.6018    3.3892    2.7392 H         1 RES1    0.0000
     36 H13        4.5141    1.8662    4.5156 H         1 RES1    0.0000
     37 H14        6.3622    5.0683    5.9547 H         1 RES1    0.0000
     38 H15        5.3856    6.4463    4.2675 H         1 RES1    0.0000
@<TRIPOS>BOND
     1    1    2 1
     2    2    3 1
     3    3    4 1
     4    4    5 1
     5    5    6 ar
     6    6    7 ar
     7    7    8 ar
     8    8    9 ar
     9    9   10 ar
    10   10    1 1
    11   11    1 1
    12   12    2 1
    13   13   14 ar
    14   14   15 ar
    15   15   16 ar
    16   16   17 ar
    17   17   18 ar
    18   18   13 ar
    19   19   16 1
    20   20   12 2
    21   21   12 1
    22   22   19 2
    23   23   19 2
    24   24    1 1
    25   25    2 1
    26   26    3 1
    27   27    3 1
    28   28    4 1
    29   29    6 1
    30   30    7 1
    31   31    8 1
    32   32    9 1
    33   33   11 1
    34   34   11 1
    35   35   14 1
    36   36   15 1
    37   37   17 1
    38   38   18 1
    39    4   11 1
    40    5   10 ar
    41   13   21 1
@<TRIPOS>SUBSTRUCTURE
     1 RES1 1

@<TRIPOS>CRYSIN
   8.3930    9.5350   10.7580  78.1400  68.0200  71.9500   2 1

