# MOL2 file generated by ConQuest
# Please check atom types

@<TRIPOS>MOLECULE
SEDTUQ10
    14    13     1
SMALL
NO_CHARGES
****
Generated from CSD

@<TRIPOS>ATOM
      1 C1         4.9177    2.2142    9.0756 C.2       1 RES1    0.0000
      2 C2         4.5781    1.5255   10.3007 C.2       1 RES1    0.0000
      3 N1         5.2181    1.5570    7.9790 N.3       1 RES1    0.0000
      4 N2         4.9251    3.5323    9.0321 N.3       1 RES1    0.0000
      5 N3         4.4729    0.1132   10.3654 N.pl3     1 RES1    0.0000
      6 N4         4.3696    2.2052   11.5025 N.pl3     1 RES1    0.0000
      7 O1         5.0356   -0.5476    9.4923 O.2       1 RES1    0.0000
      8 O2         3.7869   -0.4100   11.2343 O.2       1 RES1    0.0000
      9 O3         4.4908    1.6261   12.5849 O.2       1 RES1    0.0000
     10 O4         4.0906    3.4129   11.4819 O.2       1 RES1    0.0000
     11 H1         5.2214    0.7684    8.0070 H         1 RES1    0.0000
     12 H2         5.4212    2.0047    7.2833 H         1 RES1    0.0000
     13 H3         5.2481    3.8906    8.3221 H         1 RES1    0.0000
     14 H4         4.6886    4.0024    9.7578 H         1 RES1    0.0000
@<TRIPOS>BOND
     1    1    2 2
     2    2    5 1
     3    3    1 1
     4    4    1 1
     5    5    7 2
     6    6    2 1
     7    8    5 2
     8    9    6 2
     9   10    6 2
    10   11    3 1
    11   12    3 1
    12   13    4 1
    13   14    4 1
@<TRIPOS>SUBSTRUCTURE
     1 RES1 1

@<TRIPOS>CRYSIN
   6.6600    6.9850   11.6720  90.0000  90.0000  90.0000  19 1

