# MOL2 file generated by ConQuest
# Please check atom types

@<TRIPOS>MOLECULE
SEDTUQ04
    14    13     1
SMALL
NO_CHARGES
****
Generated from CSD

@<TRIPOS>ATOM
      1 O1         0.1530    0.4232    8.4953 O.2       1 RES1    0.0000
      2 O2         0.5549    1.3540    6.5891 O.2       1 RES1    0.0000
      3 O3        -3.5982    0.4238    8.0756 O.2       1 RES1    0.0000
      4 O4        -2.1036    1.1218    9.4615 O.2       1 RES1    0.0000
      5 N1        -0.2529    0.9834    7.4553 N.pl3     1 RES1    0.0000
      6 N2        -2.4712    0.8757    8.3100 N.pl3     1 RES1    0.0000
      7 N3        -1.3989    1.9860    4.9802 N.pl3     1 RES1    0.0000
      8 H1        -1.7205    2.2821    4.1927 H         1 RES1    0.0000
      9 H2        -0.4863    1.9960    5.1445 H         1 RES1    0.0000
     10 N4        -3.4804    1.6900    5.7824 N.pl3     1 RES1    0.0000
     11 H3        -3.7486    1.9827    5.0539 H         1 RES1    0.0000
     12 H4        -4.0351    1.3773    6.3570 H         1 RES1    0.0000
     13 C1        -1.6159    1.1437    7.2192 C.2       1 RES1    0.0000
     14 C2        -2.1784    1.6041    5.9574 C.2       1 RES1    0.0000
@<TRIPOS>BOND
     1    1    5 2
     2    2    5 2
     3    3    6 2
     4    4    6 2
     5    5   13 1
     6    6   13 1
     7    7    8 1
     8    9    7 1
     9   10   11 1
    10   12   10 1
    11   13   14 2
    12   14    7 1
    13   10   14 1
@<TRIPOS>SUBSTRUCTURE
     1 RES1 1

@<TRIPOS>CRYSIN
   6.9414    6.6534   11.3316  90.0000  90.0820  90.0000 231 1

