# MOL2 file generated by ConQuest
# Please check atom types

@<TRIPOS>MOLECULE
SEDTUQ05
    14    13     1
SMALL
NO_CHARGES
****
Generated from CSD

@<TRIPOS>ATOM
      1 O1         0.1483    0.4401    8.5065 O.2       1 RES1    0.0000
      2 O2         0.5490    1.3658    6.6000 O.2       1 RES1    0.0000
      3 O3        -3.6040    0.4401    8.0898 O.2       1 RES1    0.0000
      4 O4        -2.1090    1.1344    9.4708 O.2       1 RES1    0.0000
      5 N1        -0.2604    0.9973    7.4680 N.pl3     1 RES1    0.0000
      6 N2        -2.4743    0.8903    8.3187 N.pl3     1 RES1    0.0000
      7 N3        -1.4046    1.9952    4.9917 N.pl3     1 RES1    0.0000
      8 H1        -1.7054    2.2608    4.1881 H         1 RES1    0.0000
      9 H2        -0.4644    1.9865    5.1642 H         1 RES1    0.0000
     10 N4        -3.4822    1.6969    5.7923 N.pl3     1 RES1    0.0000
     11 H3        -3.8403    1.9799    5.0621 H         1 RES1    0.0000
     12 H4        -4.1492    1.3912    6.3673 H         1 RES1    0.0000
     13 C1        -1.6248    1.1571    7.2333 C.2       1 RES1    0.0000
     14 C2        -2.1809    1.6147    5.9669 C.2       1 RES1    0.0000
@<TRIPOS>BOND
     1    1    5 2
     2    2    5 2
     3    3    6 2
     4    4    6 2
     5    5   13 1
     6    6   13 1
     7    7    8 1
     8    9    7 1
     9   10   11 1
    10   12   10 1
    11   13   14 2
    12   14    7 1
    13   10   14 1
@<TRIPOS>SUBSTRUCTURE
     1 RES1 1

@<TRIPOS>CRYSIN
   6.9467    6.6887   11.3500  90.0000  90.1430  90.0000 231 1

