# MOL2 file generated by ConQuest
# Please check atom types

@<TRIPOS>MOLECULE
SEDTUQ11
    14    13     1
SMALL
NO_CHARGES
****
Generated from CSD

@<TRIPOS>ATOM
      1 O1         1.3155    2.1830    3.7948 O.2       1 RES1    0.0000
      2 O2        -0.1608    2.9024    2.3973 O.2       1 RES1    0.0000
      3 O3         4.0110    1.9566    0.9129 O.2       1 RES1    0.0000
      4 O4         3.5877    2.8929    2.8229 O.2       1 RES1    0.0000
      5 N1         0.9617    2.4404    2.6387 N.pl3     1 RES1    0.0000
      6 N2         3.1993    2.3298    1.7828 N.pl3     1 RES1    0.0000
      7 N3        -0.0358    1.5946    0.1141 N.3       1 RES1    0.0000
      8 N4         2.0693    1.2919   -0.6960 N.3       1 RES1    0.0000
      9 C1         1.8313    2.1668    1.5451 C.2       1 RES1    0.0000
     10 C2         1.2796    1.6896    0.2881 C.2       1 RES1    0.0000
     11 H1        -0.3749    1.2638   -0.7647 H         1 RES1    0.0000
     12 H2        -0.6961    1.9776    0.7849 H         1 RES1    0.0000
     13 H3         1.6654    0.9680   -1.5552 H         1 RES1    0.0000
     14 H4         3.0719    1.3028   -0.5631 H         1 RES1    0.0000
@<TRIPOS>BOND
     1    1    5 2
     2    2    5 2
     3    3    6 2
     4    4    6 2
     5    5    9 1
     6    6    9 1
     7    7   10 1
     8    8   10 1
     9    9   10 2
    10   11    7 1
    11   12    7 1
    12   13    8 1
    13   14    8 1
@<TRIPOS>SUBSTRUCTURE
     1 RES1 1

@<TRIPOS>CRYSIN
   6.9220    6.5010   11.2620  90.0000  90.4850  90.0000 231 1

