# MOL2 file generated by ConQuest
# Please check atom types

@<TRIPOS>MOLECULE
SEDTUQ01
    14    13     1
SMALL
NO_CHARGES
****
Generated from CSD

@<TRIPOS>ATOM
      1 C1        -2.2294    1.5989    5.9629 C.2       1 RES1    0.0000
      2 N1        -3.5385    1.6852    5.7887 N.3       1 RES1    0.0000
      3 H1        -3.8634    1.9706    5.0882 H         1 RES1    0.0000
      4 H2        -4.1335    1.3653    6.4025 H         1 RES1    0.0000
      5 N2        -1.4473    1.9839    4.9847 N.3       1 RES1    0.0000
      6 H3        -0.5900    1.9833    5.0848 H         1 RES1    0.0000
      7 H4        -1.7864    2.2554    4.2468 H         1 RES1    0.0000
      8 C2        -1.6863    1.1390    7.2217 C.2       1 RES1    0.0000
      9 N3        -2.5474    0.8715    8.3172 N.pl3     1 RES1    0.0000
     10 O1        -2.1975    1.1138    9.4726 O.2       1 RES1    0.0000
     11 O2        -3.6735    0.4182    8.0807 O.2       1 RES1    0.0000
     12 N4        -0.3176    0.9744    7.4640 N.pl3     1 RES1    0.0000
     13 O3         0.0731    0.4182    8.5001 O.2       1 RES1    0.0000
     14 O4         0.4918    1.3494    6.5928 O.2       1 RES1    0.0000
@<TRIPOS>BOND
     1    1    2 1
     2    2    3 1
     3    4    2 1
     4    5    1 1
     5    6    5 1
     6    7    5 1
     7    8    1 2
     8    9    8 1
     9   10    9 2
    10   11    9 2
    11   12    8 1
    12   13   12 2
    13   14   12 2
@<TRIPOS>SUBSTRUCTURE
     1 RES1 1

@<TRIPOS>CRYSIN
   6.9396    6.6374   11.3406  90.0000  90.6110  90.0000 231 1

