# MOL2 file generated by ConQuest
# Please check atom types

@<TRIPOS>MOLECULE
SEDTUQ12
    14    13     1
SMALL
NO_CHARGES
****
Generated from CSD

@<TRIPOS>ATOM
      1 O1         2.8097    1.3067   10.3616 O.2       1 RES1    0.0000
      2 O2         3.2301    0.3691    8.4496 O.2       1 RES1    0.0000
      3 O3         5.5051    1.0783    7.4775 O.2       1 RES1    0.0000
      4 O4         6.9865    0.3652    8.8765 O.2       1 RES1    0.0000
      5 N1         6.8530    1.6586   11.1586 N.pl3     1 RES1    0.0000
      6 H1         7.4138    1.4098   10.5699 H         1 RES1    0.0000
      7 H2         7.0975    2.0439   11.8754 H         1 RES1    0.0000
      8 N2         4.7503    1.9616   11.9663 N.pl3     1 RES1    0.0000
      9 H3         5.1096    2.2561   12.6782 H         1 RES1    0.0000
     10 H4         3.9241    1.9643   11.7672 H         1 RES1    0.0000
     11 N3         3.6222    0.9332    9.4908 N.pl3     1 RES1    0.0000
     12 N4         5.8598    0.8208    8.6361 N.pl3     1 RES1    0.0000
     13 C1         5.5397    1.5692   10.9887 C.2       1 RES1    0.0000
     14 C2         4.9921    1.0971    9.7308 C.2       1 RES1    0.0000
@<TRIPOS>BOND
     1    1   11 2
     2    2   11 2
     3    3   12 2
     4    4   12 2
     5    5    6 1
     6    7    5 1
     7    8    9 1
     8   10    8 1
     9   11   14 1
    10   12   14 1
    11   13    5 1
    12   14   13 2
    13    8   13 1
@<TRIPOS>SUBSTRUCTURE
     1 RES1 1

@<TRIPOS>CRYSIN
   6.9295    6.5301   11.2750  90.0000  90.5300  90.0000 231 1

