# MOL2 file generated by ConQuest
# Please check atom types

@<TRIPOS>MOLECULE
SEDTUQ06
    14    13     1
SMALL
NO_CHARGES
****
Generated from CSD

@<TRIPOS>ATOM
      1 O1         5.6376    2.1093    8.2964 O.2       1 RES1    0.0000
      2 O2         5.7778    3.3600    6.5617 O.2       1 RES1    0.0000
      3 O3         1.8195    2.4072    8.5425 O.2       1 RES1    0.0000
      4 O4         3.6096    2.8099    9.6465 O.2       1 RES1    0.0000
      5 N1         5.1139    2.7907    7.4276 N.pl3     1 RES1    0.0000
      6 N2         3.0280    2.6865    8.5649 N.pl3     1 RES1    0.0000
      7 N3         3.6801    3.5378    5.0518 N.pl3     1 RES1    0.0000
      8 H1         3.3405    3.7090    4.3562 H         1 RES1    0.0000
      9 H2         4.4772    3.6360    5.1004 H         1 RES1    0.0000
     10 N4         1.7114    3.2458    6.0992 N.pl3     1 RES1    0.0000
     11 H3         1.3459    3.4966    5.4394 H         1 RES1    0.0000
     12 H4         1.2553    3.0455    6.8021 H         1 RES1    0.0000
     13 C1         3.7142    2.8988    7.3673 C.2       1 RES1    0.0000
     14 C2         3.0190    3.2385    6.1444 C.2       1 RES1    0.0000
@<TRIPOS>BOND
     1    1    5 2
     2    2    5 2
     3    3    6 2
     4    4    6 2
     5    5   13 1
     6    6   13 1
     7    7    8 1
     8    9    7 1
     9   10   11 1
    10   12   10 1
    11   13   14 2
    12   14    7 1
    13   10   14 1
@<TRIPOS>SUBSTRUCTURE
     1 RES1 1

@<TRIPOS>CRYSIN
   6.9738    6.6350   11.6475  90.0000  90.0000  90.0000  19 1

