# MOL2 file generated by ConQuest
# Please check atom types

@<TRIPOS>MOLECULE
SEFNIA
    62    67     1
SMALL
NO_CHARGES
****
Generated from CSD

@<TRIPOS>ATOM
      1 O1        -1.7609    0.2490   12.5639 O.3       1 RES1    0.0000
      2 N1        -0.7836    0.3300   13.5194 N.pl3     1 RES1    0.0000
      3 N2        -0.2332    1.5115   13.8242 N.2       1 RES1    0.0000
      4 N3         0.5857    1.2715   14.8281 N.2       1 RES1    0.0000
      5 C1         0.5191   -0.0614   15.1631 C.2       1 RES1    0.0000
      6 C2        -0.3630   -0.6900   14.3099 C.2       1 RES1    0.0000
      7 C3        -1.2672    0.1657   11.1469 C.3       1 RES1    0.0000
      8 C4         1.2967   -0.5900   16.2938 C.ar      1 RES1    0.0000
      9 C5         2.4198    0.1014   16.7486 C.ar      1 RES1    0.0000
     10 C6         3.1690   -0.3814   17.8051 C.ar      1 RES1    0.0000
     11 C7         2.8042   -1.5586   18.4406 C.ar      1 RES1    0.0000
     12 C8         1.6781   -2.2386   18.0115 C.ar      1 RES1    0.0000
     13 C9         0.9248   -1.7672   16.9535 C.ar      1 RES1    0.0000
     14 C10       -0.7771   -2.0986   14.1502 C.ar      1 RES1    0.0000
     15 C11        0.1749   -3.0401   13.7679 C.ar      1 RES1    0.0000
     16 C12       -0.1738   -4.3772   13.6695 C.ar      1 RES1    0.0000
     17 C13       -1.4592   -4.7872   13.9470 C.ar      1 RES1    0.0000
     18 C14       -2.4074   -3.8601   14.3357 C.ar      1 RES1    0.0000
     19 C15       -2.0751   -2.5115   14.4260 C.ar      1 RES1    0.0000
     20 C16       -0.1045   -0.8157   11.0195 C.ar      1 RES1    0.0000
     21 C17        1.1649   -0.4529   11.4889 C.ar      1 RES1    0.0000
     22 C18        2.2491   -1.2986   11.3356 C.ar      1 RES1    0.0000
     23 C19        2.0957   -2.5243   10.6985 C.ar      1 RES1    0.0000
     24 C20        0.8507   -2.8901   10.2292 C.ar      1 RES1    0.0000
     25 C21       -0.2398   -2.0500   10.3969 C.ar      1 RES1    0.0000
     26 C22       -2.5473   -0.3057   10.4405 C.ar      1 RES1    0.0000
     27 C23       -3.4224   -1.1857   11.0679 C.ar      1 RES1    0.0000
     28 C24       -4.5438   -1.6572   10.4066 C.ar      1 RES1    0.0000
     29 C25       -4.8132   -1.2686    9.1017 C.ar      1 RES1    0.0000
     30 C26       -3.9577   -0.3786    8.4808 C.ar      1 RES1    0.0000
     31 C27       -2.8428    0.1071    9.1437 C.ar      1 RES1    0.0000
     32 C28       -0.8704    1.5643   10.6631 C.ar      1 RES1    0.0000
     33 C29        0.0361    1.6929    9.6179 C.ar      1 RES1    0.0000
     34 C30        0.3162    2.9372    9.0663 C.ar      1 RES1    0.0000
     35 C31       -0.3131    4.0644    9.5550 C.ar      1 RES1    0.0000
     36 C32       -1.2238    3.9472   10.5840 C.ar      1 RES1    0.0000
     37 C33       -1.5076    2.7015   11.1437 C.ar      1 RES1    0.0000
     38 H1         2.6833    0.9000   16.2906 H         1 RES1    0.0000
     39 H2         4.0310    0.1286   18.0970 H         1 RES1    0.0000
     40 H3         3.3597   -1.9286   19.1293 H         1 RES1    0.0000
     41 H4         1.4038   -3.0429   18.5003 H         1 RES1    0.0000
     42 H5         0.0761   -2.2286   16.7099 H         1 RES1    0.0000
     43 H6         1.1081   -2.7143   13.5647 H         1 RES1    0.0000
     44 H7         0.5079   -5.0144   13.3712 H         1 RES1    0.0000
     45 H8        -1.6956   -5.7001   13.9195 H         1 RES1    0.0000
     46 H9        -3.3129   -4.1572   14.5647 H         1 RES1    0.0000
     47 H10       -2.7209   -1.8143   14.7260 H         1 RES1    0.0000
     48 H11        1.2969    0.4000   11.9034 H         1 RES1    0.0000
     49 H12        3.1251   -1.0286   11.6937 H         1 RES1    0.0000
     50 H13        2.9041   -3.1001   10.5485 H         1 RES1    0.0000
     51 H14        0.7708   -3.7429    9.7421 H         1 RES1    0.0000
     52 H15       -1.0871   -2.3286   10.0647 H         1 RES1    0.0000
     53 H16       -3.2101   -1.4715   11.9357 H         1 RES1    0.0000
     54 H17       -5.1131   -2.2715   10.8872 H         1 RES1    0.0000
     55 H18       -5.5895   -1.5857    8.6292 H         1 RES1    0.0000
     56 H19       -4.1065   -0.0571    7.5162 H         1 RES1    0.0000
     57 H20       -2.2638    0.7429    8.6614 H         1 RES1    0.0000
     58 H21        0.4694    0.9143    9.2421 H         1 RES1    0.0000
     59 H22        0.9826    3.0429    8.3388 H         1 RES1    0.0000
     60 H23       -0.0981    4.9287    9.1775 H         1 RES1    0.0000
     61 H24       -1.6815    4.7430   10.9195 H         1 RES1    0.0000
     62 H25       -2.1865    2.6001   11.8550 H         1 RES1    0.0000
@<TRIPOS>BOND
     1    1    2 1
     2    2    3 1
     3    3    4 2
     4    4    5 1
     5    5    6 2
     6    6    2 1
     7    7    1 1
     8    8    5 1
     9    9    8 ar
    10   10    9 ar
    11   11   10 ar
    12   12   11 ar
    13   13    8 ar
    14   14    6 1
    15   15   14 ar
    16   16   15 ar
    17   17   16 ar
    18   18   17 ar
    19   19   14 ar
    20   20    7 1
    21   21   20 ar
    22   22   21 ar
    23   23   22 ar
    24   24   23 ar
    25   25   20 ar
    26   26    7 1
    27   27   26 ar
    28   28   27 ar
    29   29   28 ar
    30   30   29 ar
    31   31   26 ar
    32   32    7 1
    33   33   32 ar
    34   34   33 ar
    35   35   34 ar
    36   36   35 ar
    37   37   32 ar
    38   38    9 1
    39   39   10 1
    40   40   11 1
    41   41   12 1
    42   42   13 1
    43   43   15 1
    44   44   16 1
    45   45   17 1
    46   46   18 1
    47   47   19 1
    48   48   21 1
    49   49   22 1
    50   50   23 1
    51   51   24 1
    52   52   25 1
    53   53   27 1
    54   54   28 1
    55   55   29 1
    56   56   30 1
    57   57   31 1
    58   58   33 1
    59   59   34 1
    60   60   35 1
    61   61   36 1
    62   62   37 1
    63   12   13 ar
    64   18   19 ar
    65   24   25 ar
    66   30   31 ar
    67   36   37 ar
@<TRIPOS>SUBSTRUCTURE
     1 RES1 1

@<TRIPOS>CRYSIN
  10.5990   14.2860   16.1750  90.0000  94.3100  90.0000 231 1

