# MOL2 file generated by ConQuest
# Please check atom types

@<TRIPOS>MOLECULE
SEFPEY
    39    40     1
SMALL
NO_CHARGES
****
Generated from CSD

@<TRIPOS>ATOM
      1 N1         0.8240    5.7378   10.7594 N.ar      1 RES1    0.0000
      2 C1         0.4846    4.6124   11.4118 C.ar      1 RES1    0.0000
      3 C2        -0.4946    4.5190   12.3883 C.ar      1 RES1    0.0000
      4 C3        -1.1673    5.6756   12.7348 C.ar      1 RES1    0.0000
      5 C4        -0.8279    6.8425   12.0890 C.ar      1 RES1    0.0000
      6 C5         0.1640    6.8540   11.1359 C.ar      1 RES1    0.0000
      7 N2         1.2888    3.5262   10.9830 N.am      1 RES1    0.0000
      8 C6         1.2445    2.2312   11.3895 C.2       1 RES1    0.0000
      9 C7         2.3840    1.3607   10.8287 C.3       1 RES1    0.0000
     10 C8         3.5632    1.4437   11.7883 C.ar      1 RES1    0.0000
     11 C9         3.4541    0.8798   13.0642 C.ar      1 RES1    0.0000
     12 C10        4.4851    0.9744   13.9624 C.ar      1 RES1    0.0000
     13 C11        5.6322    1.6420   13.5715 C.ar      1 RES1    0.0000
     14 C12        5.7891    2.1782   12.3387 C.ar      1 RES1    0.0000
     15 C13        4.7445    2.0756   11.4458 C.ar      1 RES1    0.0000
     16 C14        0.5964    8.1132   10.4613 C.3       1 RES1    0.0000
     17 C15       -2.1704    5.6456   13.8408 C.3       1 RES1    0.0000
     18 O1         0.4288    1.7827   12.1609 O.2       1 RES1    0.0000
     19 C16        1.9152   -0.0461   10.5594 C.3       1 RES1    0.0000
     20 N3         6.7422    1.7723   14.5350 N.pl3     1 RES1    0.0000
     21 O2         6.5759    1.3733   15.6685 O.2       1 RES1    0.0000
     22 O3         7.7714    2.2635   14.1624 O.2       1 RES1    0.0000
     23 H1        -0.6643    3.7476   12.7727 H         1 RES1    0.0000
     24 H2        -1.2402    7.6451   12.3021 H         1 RES1    0.0000
     25 H3         2.2286    3.7822   10.4718 H         1 RES1    0.0000
     26 H4         2.6663    1.7527    9.9619 H         1 RES1    0.0000
     27 H5         2.6637    0.4266   13.2826 H         1 RES1    0.0000
     28 H6         4.4052    0.6803   14.8775 H         1 RES1    0.0000
     29 H7         6.7182    2.5714   12.0537 H         1 RES1    0.0000
     30 H8         4.8044    2.4215   10.4979 H         1 RES1    0.0000
     31 H9        -0.0030    8.7405   10.6287 H         1 RES1    0.0000
     32 H10        0.6283    8.1178    9.4259 H         1 RES1    0.0000
     33 H11        1.4454    8.1755   10.5110 H         1 RES1    0.0000
     34 H12       -2.8471    5.0275   13.5833 H         1 RES1    0.0000
     35 H13       -2.6457    6.4458   14.0016 H         1 RES1    0.0000
     36 H14       -1.7399    5.5810   14.7991 H         1 RES1    0.0000
     37 H15        1.5778   -0.4728   11.4131 H         1 RES1    0.0000
     38 H16        1.2042    0.0000    9.8966 H         1 RES1    0.0000
     39 H17        2.6800   -0.6573   10.1450 H         1 RES1    0.0000
@<TRIPOS>BOND
     1    1    2 ar
     2    2    3 ar
     3    3    4 ar
     4    4    5 ar
     5    5    6 ar
     6    6    1 ar
     7    7    2 1
     8    8    7 1
     9    9    8 1
    10   10    9 1
    11   11   10 ar
    12   12   11 ar
    13   13   12 ar
    14   14   13 ar
    15   15   10 ar
    16   16    6 1
    17   17    4 1
    18   18    8 2
    19   19    9 1
    20   20   13 1
    21   21   20 2
    22   22   20 2
    23   23    3 1
    24   24    5 1
    25   25    7 1
    26   26    9 1
    27   27   11 1
    28   28   12 1
    29   29   14 1
    30   30   15 1
    31   31   16 1
    32   32   16 1
    33   33   16 1
    34   34   17 1
    35   35   17 1
    36   36   17 1
    37   37   19 1
    38   38   19 1
    39   39   19 1
    40   14   15 ar
@<TRIPOS>SUBSTRUCTURE
     1 RES1 1

@<TRIPOS>CRYSIN
  10.0150   11.5310   13.6810  90.0000 107.1400  90.0000 231 1

