# MOL2 file generated by ConQuest
# Please check atom types

@<TRIPOS>MOLECULE
SEFTOP
    48    50     1
SMALL
NO_CHARGES
****
Generated from CSD

@<TRIPOS>ATOM
      1 O1         1.7574    3.2722    9.4241 O.3       1 RES1    0.0000
      2 O2         3.0179    4.0910    7.7137 O.2       1 RES1    0.0000
      3 O3         9.9042    1.2229    7.9694 O.2       1 RES1    0.0000
      4 O4        10.7576    2.9413    7.0082 O.2       1 RES1    0.0000
      5 N1         3.8963    2.8692    9.4157 N.am      1 RES1    0.0000
      6 N2         9.8119    2.3451    7.4890 N.pl3     1 RES1    0.0000
      7 C1         2.8835    3.4696    8.7408 C.2       1 RES1    0.0000
      8 C2         3.7729    1.7283   10.3570 C.3       1 RES1    0.0000
      9 H1         3.1298    1.0542   10.0887 H         1 RES1    0.0000
     10 H2         3.6543    1.9849   11.2846 H         1 RES1    0.0000
     11 C3         5.2002    1.4150    9.9748 C.2       1 RES1    0.0000
     12 C4         5.2297    2.4657    9.1045 C.2       1 RES1    0.0000
     13 C5         6.2538    3.0725    8.2752 C.ar      1 RES1    0.0000
     14 C6         7.4823    2.4247    8.1985 C.ar      1 RES1    0.0000
     15 H3         7.6104    1.6059    8.6197 H         1 RES1    0.0000
     16 C7         8.5064    3.0075    7.4920 C.ar      1 RES1    0.0000
     17 C8         8.3657    4.2134    6.8448 C.ar      1 RES1    0.0000
     18 H4         9.0764    4.5911    6.3781 H         1 RES1    0.0000
     19 C9         7.1475    4.8447    6.9059 C.ar      1 RES1    0.0000
     20 H5         7.0274    5.6553    6.4666 H         1 RES1    0.0000
     21 C10        6.0978    4.2901    7.6126 C.ar      1 RES1    0.0000
     22 H6         5.2796    4.7323    7.6478 H         1 RES1    0.0000
     23 C11        6.1250    0.4598   10.4214 C.1       1 RES1    0.0000
     24 C12        6.9313   -0.3696   10.7566 C.1       1 RES1    0.0000
     25 C13        7.9219   -1.3488   11.0563 C.ar      1 RES1    0.0000
     26 C14        7.6246   -2.4511   11.8484 C.ar      1 RES1    0.0000
     27 H7         6.7795   -2.5354   12.2271 H         1 RES1    0.0000
     28 C15        8.5736   -3.4163   12.0757 C.ar      1 RES1    0.0000
     29 H8         8.3665   -4.1536   12.6035 H         1 RES1    0.0000
     30 C16        9.8230   -3.3003   11.5309 C.ar      1 RES1    0.0000
     31 H9        10.4626   -3.9563   11.6906 H         1 RES1    0.0000
     32 C17       10.1307   -2.2197   10.7536 C.ar      1 RES1    0.0000
     33 H10       10.9821   -2.1453   10.3865 H         1 RES1    0.0000
     34 C18        9.1959   -1.2405   10.5075 C.ar      1 RES1    0.0000
     35 H11        9.4140   -0.5090    9.9755 H         1 RES1    0.0000
     36 C19        0.4535    3.7730    8.9315 C.3       1 RES1    0.0000
     37 C20       -0.4818    3.3214   10.0312 C.3       1 RES1    0.0000
     38 H12       -1.3813    3.5797    9.8131 H         1 RES1    0.0000
     39 H13       -0.2239    3.7314   10.8589 H         1 RES1    0.0000
     40 H14       -0.4352    2.3667   10.1183 H         1 RES1    0.0000
     41 C21        0.1100    3.1111    7.6254 C.3       1 RES1    0.0000
     42 H15       -0.7866    3.3466    7.3722 H         1 RES1    0.0000
     43 H16        0.1736    2.1582    7.7240 H         1 RES1    0.0000
     44 H17        0.7228    3.4051    6.9465 H         1 RES1    0.0000
     45 C22        0.4869    5.2828    8.8311 C.3       1 RES1    0.0000
     46 H18       -0.3947    5.6102    8.6394 H         1 RES1    0.0000
     47 H19        1.0853    5.5435    8.1276 H         1 RES1    0.0000
     48 H20        0.7905    5.6524    9.6630 H         1 RES1    0.0000
@<TRIPOS>BOND
     1    1    7 1
     2    2    7 2
     3    3    6 2
     4    4    6 2
     5    5    7 1
     6    6   16 1
     7    8    5 1
     8    9    8 1
     9   10    8 1
    10   11    8 1
    11   12    5 1
    12   13   12 1
    13   14   13 ar
    14   15   14 1
    15   16   14 ar
    16   17   16 ar
    17   18   17 1
    18   19   17 ar
    19   20   19 1
    20   21   13 ar
    21   22   21 1
    22   23   11 1
    23   24   23 3
    24   25   24 1
    25   26   25 ar
    26   27   26 1
    27   28   26 ar
    28   29   28 1
    29   30   28 ar
    30   31   30 1
    31   32   30 ar
    32   33   32 1
    33   34   25 ar
    34   35   34 1
    35   36    1 1
    36   37   36 1
    37   38   37 1
    38   39   37 1
    39   40   37 1
    40   41   36 1
    41   42   41 1
    42   43   41 1
    43   44   41 1
    44   45   36 1
    45   46   45 1
    46   47   45 1
    47   48   45 1
    48   11   12 2
    49   19   21 ar
    50   32   34 ar
@<TRIPOS>SUBSTRUCTURE
     1 RES1 1

@<TRIPOS>CRYSIN
  26.9517    5.8568   24.9143  90.0000  99.0130  90.0000  15 1

