# MOL2 file generated by ConQuest
# Please check atom types

@<TRIPOS>MOLECULE
SEFVIL
    28    29     1
SMALL
NO_CHARGES
****
Generated from CSD

@<TRIPOS>ATOM
      1 O1         5.2775    5.6937   11.3687 O.2       1 RES1    0.0000
      2 O2         3.4660    6.2770   12.3802 O.2       1 RES1    0.0000
      3 O3         0.8171    6.1098   11.5700 O.2       1 RES1    0.0000
      4 O4         0.2840    5.7156    9.5101 O.2       1 RES1    0.0000
      5 O5         2.6818    3.0586    6.7614 O.2       1 RES1    0.0000
      6 O6         1.8760    1.2183    5.9477 O.2       1 RES1    0.0000
      7 O7        -0.8214    1.4408    5.3164 O.2       1 RES1    0.0000
      8 O8        -2.3149    0.6313    6.6539 O.2       1 RES1    0.0000
      9 N1         4.0413    3.5326   10.4382 N.2       1 RES1    0.0000
     10 N2         3.1570    2.8285    9.7264 N.pl3     1 RES1    0.0000
     11 N3        -1.2482    2.0156    8.6578 N.2       1 RES1    0.0000
     12 N4        -0.3690    2.6185    9.4698 N.pl3     1 RES1    0.0000
     13 N5         3.4490    1.5693    9.1918 N.3       1 RES1    0.0000
     14 N6        -0.6940    3.0524   10.7553 N.3       1 RES1    0.0000
     15 N7         4.0809    5.5940   11.5887 N.pl3     1 RES1    0.0000
     16 N8         0.9769    5.5452   10.5046 N.pl3     1 RES1    0.0000
     17 N9         1.8403    2.1646    6.7088 N.pl3     1 RES1    0.0000
     18 N10       -1.2871    1.2423    6.4184 N.pl3     1 RES1    0.0000
     19 C1         3.3494    4.5825   10.8492 C.2       1 RES1    0.0000
     20 C2         2.0317    4.5652   10.3833 C.2       1 RES1    0.0000
     21 C3         1.9474    3.4075    9.6354 C.2       1 RES1    0.0000
     22 C4         0.8440    2.8009    8.9059 C.2       1 RES1    0.0000
     23 C5         0.7506    2.2519    7.6436 C.2       1 RES1    0.0000
     24 C6        -0.5653    1.7977    7.5465 C.2       1 RES1    0.0000
     25 H1        -1.5436    3.3769   10.7289 H         1 RES1    0.0000
     26 H2        -0.7146    2.3355   11.3063 H         1 RES1    0.0000
     27 H3         4.2607    1.5975    8.8285 H         1 RES1    0.0000
     28 H4         3.4431    1.0009    9.8475 H         1 RES1    0.0000
@<TRIPOS>BOND
     1    1   15 2
     2    2   15 2
     3    3   16 2
     4    4   16 2
     5    5   17 2
     6    6   17 2
     7    7   18 2
     8    8   18 2
     9    9   10 1
    10   10   13 1
    11   11   12 1
    12   12   14 1
    13   13   27 1
    14   14   25 1
    15   15   19 1
    16   16   20 1
    17   17   23 1
    18   18   24 1
    19   19    9 2
    20   20   19 1
    21   21   10 1
    22   22   12 1
    23   23   22 2
    24   24   11 2
    25   26   14 1
    26   28   13 1
    27   20   21 2
    28   21   22 1
    29   23   24 1
@<TRIPOS>SUBSTRUCTURE
     1 RES1 1

@<TRIPOS>CRYSIN
   7.8053   10.1106   16.0850  90.0000  96.0120  90.0000  14 1

