# MOL2 file generated by ConQuest
# Please check atom types

@<TRIPOS>MOLECULE
SEGRUR
    15    15     1
SMALL
NO_CHARGES
****
Generated from CSD

@<TRIPOS>ATOM
      1 C1         1.0723    1.9090    1.0436 C.ar      1 RES1    0.0000
      2 N1         0.0683    0.9435    1.5219 N.pl3     1 RES1    0.0000
      3 O1         0.3619   -0.2397    1.5288 O.2       1 RES1    0.0000
      4 O2        -0.9970    1.3704    1.8914 O.2       1 RES1    0.0000
      5 C2         2.2595    1.4317    0.5558 C.ar      1 RES1    0.0000
      6 C3         3.1367    2.3731    0.1209 C.ar      1 RES1    0.0000
      7 N2         2.9265    3.6790    0.1660 N.ar      1 RES1    0.0000
      8 C4         1.7665    4.1080    0.6622 C.ar      1 RES1    0.0000
      9 N3         1.5771    5.4292    0.6963 N.3       1 RES1    0.0000
     10 C5         0.7827    3.2181    1.1108 C.ar      1 RES1    0.0000
     11 H1         2.4579    0.4575    0.4971 H         1 RES1    0.0000
     12 H2         3.9782    2.1553   -0.2511 H         1 RES1    0.0000
     13 H3         0.9139    5.7226    1.0538 H         1 RES1    0.0000
     14 H4         2.2591    6.0214    0.4775 H         1 RES1    0.0000
     15 H5        -0.0352    3.5235    1.4275 H         1 RES1    0.0000
@<TRIPOS>BOND
     1    1    2 1
     2    2    3 2
     3    4    2 2
     4    5    1 ar
     5    6    5 ar
     6    7    6 ar
     7    8    7 ar
     8    9    8 1
     9   10    1 ar
    10   11    5 1
    11   12    6 1
    12   13    9 1
    13   14    9 1
    14   15   10 1
    15    8   10 ar
@<TRIPOS>SUBSTRUCTURE
     1 RES1 1

@<TRIPOS>CRYSIN
   6.7290   10.9460    9.0600  90.0000 110.0300  90.0000  14 1

