# MOL2 file generated by ConQuest
# Please check atom types

@<TRIPOS>MOLECULE
SEHJUN
    38    40     1
SMALL
NO_CHARGES
****
Generated from CSD

@<TRIPOS>ATOM
      1 C1        16.4902    5.9916    7.5479 C.ar      1 RES1    0.0000
      2 C2        17.0597    6.4798    6.3689 C.ar      1 RES1    0.0000
      3 H1        17.7757    7.1026    6.4085 H         1 RES1    0.0000
      4 C3        16.5804    6.0540    5.1506 C.ar      1 RES1    0.0000
      5 C4        15.5621    5.0754    5.1256 C.ar      1 RES1    0.0000
      6 C5        15.0163    4.6094    6.3084 C.ar      1 RES1    0.0000
      7 H2        14.3324    3.9527    6.2738 H         1 RES1    0.0000
      8 C6        15.4458    5.0786    7.5571 C.ar      1 RES1    0.0000
      9 C7        14.7590    4.5246    8.7940 C.3       1 RES1    0.0000
     10 H3        14.3142    3.6710    8.5621 H         1 RES1    0.0000
     11 H4        15.4436    4.3329    9.4844 H         1 RES1    0.0000
     12 C8        13.7392    5.4662    9.3646 C.2       1 RES1    0.0000
     13 C9        12.4244    6.3760   10.8680 C.ar      1 RES1    0.0000
     14 C10       11.7346    6.7933   12.0060 C.ar      1 RES1    0.0000
     15 H5        11.8359    6.3495   12.8408 H         1 RES1    0.0000
     16 C11       10.8946    7.8853   11.8615 C.ar      1 RES1    0.0000
     17 H6        10.4213    8.2083   12.6190 H         1 RES1    0.0000
     18 C12       10.7276    8.5250   10.6238 C.ar      1 RES1    0.0000
     19 H7        10.1398    9.2707   10.5636 H         1 RES1    0.0000
     20 C13       11.3943    8.0992    9.4908 C.ar      1 RES1    0.0000
     21 H8        11.2656    8.5282    8.6525 H         1 RES1    0.0000
     22 C14       12.2668    7.0104    9.6261 C.ar      1 RES1    0.0000
     23 C15       17.9925    7.5231    3.9380 C.3       1 RES1    0.0000
     24 H9        17.6368    8.2994    4.4181 H         1 RES1    0.0000
     25 H10       18.1997    7.7773    3.0141 H         1 RES1    0.0000
     26 H11       18.8102    7.2127    4.3817 H         1 RES1    0.0000
     27 C16       14.2710    3.5735    3.8128 C.3       1 RES1    0.0000
     28 H12       14.6249    2.8173    4.3262 H         1 RES1    0.0000
     29 H13       14.1533    3.3066    2.8778 H         1 RES1    0.0000
     30 H14       13.4076    3.8457    4.1852 H         1 RES1    0.0000
     31 H15       13.6891    4.8085   11.2514 H         1 RES1    0.0000
     32 N1        17.0717    6.5010    8.7859 N.pl3     1 RES1    0.0000
     33 N2        13.3685    5.3941   10.6593 N.pl3     1 RES1    0.0000
     34 N3        13.1050    6.4099    8.6899 N.2       1 RES1    0.0000
     35 O1        18.2133    6.9511    8.7423 O.2       1 RES1    0.0000
     36 O2        16.4006    6.4651    9.8147 O.2       1 RES1    0.0000
     37 O3        17.0183    6.4724    3.9388 O.3       1 RES1    0.0000
     38 O4        15.1896    4.6719    3.8857 O.3       1 RES1    0.0000
@<TRIPOS>BOND
     1    1    2 ar
     2    2    3 1
     3    4    2 ar
     4    5    4 ar
     5    6    5 ar
     6    7    6 1
     7    8    1 ar
     8    9    8 1
     9   10    9 1
    10   11    9 1
    11   12    9 1
    12   13   14 ar
    13   14   15 1
    14   16   14 ar
    15   17   16 1
    16   18   16 ar
    17   19   18 1
    18   20   18 ar
    19   21   20 1
    20   22   13 ar
    21   23   24 1
    22   25   23 1
    23   26   23 1
    24   27   28 1
    25   29   27 1
    26   30   27 1
    27   31   33 1
    28   32    1 1
    29   33   12 1
    30   34   12 2
    31   35   32 2
    32   36   32 2
    33   37    4 1
    34   38    5 1
    35    6    8 ar
    36   13   33 1
    37   20   22 ar
    38   22   34 1
    39   23   37 1
    40   27   38 1
@<TRIPOS>SUBSTRUCTURE
     1 RES1 1

@<TRIPOS>CRYSIN
  36.5530   10.5914   15.8470  90.0000  90.0000  90.0000  43 1

