# MOL2 file generated by ConQuest
# Please check atom types

@<TRIPOS>MOLECULE
SEHKAU
    27    30     1
SMALL
NO_CHARGES
****
Generated from CSD

@<TRIPOS>ATOM
      1 C1        13.2066    4.1117    6.8028 C.2       1 RES1    0.0000
      2 C2        14.1363    5.1301    6.4591 C.2       1 RES1    0.0000
      3 H1        13.9453    5.7668    5.7795 H         1 RES1    0.0000
      4 C3        15.3118    5.1535    7.1451 C.2       1 RES1    0.0000
      5 H2        15.9522    5.8208    6.9324 H         1 RES1    0.0000
      6 C4        15.6159    4.2048    8.1791 C.2       1 RES1    0.0000
      7 H3        16.4442    4.2711    8.6381 H         1 RES1    0.0000
      8 C5        14.7479    3.2143    8.5178 C.2       1 RES1    0.0000
      9 H4        14.9559    2.5909    9.2030 H         1 RES1    0.0000
     10 C6        13.5226    3.1452    7.8138 C.2       1 RES1    0.0000
     11 C7        12.4111    2.3403    7.8496 C.2       1 RES1    0.0000
     12 C8        12.0076    1.1927    8.6270 C.2       1 RES1    0.0000
     13 C9        12.0032   -0.4317   10.0109 C.ar      1 RES1    0.0000
     14 C10       12.2961   -1.4049   10.9731 C.ar      1 RES1    0.0000
     15 H5        13.1376   -1.4200   11.4127 H         1 RES1    0.0000
     16 C11       11.3269   -2.3403   11.2638 C.ar      1 RES1    0.0000
     17 H6        11.5029   -3.0015   11.9234 H         1 RES1    0.0000
     18 C12       10.0841   -2.3380   10.6067 C.ar      1 RES1    0.0000
     19 H7         9.4432   -3.0054   10.8247 H         1 RES1    0.0000
     20 C13        9.7697   -1.3888    9.6516 C.ar      1 RES1    0.0000
     21 H8         8.9293   -1.3865    9.2071 H         1 RES1    0.0000
     22 C14       10.7458   -0.4390    9.3765 C.ar      1 RES1    0.0000
     23 H9        10.0720    0.9247    8.0054 H         1 RES1    0.0000
     24 N1        12.0043    3.9051    6.2691 N.2       1 RES1    0.0000
     25 N2        10.7792    0.6156    8.4887 N.pl3     1 RES1    0.0000
     26 N3        12.7875    0.5989    9.5191 N.2       1 RES1    0.0000
     27 O1        11.5115    2.7687    6.9374 O.3       1 RES1    0.0000
@<TRIPOS>BOND
     1    1    2 1
     2    2    3 1
     3    4    2 2
     4    5    4 1
     5    6    4 1
     6    7    6 1
     7    8    6 2
     8    9    8 1
     9   10    1 1
    10   11   10 2
    11   12   11 1
    12   13   14 ar
    13   14   15 1
    14   16   14 ar
    15   17   16 1
    16   18   16 ar
    17   19   18 1
    18   20   18 ar
    19   21   20 1
    20   22   13 ar
    21   23   25 1
    22   24    1 2
    23   25   12 1
    24   26   12 2
    25   27   11 1
    26    8   10 1
    27   13   26 1
    28   20   22 ar
    29   22   25 1
    30   24   27 1
@<TRIPOS>SUBSTRUCTURE
     1 RES1 1

@<TRIPOS>CRYSIN
  28.4430    5.5707   15.8370  90.0000 121.1900  90.0000  15 1

