# MOL2 file generated by ConQuest
# Please check atom types

@<TRIPOS>MOLECULE
SEHYIP
    39    40     1
SMALL
NO_CHARGES
****
Generated from CSD

@<TRIPOS>ATOM
      1 O1        10.7273    0.5021    0.8580 O.3       1 RES1    0.0000
      2 O2         9.8515    1.2688    8.3947 O.3       1 RES1    0.0000
      3 O3        11.7920    2.3851    8.8237 O.2       1 RES1    0.0000
      4 O4        10.0872    2.2317   10.2844 O.3       1 RES1    0.0000
      5 N1        10.3042    1.1598    7.0396 N.2       1 RES1    0.0000
      6 C1         9.8418    0.3195    4.9183 C.ar      1 RES1    0.0000
      7 C2         8.9506   -0.1992    3.9905 C.ar      1 RES1    0.0000
      8 C3         9.2095   -0.1736    2.6354 C.ar      1 RES1    0.0000
      9 C4        10.3857    0.3834    2.1672 C.ar      1 RES1    0.0000
     10 C5        11.3110    0.8862    3.0865 C.ar      1 RES1    0.0000
     11 C6        11.0474    0.8389    4.4280 C.ar      1 RES1    0.0000
     12 C7         9.5059    0.4089    6.3637 C.2       1 RES1    0.0000
     13 C8        10.7116    2.0153    9.1370 C.2       1 RES1    0.0000
     14 C9        10.8181    3.0691   11.2225 C.3       1 RES1    0.0000
     15 C10        9.9465    3.2841   12.4210 C.ar      1 RES1    0.0000
     16 C11       10.3002    2.7436   13.6416 C.ar      1 RES1    0.0000
     17 C12        9.4937    2.9376   14.7499 C.ar      1 RES1    0.0000
     18 C13        8.3214    3.6569   14.6273 C.ar      1 RES1    0.0000
     19 C14        7.9715    4.1876   13.4169 C.ar      1 RES1    0.0000
     20 C15        8.7768    4.0019   12.3222 C.ar      1 RES1    0.0000
     21 C16        9.8480   -0.0722   -0.1090 C.3       1 RES1    0.0000
     22 C17        8.3043   -0.2541    6.9289 C.3       1 RES1    0.0000
     23 H1         8.1372   -0.5841    4.2969 H         1 RES1    0.0000
     24 H2         8.5790   -0.5382    2.0242 H         1 RES1    0.0000
     25 H3        12.1269    1.2621    2.7784 H         1 RES1    0.0000
     26 H4        11.6968    1.1644    5.0392 H         1 RES1    0.0000
     27 H5        11.0399    3.9373   10.8020 H         1 RES1    0.0000
     28 H6        11.6612    2.6249   11.4897 H         1 RES1    0.0000
     29 H7        11.0993    2.2370   13.7216 H         1 RES1    0.0000
     30 H8         9.7455    2.5768   15.5926 H         1 RES1    0.0000
     31 H9         7.7580    3.7825   15.3832 H         1 RES1    0.0000
     32 H10        7.1680    4.6875   13.3335 H         1 RES1    0.0000
     33 H11        8.5243    4.3733   11.4863 H         1 RES1    0.0000
     34 H12       10.1686    0.1428   -1.0095 H         1 RES1    0.0000
     35 H13        8.9465    0.2917    0.0119 H         1 RES1    0.0000
     36 H14        9.8258   -1.0456    0.0068 H         1 RES1    0.0000
     37 H15        7.6915    0.4247    7.2796 H         1 RES1    0.0000
     38 H16        8.5739   -0.8569    7.6525 H         1 RES1    0.0000
     39 H17        7.8545   -0.7682    6.2258 H         1 RES1    0.0000
@<TRIPOS>BOND
     1    1    9 1
     2    2    5 1
     3    3   13 2
     4    4   13 1
     5    5   12 2
     6    6    7 ar
     7    7    8 ar
     8    8    9 ar
     9    9   10 ar
    10   10   11 ar
    11   11    6 ar
    12   12    6 1
    13   13    2 1
    14   14    4 1
    15   15   14 1
    16   16   15 ar
    17   17   16 ar
    18   18   17 ar
    19   19   18 ar
    20   20   15 ar
    21   21    1 1
    22   22   12 1
    23   23    7 1
    24   24    8 1
    25   25   10 1
    26   26   11 1
    27   27   14 1
    28   28   14 1
    29   29   16 1
    30   30   17 1
    31   31   18 1
    32   32   19 1
    33   33   20 1
    34   34   21 1
    35   35   21 1
    36   36   21 1
    37   37   22 1
    38   38   22 1
    39   39   22 1
    40   19   20 ar
@<TRIPOS>SUBSTRUCTURE
     1 RES1 1

@<TRIPOS>CRYSIN
  11.8920    7.5168   17.0920  90.0000  95.0990  90.0000 231 1

