# MOL2 file generated by ConQuest
# Please check atom types

@<TRIPOS>MOLECULE
SEHYOV
    24    24     1
SMALL
NO_CHARGES
****
Generated from CSD

@<TRIPOS>ATOM
      1 O1        11.3881    4.6418   -0.4713 O.3       1 RES1    0.0000
      2 O2         9.1441    4.6418    0.0127 O.2       1 RES1    0.0000
      3 O3         9.9858    4.6418   -2.0924 O.3       1 RES1    0.0000
      4 N1        11.6079    4.6418    0.9561 N.2       1 RES1    0.0000
      5 C1        13.4211    4.6418    2.5070 C.ar      1 RES1    0.0000
      6 C2        12.6106    4.6418    3.6475 C.ar      1 RES1    0.0000
      7 C3        13.1876    4.6418    4.9006 C.ar      1 RES1    0.0000
      8 C4        14.5677    4.6418    5.0453 C.ar      1 RES1    0.0000
      9 C5        15.3900    4.6418    3.9318 C.ar      1 RES1    0.0000
     10 C6        14.8188    4.6418    2.6576 C.ar      1 RES1    0.0000
     11 C7        12.8579    4.6418    1.1456 C.2       1 RES1    0.0000
     12 C8        10.0605    4.6418   -0.7480 C.2       1 RES1    0.0000
     13 C9         8.6237    4.6418   -2.5891 C.3       1 RES1    0.0000
     14 C10        8.6948    4.6418   -4.0587 C.1       1 RES1    0.0000
     15 C11        8.7241    4.6418   -5.2526 C.1       1 RES1    0.0000
     16 H1        11.6637    4.6418    3.5595 H         1 RES1    0.0000
     17 H2        12.6336    4.6418    5.6731 H         1 RES1    0.0000
     18 H3        14.9510    4.6418    5.9142 H         1 RES1    0.0000
     19 H4        16.3331    4.6418    4.0334 H         1 RES1    0.0000
     20 H5        15.3766    4.6418    1.8893 H         1 RES1    0.0000
     21 H6        13.4444    4.6418    0.3977 H         1 RES1    0.0000
     22 H7         8.1406    5.4451   -2.2692 H         1 RES1    0.0000
     23 H8         8.7483    4.6418   -6.2019 H         1 RES1    0.0000
     24 H7G        8.1406    3.8384   -2.2692 H         1 RES1    0.0000
@<TRIPOS>BOND
     1    1    4 1
     2    2   12 2
     3    3   12 1
     4    4   11 2
     5    5    6 ar
     6    6    7 ar
     7    7    8 ar
     8    8    9 ar
     9    9   10 ar
    10   10    5 ar
    11   11    5 1
    12   12    1 1
    13   13    3 1
    14   14   13 1
    15   15   14 3
    16   16    6 1
    17   17    7 1
    18   18    8 1
    19   19    9 1
    20   20   10 1
    21   21   11 1
    22   22   13 1
    23   23   15 1
    24   24   13 1
@<TRIPOS>SUBSTRUCTURE
     1 RES1 1

@<TRIPOS>CRYSIN
  19.1680    6.1890    8.4610  90.0000  90.0000  90.0000  62 1

