# MOL2 file generated by ConQuest
# Please check atom types

@<TRIPOS>MOLECULE
SEJCIU
    31    32     1
SMALL
NO_CHARGES
****
Generated from CSD

@<TRIPOS>ATOM
      1 O1         0.6823    4.3622    6.4687 O.3       1 RES1    0.0000
      2 O2         3.1672    2.1227    8.9804 O.2       1 RES1    0.0000
      3 N1         1.6296    5.3668    6.1065 N.2       1 RES1    0.0000
      4 N2         4.8366    3.3728    8.1617 N.am      1 RES1    0.0000
      5 C1         2.7407    5.0291    6.6849 C.2       1 RES1    0.0000
      6 C2         2.5926    3.8044    7.4298 C.2       1 RES1    0.0000
      7 C3         1.3053    3.4718    7.2505 C.2       1 RES1    0.0000
      8 C4         3.9329    5.9102    6.5870 C.ar      1 RES1    0.0000
      9 C5         4.8740    5.7164    5.5760 C.ar      1 RES1    0.0000
     10 C6         5.9945    6.5484    5.5464 C.ar      1 RES1    0.0000
     11 C7         6.1668    7.5716    6.4742 C.ar      1 RES1    0.0000
     12 C8         5.2187    7.7392    7.4575 C.ar      1 RES1    0.0000
     13 C9         4.0990    6.9174    7.5480 C.ar      1 RES1    0.0000
     14 C10        3.5532    3.0334    8.2504 C.2       1 RES1    0.0000
     15 C11        4.6978    4.6516    4.5318 C.3       1 RES1    0.0000
     16 C12        7.3738    8.4755    6.4077 C.3       1 RES1    0.0000
     17 C13        3.1103    7.1163    8.6514 C.3       1 RES1    0.0000
     18 H1         5.1306    4.1049    7.5961 H         1 RES1    0.0000
     19 H2         5.4892    2.9877    8.6496 H         1 RES1    0.0000
     20 H3         0.7329    2.7253    7.4852 H         1 RES1    0.0000
     21 H4         6.6549    6.4129    4.8792 H         1 RES1    0.0000
     22 H5         5.3317    8.4358    8.0933 H         1 RES1    0.0000
     23 H6         3.7715    4.5196    4.3673 H         1 RES1    0.0000
     24 H7         5.0846    3.8400    4.8386 H         1 RES1    0.0000
     25 H8         5.1267    4.9225    3.7278 H         1 RES1    0.0000
     26 H9         8.0810    8.0270    5.9586 H         1 RES1    0.0000
     27 H10        7.1500    9.2678    5.9327 H         1 RES1    0.0000
     28 H11        7.6491    8.7015    7.2875 H         1 RES1    0.0000
     29 H12        3.3442    7.8907    9.1504 H         1 RES1    0.0000
     30 H13        2.2417    7.2280    8.2818 H         1 RES1    0.0000
     31 H14        3.1165    6.3579    9.2225 H         1 RES1    0.0000
@<TRIPOS>BOND
     1    1    3 1
     2    2   14 2
     3    3    5 2
     4    4   14 1
     5    5    6 1
     6    6    7 2
     7    7    1 1
     8    8    5 1
     9    9    8 ar
    10   10    9 ar
    11   11   10 ar
    12   12   11 ar
    13   13    8 ar
    14   14    6 1
    15   15    9 1
    16   16   11 1
    17   17   13 1
    18   18    4 1
    19   19    4 1
    20   20    7 1
    21   21   10 1
    22   22   12 1
    23   23   15 1
    24   24   15 1
    25   25   15 1
    26   26   16 1
    27   27   16 1
    28   28   16 1
    29   29   17 1
    30   30   17 1
    31   31   17 1
    32   12   13 ar
@<TRIPOS>SUBSTRUCTURE
     1 RES1 1

@<TRIPOS>CRYSIN
   7.7972    8.4637   18.4820  90.0000  90.0000  90.0000  19 1

