# MOL2 file generated by ConQuest
# Please check atom types

@<TRIPOS>MOLECULE
SEJFIX
    45    48     1
SMALL
NO_CHARGES
****
Generated from CSD

@<TRIPOS>ATOM
      1 O1         4.5167    4.7631    5.8175 O.3       1 RES1    0.0000
      2 O2         3.0177    3.6701    7.1064 O.2       1 RES1    0.0000
      3 O3         8.5578    6.1778   11.0871 O.2       1 RES1    0.0000
      4 O4         7.2640    5.0902   12.4402 O.2       1 RES1    0.0000
      5 N1         7.5529    5.5054   11.3120 N.pl3     1 RES1    0.0000
      6 C1         0.7917    7.1811    2.2599 C.3       1 RES1    0.0000
      7 H1         0.2071    6.4940    1.8779 H         1 RES1    0.0000
      8 C2         0.1876    8.2173    3.1631 C.3       1 RES1    0.0000
      9 H2        -0.1580    7.8773    4.0146 H         1 RES1    0.0000
     10 C3        -0.8564    8.9768    2.2724 C.3       1 RES1    0.0000
     11 H3        -1.4173    8.3594    1.7779 H         1 RES1    0.0000
     12 H4        -1.4166    9.5636    2.8043 H         1 RES1    0.0000
     13 C4         0.0738    9.7793    1.3317 C.3       1 RES1    0.0000
     14 H5        -0.0717    9.5269    0.4070 H         1 RES1    0.0000
     15 H6        -0.0819   10.7327    1.4245 H         1 RES1    0.0000
     16 C5         1.4970    9.4137    1.7779 C.3       1 RES1    0.0000
     17 H7         2.2028   10.0347    1.5030 H         1 RES1    0.0000
     18 C6         1.6861    7.9517    1.3424 C.3       1 RES1    0.0000
     19 H8         1.6621    7.7438    0.3856 H         1 RES1    0.0000
     20 C7         2.2754    6.9324    2.2831 C.3       1 RES1    0.0000
     21 H9         2.7621    7.2867    3.0560 H         1 RES1    0.0000
     22 C8         1.2661    9.2987    3.2810 C.3       1 RES1    0.0000
     23 H10        0.9319   10.1203    3.6737 H         1 RES1    0.0000
     24 H11        2.0521    8.9939    3.7611 H         1 RES1    0.0000
     25 C9         2.7953    5.6975    1.7030 C.2       1 RES1    0.0000
     26 H12        2.4104    5.4210    0.9015 H         1 RES1    0.0000
     27 C10        3.7528    4.9321    2.1921 C.2       1 RES1    0.0000
     28 H13        4.0110    4.2009    1.6798 H         1 RES1    0.0000
     29 C11        4.4570    5.1295    3.4845 C.3       1 RES1    0.0000
     30 H14        4.5698    6.0798    3.6433 H         1 RES1    0.0000
     31 H15        5.3392    4.7300    3.4309 H         1 RES1    0.0000
     32 C12        3.7109    4.5217    4.6358 C.3       1 RES1    0.0000
     33 H16        2.8386    4.9350    4.7304 H         1 RES1    0.0000
     34 H17        3.5893    3.5698    4.4966 H         1 RES1    0.0000
     35 C13        4.0525    4.2902    6.9921 C.2       1 RES1    0.0000
     36 C14        4.9921    4.6321    8.1149 C.ar      1 RES1    0.0000
     37 C15        4.5789    4.3467    9.4127 C.ar      1 RES1    0.0000
     38 H18        3.7443    3.9670    9.5698 H         1 RES1    0.0000
     39 C16        5.4242    4.6357   10.4677 C.ar      1 RES1    0.0000
     40 H19        5.1664    4.4613   11.3441 H         1 RES1    0.0000
     41 C17        6.6532    5.1856   10.1945 C.ar      1 RES1    0.0000
     42 C18        7.0827    5.4653    8.9200 C.ar      1 RES1    0.0000
     43 H20        7.9227    5.8341    8.7700 H         1 RES1    0.0000
     44 C19        6.2333    5.1843    7.8686 C.ar      1 RES1    0.0000
     45 H21        6.4971    5.3667    6.9957 H         1 RES1    0.0000
@<TRIPOS>BOND
     1    1   32 1
     2    2   35 2
     3    3    5 2
     4    4    5 2
     5    5   41 1
     6    6    7 1
     7    8    6 1
     8    9    8 1
     9   10    8 1
    10   11   10 1
    11   12   10 1
    12   13   10 1
    13   14   13 1
    14   15   13 1
    15   16   13 1
    16   17   16 1
    17   18    6 1
    18   19   18 1
    19   20    6 1
    20   21   20 1
    21   22    8 1
    22   23   22 1
    23   24   22 1
    24   25   20 1
    25   26   25 1
    26   27   25 2
    27   28   27 1
    28   29   27 1
    29   30   29 1
    30   31   29 1
    31   32   29 1
    32   33   32 1
    33   34   32 1
    34   35    1 1
    35   36   35 1
    36   37   36 ar
    37   38   37 1
    38   39   37 ar
    39   40   39 1
    40   41   39 ar
    41   42   41 ar
    42   43   42 1
    43   44   36 ar
    44   45   44 1
    45   16   18 1
    46   16   22 1
    47   18   20 1
    48   42   44 ar
@<TRIPOS>SUBSTRUCTURE
     1 RES1 1

@<TRIPOS>CRYSIN
   6.3238    7.4780   17.9410  94.5420  93.4560  90.8050   2 1

