# MOL2 file generated by ConQuest
# Please check atom types

@<TRIPOS>MOLECULE
SEJPOP
    48    51     1
SMALL
NO_CHARGES
****
Generated from CSD

@<TRIPOS>ATOM
      1 C1         0.1917   11.4287    7.8601 C.ar      1 RES1    0.0000
      2 C2         0.0949   11.8807    6.5506 C.ar      1 RES1    0.0000
      3 H1         0.5147   11.4305    5.8540 H         1 RES1    0.0000
      4 C3        -0.6479   13.0260    6.3184 C.ar      1 RES1    0.0000
      5 H2        -0.7136   13.3547    5.4510 H         1 RES1    0.0000
      6 C4        -1.2918   13.6940    7.3373 C.ar      1 RES1    0.0000
      7 H3        -1.7950   14.4520    7.1433 H         1 RES1    0.0000
      8 C5        -1.1991   13.2508    8.6436 C.ar      1 RES1    0.0000
      9 H4        -1.6179   13.7040    9.3392 H         1 RES1    0.0000
     10 C6        -0.4547   12.1040    8.8716 C.ar      1 RES1    0.0000
     11 C7        -0.2172   11.4111   10.1493 C.2       1 RES1    0.0000
     12 C8         0.9073   10.2268    8.4061 C.3       1 RES1    0.0000
     13 H5         1.8710   10.3940    8.3425 H         1 RES1    0.0000
     14 C9         0.6025    8.9306    7.6618 C.ar      1 RES1    0.0000
     15 C10        1.5865    8.4128    6.7923 C.ar      1 RES1    0.0000
     16 C11        1.3039    7.2506    6.0798 C.ar      1 RES1    0.0000
     17 H6         1.9567    6.9016    5.5168 H         1 RES1    0.0000
     18 C12        0.0945    6.5960    6.1763 C.ar      1 RES1    0.0000
     19 C13       -0.8590    7.1312    7.0235 C.ar      1 RES1    0.0000
     20 H7        -1.6779    6.6988    7.1009 H         1 RES1    0.0000
     21 C14       -0.6465    8.2848    7.7625 C.ar      1 RES1    0.0000
     22 C15       -1.7800    8.8062    8.6065 C.3       1 RES1    0.0000
     23 H8        -2.5434    8.2332    8.5058 H         1 RES1    0.0000
     24 H9        -2.0062    9.6955    8.3234 H         1 RES1    0.0000
     25 H10       -1.5112    8.8213    9.5279 H         1 RES1    0.0000
     26 C16       -0.1923    5.3374    5.3927 C.3       1 RES1    0.0000
     27 H11       -0.3714    4.6168    6.0003 H         1 RES1    0.0000
     28 H12        0.5689    5.1170    4.8509 H         1 RES1    0.0000
     29 H13       -0.9567    5.4775    4.8297 H         1 RES1    0.0000
     30 C17        2.9289    9.0696    6.5898 C.3       1 RES1    0.0000
     31 H14        3.4660    8.5284    6.0056 H         1 RES1    0.0000
     32 H15        3.3710    9.1615    7.4359 H         1 RES1    0.0000
     33 H16        2.8052    9.9366    6.1964 H         1 RES1    0.0000
     34 C18        0.9478    9.3012   10.7706 C.ar      1 RES1    0.0000
     35 C19        0.4181    9.2534   12.0642 C.ar      1 RES1    0.0000
     36 H17       -0.2243    9.8735   12.3239 H         1 RES1    0.0000
     37 C20        0.8419    8.2934   12.9548 C.ar      1 RES1    0.0000
     38 H18        0.4980    8.2738   13.8179 H         1 RES1    0.0000
     39 C21        1.7756    7.3662   12.5614 C.ar      1 RES1    0.0000
     40 C22        2.3062    7.3682   11.2827 C.ar      1 RES1    0.0000
     41 H19        2.9281    6.7258   11.0282 H         1 RES1    0.0000
     42 C23        1.8982    8.3366   10.3974 C.ar      1 RES1    0.0000
     43 H20        2.2563    8.3526    9.5396 H         1 RES1    0.0000
     44 N1         2.2383    6.3610   13.5083 N.pl3     1 RES1    0.0000
     45 N2         0.5266   10.2696    9.8449 N.am      1 RES1    0.0000
     46 O1        -0.5788   11.7565   11.2591 O.2       1 RES1    0.0000
     47 O2         2.9726    5.4760   13.1383 O.2       1 RES1    0.0000
     48 O3         1.8773    6.4545   14.6757 O.2       1 RES1    0.0000
@<TRIPOS>BOND
     1    1    2 ar
     2    2    3 1
     3    4    2 ar
     4    5    4 1
     5    6    4 ar
     6    7    6 1
     7    8    6 ar
     8    9    8 1
     9   10    1 ar
    10   11   10 1
    11   12    1 1
    12   13   12 1
    13   14   12 1
    14   15   14 ar
    15   16   15 ar
    16   17   16 1
    17   18   16 ar
    18   19   18 ar
    19   20   19 1
    20   21   14 ar
    21   22   21 1
    22   23   22 1
    23   24   22 1
    24   25   22 1
    25   26   18 1
    26   27   26 1
    27   28   26 1
    28   29   26 1
    29   30   15 1
    30   31   30 1
    31   32   30 1
    32   33   30 1
    33   34   35 ar
    34   35   36 1
    35   37   35 ar
    36   38   37 1
    37   39   37 ar
    38   40   39 ar
    39   41   40 1
    40   42   34 ar
    41   43   42 1
    42   44   39 1
    43   45   11 1
    44   46   11 2
    45   47   44 2
    46   48   44 2
    47    8   10 ar
    48   12   45 1
    49   19   21 ar
    50   34   45 1
    51   40   42 ar
@<TRIPOS>SUBSTRUCTURE
     1 RES1 1

@<TRIPOS>CRYSIN
   8.0658   22.5320   10.8397  90.0000 101.9940  90.0000  14 1

