# MOL2 file generated by ConQuest
# Please check atom types

@<TRIPOS>MOLECULE
SEKBUI
    51    53     1
SMALL
NO_CHARGES
****
Generated from CSD

@<TRIPOS>ATOM
      1 O1        13.3005   -0.2316    5.5833 O.2       1 RES1    0.0000
      2 N1         8.7508    5.2589    4.1139 N.pl3     1 RES1    0.0000
      3 C1         7.6149    6.0345    4.3773 C.2       1 RES1    0.0000
      4 C2         7.1898    5.7257    5.6336 C.2       1 RES1    0.0000
      5 H1         6.4624    6.1051    6.0719 H         1 RES1    0.0000
      6 O2         4.3284    9.0138    2.5954 O.3       1 RES1    0.0000
      7 C3         9.0077    4.4597    5.1879 C.2       1 RES1    0.0000
      8 O3        11.0849    5.0830   -0.9097 O.3       1 RES1    0.0000
      9 C4        10.1597    3.5422    5.2095 C.ar      1 RES1    0.0000
     10 C5         9.2504    4.1267    2.0240 C.ar      1 RES1    0.0000
     11 H2         8.7326    3.4075    2.3055 H         1 RES1    0.0000
     12 C6         9.4299    5.2113    2.8478 C.ar      1 RES1    0.0000
     13 C7        12.3126    1.8344    5.2419 C.ar      1 RES1    0.0000
     14 C8        11.4481    4.0397    5.1001 C.ar      1 RES1    0.0000
     15 H3        11.5826    4.9556    5.0164 H         1 RES1    0.0000
     16 C9         9.9759    2.1758    5.3368 C.ar      1 RES1    0.0000
     17 H4         9.1141    1.8345    5.4134 H         1 RES1    0.0000
     18 O4         7.1250    4.3820    8.2917 O.2       1 RES1    0.0000
     19 C10       11.0604    1.3082    5.3519 C.ar      1 RES1    0.0000
     20 H5        10.9348    0.3901    5.4344 H         1 RES1    0.0000
     21 C11       12.5332    3.1864    5.1149 C.ar      1 RES1    0.0000
     22 H6        13.3986    3.5193    5.0401 H         1 RES1    0.0000
     23 N2        13.4763    0.9307    5.2659 N.pl3     1 RES1    0.0000
     24 C12        8.0444    4.7287    6.1562 C.2       1 RES1    0.0000
     25 C13       10.5806    5.1886    0.3526 C.ar      1 RES1    0.0000
     26 C14        5.5645    8.5709    2.4454 C.2       1 RES1    0.0000
     27 C15       10.7805    6.2617    1.1822 C.ar      1 RES1    0.0000
     28 H7        11.2968    6.9818    0.9004 H         1 RES1    0.0000
     29 C16        5.9341    7.5734    3.4413 C.2       1 RES1    0.0000
     30 H8         5.3344    7.3655    4.1216 H         1 RES1    0.0000
     31 C17        7.0957    6.9608    3.3989 C.2       1 RES1    0.0000
     32 H9         7.6387    7.1428    2.6662 H         1 RES1    0.0000
     33 C18       10.2075    6.2641    2.4428 C.ar      1 RES1    0.0000
     34 H10       10.3514    6.9827    3.0157 H         1 RES1    0.0000
     35 C19        9.8352    4.1078    0.7862 C.ar      1 RES1    0.0000
     36 H11        9.7317    3.3658    0.2349 H         1 RES1    0.0000
     37 C20        7.9944    4.1404    7.4728 C.2       1 RES1    0.0000
     38 H12        8.6644    3.5409    7.7105 H         1 RES1    0.0000
     39 O5         6.2623    8.9431    1.5652 O.2       1 RES1    0.0000
     40 O6        14.5593    1.3925    4.9912 O.2       1 RES1    0.0000
     41 C21        3.8489   10.0305    1.6889 C.3       1 RES1    0.0000
     42 H13        4.1175    9.8215    0.7815 H         1 RES1    0.0000
     43 H14        4.2228   10.8938    1.9294 H         1 RES1    0.0000
     44 C22        2.3646   10.0715    1.7868 C.3       1 RES1    0.0000
     45 H15        2.0028    9.2234    1.5211 H         1 RES1    0.0000
     46 H16        2.0250   10.7596    1.2094 H         1 RES1    0.0000
     47 H17        2.1082   10.2592    2.6927 H         1 RES1    0.0000
     48 C23       11.7017    6.2283   -1.4778 C.3       1 RES1    0.0000
     49 H18       11.0745    6.9553   -1.4946 H         1 RES1    0.0000
     50 H19       11.9849    6.0291   -2.3726 H         1 RES1    0.0000
     51 H20       12.4641    6.4775   -0.9479 H         1 RES1    0.0000
@<TRIPOS>BOND
     1    1   23 2
     2    2    3 1
     3    3    4 2
     4    4    5 1
     5    6   26 1
     6    7    2 1
     7    8   25 1
     8    9    7 1
     9   10   11 1
    10   12    2 1
    11   13   19 ar
    12   14    9 ar
    13   15   14 1
    14   16    9 ar
    15   17   16 1
    16   18   37 2
    17   19   16 ar
    18   20   19 1
    19   21   13 ar
    20   22   21 1
    21   23   13 1
    22   24    4 1
    23   25   27 ar
    24   26   29 1
    25   27   28 1
    26   29   30 1
    27   31    3 1
    28   32   31 1
    29   33   12 ar
    30   34   33 1
    31   35   10 ar
    32   36   35 1
    33   37   24 1
    34   38   37 1
    35   39   26 2
    36   40   23 2
    37   41    6 1
    38   42   41 1
    39   43   41 1
    40   44   41 1
    41   45   44 1
    42   46   44 1
    43   47   44 1
    44   48    8 1
    45   49   48 1
    46   50   48 1
    47   51   48 1
    48    7   24 2
    49   10   12 ar
    50   14   21 ar
    51   25   35 ar
    52   27   33 ar
    53   29   31 2
@<TRIPOS>SUBSTRUCTURE
     1 RES1 1

@<TRIPOS>CRYSIN
   7.8222    9.7322   14.2060  80.1780  85.7460  81.0550   2 1

