# MOL2 file generated by ConQuest
# Please check atom types

@<TRIPOS>MOLECULE
SEKFOE
    38    39     1
SMALL
NO_CHARGES
****
Generated from CSD

@<TRIPOS>ATOM
      1 N1         1.9998    2.3331    6.6641 N.3       1 RES1    0.0000
      2 N2         2.0022    0.7621    8.4497 N.2       1 RES1    0.0000
      3 N3        -4.2767    1.5200    8.4582 N.pl3     1 RES1    0.0000
      4 O1         1.3008    2.9117    5.7635 O.2       1 RES1    0.0000
      5 O2        -4.7976    0.4771    8.8098 O.2       1 RES1    0.0000
      6 O3        -4.8973    2.5569    8.3053 O.2       1 RES1    0.0000
      7 C1         1.3736    1.5117    7.6326 C.2       1 RES1    0.0000
      8 C2         3.4676    2.6012    6.7222 C.3       1 RES1    0.0000
      9 C3         4.1172    1.3066    7.2258 C.3       1 RES1    0.0000
     10 H1         4.0890    0.6609    6.4444 H         1 RES1    0.0000
     11 H2         5.0733    1.4914    7.3540 H         1 RES1    0.0000
     12 C4         3.4742    0.6537    8.4425 C.3       1 RES1    0.0000
     13 C5         3.9584    2.8998    5.3209 C.3       1 RES1    0.0000
     14 H3         4.9411    2.9739    5.3763 H         1 RES1    0.0000
     15 H4         3.5507    3.7241    4.9486 H         1 RES1    0.0000
     16 H5         3.7258    2.1434    4.6755 H         1 RES1    0.0000
     17 C6         3.6865    3.8206    7.6168 C.3       1 RES1    0.0000
     18 H6         3.3269    3.7420    8.4259 H         1 RES1    0.0000
     19 H7         4.7599    3.9116    7.7315 H         1 RES1    0.0000
     20 H8         3.3795    4.6350    7.1053 H         1 RES1    0.0000
     21 C7         3.7943   -0.8422    8.4104 C.3       1 RES1    0.0000
     22 H9         3.4810   -1.3128    7.5060 H         1 RES1    0.0000
     23 H10        3.4692   -1.2503    9.0907 H         1 RES1    0.0000
     24 H11        4.8959   -1.0270    8.4130 H         1 RES1    0.0000
     25 C8         3.9616    1.2342    9.7752 C.3       1 RES1    0.0000
     26 H12        3.5994    0.7680   10.4576 H         1 RES1    0.0000
     27 H13        3.7959    2.2327    9.8135 H         1 RES1    0.0000
     28 H14        5.0073    1.1610    9.8263 H         1 RES1    0.0000
     29 C9        -0.1161    1.5468    7.7271 C.ar      1 RES1    0.0000
     30 C10       -0.7651    0.3724    8.0984 C.ar      1 RES1    0.0000
     31 H15       -0.2705   -0.4358    8.1914 H         1 RES1    0.0000
     32 C11       -2.1297    0.3474    8.3348 C.ar      1 RES1    0.0000
     33 H16       -2.5951   -0.4733    8.6050 H         1 RES1    0.0000
     34 C12       -2.8324    1.5227    8.1906 C.ar      1 RES1    0.0000
     35 C13       -2.2278    2.7087    7.8345 C.ar      1 RES1    0.0000
     36 H17       -2.8064    3.5276    7.8139 H         1 RES1    0.0000
     37 C14       -0.8682    2.7078    7.5928 C.ar      1 RES1    0.0000
     38 H18       -0.4321    3.4830    7.3669 H         1 RES1    0.0000
@<TRIPOS>BOND
     1    1    4 1
     2    2    7 2
     3    3    5 2
     4    6    3 2
     5    7    1 1
     6    8    1 1
     7    9    8 1
     8   10    9 1
     9   11    9 1
    10   12    2 1
    11   13    8 1
    12   14   13 1
    13   15   13 1
    14   16   13 1
    15   17    8 1
    16   18   17 1
    17   19   17 1
    18   20   17 1
    19   21   12 1
    20   22   21 1
    21   23   21 1
    22   24   21 1
    23   25   12 1
    24   26   25 1
    25   27   25 1
    26   28   25 1
    27   29    7 1
    28   30   29 ar
    29   31   30 1
    30   32   30 ar
    31   33   32 1
    32   34    3 1
    33   35   34 ar
    34   36   35 1
    35   37   29 ar
    36   38   37 1
    37    9   12 1
    38   32   34 ar
    39   35   37 ar
@<TRIPOS>SUBSTRUCTURE
     1 RES1 1

@<TRIPOS>CRYSIN
  12.2972    8.9307   12.9327  90.0000  94.9930  90.0000 231 1

