# MOL2 file generated by ConQuest
# Please check atom types

@<TRIPOS>MOLECULE
SEKGEV
    39    40     1
SMALL
USER_CHARGES
****
Generated from CSD

@<TRIPOS>ATOM
      1 O1         6.7971    4.5719    3.1452 O.2       1 RES1    0.0000
      2 O2         9.9798    7.5102    1.6950 O.2       1 RES1   -1.0000
      3 O3         3.6687   10.1849    3.3912 O.2       1 RES1    0.0000
      4 O4         4.0441   10.5419    1.3186 O.2       1 RES1    0.0000
      5 N1         8.0341    4.8275    2.9086 N.3       1 RES1    0.0000
      6 N2         9.6577    6.3218    2.0473 N.pl3     1 RES1    1.0000
      7 N3         4.3177   10.0033    2.3747 N.pl3     1 RES1    0.0000
      8 C1         8.3993    6.0520    2.4797 C.2       1 RES1    0.0000
      9 C2         9.0077    3.7194    3.1881 C.3       1 RES1    0.0000
     10 C3        10.4364    4.2704    3.0306 C.3       1 RES1    0.0000
     11 H1        10.6796    4.7120    3.8593 H         1 RES1    0.0000
     12 H2        11.0376    3.5166    2.9197 H         1 RES1    0.0000
     13 C4        10.6888    5.2375    1.8934 C.3       1 RES1    0.0000
     14 C5         8.8496    3.3306    4.6394 C.3       1 RES1    0.0000
     15 H3         7.9699    2.9762    4.7811 H         1 RES1    0.0000
     16 H4         8.9765    4.1046    5.1925 H         1 RES1    0.0000
     17 H5         9.5039    2.6650    4.8661 H         1 RES1    0.0000
     18 C6         8.6661    2.5504    2.2920 C.3       1 RES1    0.0000
     19 H6         7.7639    2.2710    2.4607 H         1 RES1    0.0000
     20 H7         9.2662    1.8231    2.4726 H         1 RES1    0.0000
     21 H8         8.7525    2.8158    1.3728 H         1 RES1    0.0000
     22 C7        12.0681    5.8528    2.1140 C.3       1 RES1    0.0000
     23 H9        12.1303    6.1852    3.0126 H         1 RES1    0.0000
     24 H10       12.1989    6.5748    1.4954 H         1 RES1    0.0000
     25 H11       12.7431    5.1846    1.9722 H         1 RES1    0.0000
     26 C8        10.5757    4.7112    0.4791 C.3       1 RES1    0.0000
     27 H12        9.7060    4.3241    0.3501 H         1 RES1    0.0000
     28 H13       11.2473    4.0420    0.3323 H         1 RES1    0.0000
     29 H14       10.7003    5.4323   -0.1424 H         1 RES1    0.0000
     30 C9         7.3809    7.1329    2.4530 C.ar      1 RES1    0.0000
     31 C10        7.0836    7.7852    1.2693 C.ar      1 RES1    0.0000
     32 H15        7.5565    7.5825    0.4945 H         1 RES1    0.0000
     33 C11        6.0790    8.7409    1.2409 C.ar      1 RES1    0.0000
     34 H16        5.8579    9.1755    0.4490 H         1 RES1    0.0000
     35 C12        5.4200    9.0318    2.4087 C.ar      1 RES1    0.0000
     36 C13        5.7209    8.4376    3.6055 C.ar      1 RES1    0.0000
     37 H17        5.2804    8.6827    4.3874 H         1 RES1    0.0000
     38 C14        6.7004    7.4626    3.6136 C.ar      1 RES1    0.0000
     39 H18        6.9052    7.0235    4.4072 H         1 RES1    0.0000
@<TRIPOS>BOND
     1    1    5 1
     2    2    6 1
     3    3    7 2
     4    4    7 2
     5    5    8 1
     6    6    8 2
     7    7   35 1
     8    8   30 1
     9    9    5 1
    10   10    9 1
    11   11   10 1
    12   12   10 1
    13   13    6 1
    14   14    9 1
    15   15   14 1
    16   16   14 1
    17   17   14 1
    18   18    9 1
    19   19   18 1
    20   20   18 1
    21   21   18 1
    22   22   13 1
    23   23   22 1
    24   24   22 1
    25   25   22 1
    26   26   13 1
    27   27   26 1
    28   28   26 1
    29   29   26 1
    30   30   31 ar
    31   31   32 1
    32   33   31 ar
    33   34   33 1
    34   35   33 ar
    35   36   35 ar
    36   37   36 1
    37   38   30 ar
    38   39   38 1
    39   10   13 1
    40   36   38 ar
@<TRIPOS>SUBSTRUCTURE
     1 RES1 1

@<TRIPOS>CRYSIN
   8.4281    8.8158   20.0900  90.0000 100.0630  90.0000 231 1

