# MOL2 file generated by ConQuest
# Please check atom types

@<TRIPOS>MOLECULE
SEKGOF
    36    37     1
SMALL
USER_CHARGES
****
Generated from CSD

@<TRIPOS>ATOM
      1 O1         1.2091    0.9128    1.4926 O.2       1 RES1    0.0000
      2 O2         3.9237    4.5247    2.0818 O.2       1 RES1   -1.0000
      3 N1         1.7527    1.9748    1.0003 N.3       1 RES1    0.0000
      4 N2         3.0828    3.8822    1.3480 N.pl3     1 RES1    1.0000
      5 N3         2.2203    1.8072    5.3524 N.ar      1 RES1    0.0000
      6 C1         2.6195    2.6811    1.7537 C.2       1 RES1    0.0000
      7 C2         1.4162    2.2849   -0.4284 C.3       1 RES1    0.0000
      8 C3         2.2401    3.4918   -0.8773 C.3       1 RES1    0.0000
      9 H1         3.1116    3.1930   -1.2263 H         1 RES1    0.0000
     10 H2         1.7796    3.9004   -1.6012 H         1 RES1    0.0000
     11 C4         2.5077    4.5828    0.1525 C.3       1 RES1    0.0000
     12 C5         1.8209    1.0583   -1.2448 C.3       1 RES1    0.0000
     13 H3         1.3633    0.2351   -1.0056 H         1 RES1    0.0000
     14 H4         2.8035    0.8592   -1.1521 H         1 RES1    0.0000
     15 H5         1.7670    1.2866   -2.2163 H         1 RES1    0.0000
     16 C6        -0.0858    2.4896   -0.5184 C.3       1 RES1    0.0000
     17 H6        -0.3047    2.7121   -1.4059 H         1 RES1    0.0000
     18 H7        -0.3892    3.2400    0.0879 H         1 RES1    0.0000
     19 H8        -0.5186    1.6200   -0.3905 H         1 RES1    0.0000
     20 C7         1.2741    5.3396    0.6366 C.3       1 RES1    0.0000
     21 H9         1.5945    6.0419    1.2204 H         1 RES1    0.0000
     22 H10        0.5936    4.7895    1.1326 H         1 RES1    0.0000
     23 H11        0.8514    5.7619   -0.0976 H         1 RES1    0.0000
     24 C8         3.5343    5.5631   -0.3837 C.3       1 RES1    0.0000
     25 H12        4.3740    5.1058   -0.7616 H         1 RES1    0.0000
     26 H13        3.1629    6.0205   -1.1814 H         1 RES1    0.0000
     27 H14        3.7549    6.2513    0.2441 H         1 RES1    0.0000
     28 C9         2.9795    2.1994    3.1123 C.ar      1 RES1    0.0000
     29 C10        4.2642    1.8252    3.4514 C.ar      1 RES1    0.0000
     30 H15        4.9467    1.8059    2.8021 H         1 RES1    0.0000
     31 C11        4.5027    1.4441    4.7656 C.ar      1 RES1    0.0000
     32 H16        5.3317    1.1819    5.0282 H         1 RES1    0.0000
     33 C12        3.4662    1.4398    5.6521 C.ar      1 RES1    0.0000
     34 H17        3.5890    1.1327    6.5611 H         1 RES1    0.0000
     35 C13        2.0121    2.1723    4.0851 C.ar      1 RES1    0.0000
     36 H18        1.1274    2.4749    3.8956 H         1 RES1    0.0000
@<TRIPOS>BOND
     1    1    3 1
     2    2    4 1
     3    3    6 1
     4    4    6 2
     5    5   33 ar
     6    6   28 1
     7    7    3 1
     8    8    7 1
     9    9    8 1
    10   10    8 1
    11   11    4 1
    12   12    7 1
    13   13   12 1
    14   14   12 1
    15   15   12 1
    16   16    7 1
    17   17   16 1
    18   18   16 1
    19   19   16 1
    20   20   11 1
    21   21   20 1
    22   22   20 1
    23   23   20 1
    24   24   11 1
    25   25   24 1
    26   26   24 1
    27   27   24 1
    28   28   29 ar
    29   29   30 1
    30   31   29 ar
    31   32   31 1
    32   33   31 ar
    33   34   33 1
    34   35    5 ar
    35   36   35 1
    36    8   11 1
    37   28   35 ar
@<TRIPOS>SUBSTRUCTURE
     1 RES1 1

@<TRIPOS>CRYSIN
   6.1511   21.3720    9.8026  90.0000  95.1180  90.0000 231 1

