# MOL2 file generated by ConQuest
# Please check atom types

@<TRIPOS>MOLECULE
SEKGAR
    31    30     2
SMALL
USER_CHARGES
****
Generated from CSD

@<TRIPOS>ATOM
      1 O1        -0.6081   -0.3639   11.8409 O.2       1 RES1    0.0000
      2 O2         1.1961    2.0428   15.2499 O.2       1 RES1   -1.0000
      3 N1        -0.4165    0.7934   12.4000 N.3       1 RES1    0.0000
      4 N2         0.4760    2.0264   14.1776 N.pl3     1 RES1    1.0000
      5 C1         0.3066    0.8593   13.5170 C.2       1 RES1    0.0000
      6 C2        -1.0525    1.9533   11.7197 C.3       1 RES1    0.0000
      7 C3        -0.4306    3.2297   12.2870 C.3       1 RES1    0.0000
      8 H1        -0.9576    3.9337   12.0461 H         1 RES1    0.0000
      9 H2         0.4761    3.3601   11.7957 H         1 RES1    0.0000
     10 C4        -1.6552    2.8908   12.8852 Du        2 SUP2    0.0000
     11 C5        -0.2023    3.3023   13.7940 C.3       1 RES1    0.0000
     12 C6        -2.5574    1.8376   11.9101 C.3       1 RES1    0.0000
     13 H3        -2.7709    1.1336   11.2193 H         1 RES1    0.0000
     14 H4        -3.0123    2.5053   11.3893 H         1 RES1    0.0000
     15 H5        -2.8475    1.6778   12.9656 H         1 RES1    0.0000
     16 C7        -0.6628    1.8569   10.2442 C.3       1 RES1    0.0000
     17 H6        -1.0299    2.5847    9.8903 H         1 RES1    0.0000
     18 H7         0.3621    1.8705   10.0912 H         1 RES1    0.0000
     19 H8        -1.0929    0.7595    9.8130 H         1 RES1    0.0000
     20 C8         0.7588    4.4518   14.0520 C.3       1 RES1    0.0000
     21 H9         1.0690    4.5912   15.0673 H         1 RES1    0.0000
     22 H10        1.5487    4.3985   13.5219 H         1 RES1    0.0000
     23 H11        0.2421    5.2714   13.8928 H         1 RES1    0.0000
     24 C9        -1.4093    3.4599   14.6825 C.3       1 RES1    0.0000
     25 H12       -1.1237    3.6617   15.5772 H         1 RES1    0.0000
     26 H13       -1.9439    4.3192   14.3719 H         1 RES1    0.0000
     27 H14       -2.0636    2.7207   14.6407 H         1 RES1    0.0000
     28 C10        0.9159   -0.3786   14.0690 C.3       1 RES1    0.0000
     29 H15        1.1692   -0.3288   14.8664 H         1 RES1    0.0000
     30 H16        1.6723   -0.6122   13.5528 H         1 RES1    0.0000
     31 H17        0.3931   -1.1563   14.0010 H         1 RES1    0.0000
@<TRIPOS>BOND
     1    1    3 1
     2    2    4 1
     3    3    5 1
     4    4    5 2
     5    5   28 1
     6    6    3 1
     7    7    6 1
     8    8    7 1
     9    9    7 1
    10   11    4 1
    11   12    6 1
    12   13   12 1
    13   14   12 1
    14   15   12 1
    15   16    6 1
    16   17   16 1
    17   18   16 1
    18   19   16 1
    19   20   11 1
    20   21   20 1
    21   22   20 1
    22   23   20 1
    23   24   11 1
    24   25   24 1
    25   26   24 1
    26   27   24 1
    27   28   29 1
    28   30   28 1
    29   31   28 1
    30    7   11 1
@<TRIPOS>SUBSTRUCTURE
     1 RES1 1
     2 SUP2 10

@<TRIPOS>CRYSIN
   5.9211   11.3364   15.4592  90.0000  91.5410  90.0000 231 1

