# MOL2 file generated by ConQuest
# Please check atom types

@<TRIPOS>MOLECULE
SEKHOF
    24    24     1
SMALL
NO_CHARGES
****
Generated from CSD

@<TRIPOS>ATOM
      1 O1         1.7776    2.2189    1.7780 O.2       1 RES1    0.0000
      2 O2         1.9743    0.3044    2.7357 O.2       1 RES1    0.0000
      3 O3         4.9554    1.8409    1.5789 O.3       1 RES1    0.0000
      4 O4         4.9500    4.2519    4.3088 O.3       1 RES1    0.0000
      5 O5         7.5288    4.7295    3.1396 O.3       1 RES1    0.0000
      6 O6         7.8443    2.1392    1.9289 O.3       1 RES1    0.0000
      7 N1         2.3189    1.4645    2.5626 N.pl3     1 RES1    0.0000
      8 C1         3.4722    1.9656    3.3905 C.3       1 RES1    0.0000
      9 C2         4.4189    2.7614    2.5299 C.3       1 RES1    0.0000
     10 C3         5.5474    3.3723    3.3713 C.3       1 RES1    0.0000
     11 C4         6.4750    4.1043    2.4088 C.3       1 RES1    0.0000
     12 C5         7.0098    3.1501    1.3549 C.3       1 RES1    0.0000
     13 C6         5.8513    2.4764    0.6462 C.3       1 RES1    0.0000
     14 H1         5.4339    4.3525    4.8637 H         1 RES1    0.0000
     15 H2         7.6178    5.4528    2.8482 H         1 RES1    0.0000
     16 H3         8.5625    2.5428    2.1020 H         1 RES1    0.0000
     17 H4         3.0700    2.5514    4.0588 H         1 RES1    0.0000
     18 H5         3.9065    1.1319    3.7886 H         1 RES1    0.0000
     19 H6         3.9528    3.5286    2.0376 H         1 RES1    0.0000
     20 H7         6.0268    2.6751    3.8377 H         1 RES1    0.0000
     21 H8         5.9582    4.8071    1.9626 H         1 RES1    0.0000
     22 H9         7.5313    3.6967    0.7106 H         1 RES1    0.0000
     23 H10        6.1815    1.6407    0.0375 H         1 RES1    0.0000
     24 H11        5.3656    3.1782    0.1183 H         1 RES1    0.0000
@<TRIPOS>BOND
     1    1    7 2
     2    2    7 2
     3    3    9 1
     4    4   10 1
     5    5   11 1
     6    6   12 1
     7    7    8 1
     8    8    9 1
     9    9   10 1
    10   10   11 1
    11   11   12 1
    12   12   13 1
    13   13    3 1
    14   14    4 1
    15   15    5 1
    16   16    6 1
    17   17    8 1
    18   18    8 1
    19   19    9 1
    20   20   10 1
    21   21   11 1
    22   22   12 1
    23   23   13 1
    24   24   13 1
@<TRIPOS>SUBSTRUCTURE
     1 RES1 1

@<TRIPOS>CRYSIN
  17.1420    5.1080   10.0880  90.0000 107.6000  90.0000   5 1

