# MOL2 file generated by ConQuest
# Please check atom types

@<TRIPOS>MOLECULE
SEKHUL
    39    39     1
SMALL
NO_CHARGES
****
Generated from CSD

@<TRIPOS>ATOM
      1 O1         3.9375   -1.4278    3.1536 O.2       1 RES1    0.0000
      2 O2         5.6444   -0.6308    2.3881 O.2       1 RES1    0.0000
      3 O3         3.9812   -1.0221   -0.3746 O.3       1 RES1    0.0000
      4 O4         0.7472    0.3015    0.7168 O.3       1 RES1    0.0000
      5 O5         0.3505   -0.0568   -2.0675 O.3       1 RES1    0.0000
      6 O6         2.9503   -0.1311   -2.9050 O.3       1 RES1    0.0000
      7 O7         0.8852    2.4953    0.3602 O.2       1 RES1    0.0000
      8 O8        -1.3248   -1.3772   -1.5092 O.2       1 RES1    0.0000
      9 O9         2.7524   -1.1212   -4.8465 O.2       1 RES1    0.0000
     10 N1         4.4593   -0.5843    2.5088 N.pl3     1 RES1    0.0000
     11 C1         3.5921    0.2075    1.5489 C.3       1 RES1    0.0000
     12 C2         2.9589   -0.6680    0.5223 C.3       1 RES1    0.0000
     13 C3         1.8235    0.0712   -0.2089 C.3       1 RES1    0.0000
     14 C4         1.2982   -0.8208   -1.3057 C.3       1 RES1    0.0000
     15 C5         2.4259   -1.2957   -2.2170 C.3       1 RES1    0.0000
     16 C6         3.5261   -1.8821   -1.3652 C.3       1 RES1    0.0000
     17 C7         0.3076    1.5651    0.8555 C.2       1 RES1    0.0000
     18 C8        -0.8997    1.6043    1.7326 C.3       1 RES1    0.0000
     19 C9        -0.9486   -0.4574   -2.0748 C.2       1 RES1    0.0000
     20 C10       -1.8081    0.4956   -2.8510 C.3       1 RES1    0.0000
     21 C11        2.9974   -0.1755   -4.2432 C.2       1 RES1    0.0000
     22 C12        3.4482    1.1119   -4.8285 C.3       1 RES1    0.0000
     23 H1         2.9032    0.6628    2.0657 H         1 RES1    0.0000
     24 H2         4.1174    0.8972    1.1022 H         1 RES1    0.0000
     25 H3         2.5853   -1.4350    0.9455 H         1 RES1    0.0000
     26 H4         2.1654    0.8786   -0.6033 H         1 RES1    0.0000
     27 H5         0.8638   -1.5899   -0.9185 H         1 RES1    0.0000
     28 H6         2.1311   -1.9512   -2.8348 H         1 RES1    0.0000
     29 H7         4.2708   -2.0834   -1.9415 H         1 RES1    0.0000
     30 H8         3.1997   -2.6667   -0.9563 H         1 RES1    0.0000
     31 H9        -1.3008    2.4468    1.8064 H         1 RES1    0.0000
     32 H10       -0.9117    1.1367    2.5736 H         1 RES1    0.0000
     33 H11       -1.3616    1.0613    1.0752 H         1 RES1    0.0000
     34 H12       -1.1585    1.1026   -3.1878 H         1 RES1    0.0000
     35 H13       -2.4507    0.9343   -2.3161 H         1 RES1    0.0000
     36 H14       -2.2622    0.0733   -3.6110 H         1 RES1    0.0000
     37 H15        3.5279    1.0128   -5.7722 H         1 RES1    0.0000
     38 H16        4.2982    1.2884   -4.4341 H         1 RES1    0.0000
     39 H17        2.8500    1.8552   -4.6358 H         1 RES1    0.0000
@<TRIPOS>BOND
     1    1   10 2
     2    2   10 2
     3    3   12 1
     4    4   13 1
     5    5   14 1
     6    6   15 1
     7    7   17 2
     8    8   19 2
     9    9   21 2
    10   10   11 1
    11   11   12 1
    12   12   13 1
    13   13   14 1
    14   14   15 1
    15   15   16 1
    16   16    3 1
    17   17    4 1
    18   18   17 1
    19   19    5 1
    20   20   19 1
    21   21    6 1
    22   22   21 1
    23   23   11 1
    24   24   11 1
    25   25   12 1
    26   26   13 1
    27   27   14 1
    28   28   15 1
    29   29   16 1
    30   30   16 1
    31   31   18 1
    32   32   18 1
    33   33   18 1
    34   34   20 1
    35   35   20 1
    36   36   20 1
    37   37   22 1
    38   38   22 1
    39   39   22 1
@<TRIPOS>SUBSTRUCTURE
     1 RES1 1

@<TRIPOS>CRYSIN
   8.5690   10.3240   18.0100  90.0000  90.0000  90.0000  19 1

