# MOL2 file generated by ConQuest
# Please check atom types

@<TRIPOS>MOLECULE
SEKHAR01
    28    28     1
SMALL
NO_CHARGES
****
Generated from CSD

@<TRIPOS>ATOM
      1 C1         9.8685    7.7717    3.3412 C.3       1 RES1    0.0000
      2 O1         9.5784    7.9519    4.7169 O.3       1 RES1    0.0000
      3 C2         8.9822    6.6508    2.8189 C.3       1 RES1    0.0000
      4 O2         9.3664    5.4007    3.3813 O.3       1 RES1    0.0000
      5 C3         9.1295    6.5352    1.3081 C.3       1 RES1    0.0000
      6 O3         8.7748    7.7740    0.7064 O.3       1 RES1    0.0000
      7 C4         9.6838    8.8235    1.0633 C.3       1 RES1    0.0000
      8 C5         9.6305    9.0695    2.5733 C.3       1 RES1    0.0000
      9 O4        10.6585   10.0159    2.8827 O.3       1 RES1    0.0000
     10 C6         8.1741    5.4981    0.7554 C.3       1 RES1    0.0000
     11 N1         8.4314    5.3077   -0.7094 N.pl3     1 RES1    0.0000
     12 O5         7.5235    5.5163   -1.4877 O.2       1 RES1    0.0000
     13 O6         9.5444    4.9654   -1.0640 O.2       1 RES1    0.0000
     14 C7         9.3233   10.0272    0.2041 C.3       1 RES1    0.0000
     15 O7         8.1435   10.7152    0.6032 O.3       1 RES1    0.0000
     16 H1        10.8081    7.5088    3.2440 H         1 RES1    0.0000
     17 H2        10.3230    7.9213    5.1851 H         1 RES1    0.0000
     18 H3         8.0471    6.8389    3.0444 H         1 RES1    0.0000
     19 H4         9.2043    5.4335    4.2019 H         1 RES1    0.0000
     20 H5        10.0521    6.2994    1.0766 H         1 RES1    0.0000
     21 H6        10.5916    8.5390    0.8296 H         1 RES1    0.0000
     22 H7         8.7566    9.4412    2.8166 H         1 RES1    0.0000
     23 H8        10.4409   10.4828    3.5312 H         1 RES1    0.0000
     24 H9         8.2976    4.6571    1.2221 H         1 RES1    0.0000
     25 H10        7.2594    5.7894    0.8919 H         1 RES1    0.0000
     26 H11       10.0657   10.6517    0.2196 H         1 RES1    0.0000
     27 H12        9.2111    9.7291   -0.7123 H         1 RES1    0.0000
     28 H13        7.4872   10.2119    0.7858 H         1 RES1    0.0000
@<TRIPOS>BOND
     1    1    2 1
     2    2   17 1
     3    3    1 1
     4    4    3 1
     5    5    3 1
     6    6    5 1
     7    7    6 1
     8    8    1 1
     9    9    8 1
    10   10    5 1
    11   11   10 1
    12   12   11 2
    13   13   11 2
    14   14    7 1
    15   15   14 1
    16   16    1 1
    17   18    3 1
    18   19    4 1
    19   20    5 1
    20   21    7 1
    21   22    8 1
    22   23    9 1
    23   24   10 1
    24   25   10 1
    25   26   14 1
    26   27   14 1
    27   28   15 1
    28    7    8 1
@<TRIPOS>SUBSTRUCTURE
     1 RES1 1

@<TRIPOS>CRYSIN
  11.3340   11.3340    7.4200  90.0000  90.0000  90.0000  78 1

