# MOL2 file generated by ConQuest
# Please check atom types

@<TRIPOS>MOLECULE
SEKLID
    46    49     1
SMALL
NO_CHARGES
****
Generated from CSD

@<TRIPOS>ATOM
      1 O1         1.8245    7.8088    3.8257 O.2       1 RES1    0.0000
      2 O2         3.2412   10.1809    0.0579 O.2       1 RES1    0.0000
      3 O3         6.9333   11.4359    3.8922 O.2       1 RES1    0.0000
      4 O4         3.8130   14.6735   -2.7567 O.3       1 RES1    0.0000
      5 N1         2.4192    8.6797    3.1145 N.pl3     1 RES1    0.0000
      6 N2         5.6089   11.9065    1.6932 N.3       1 RES1    0.0000
      7 C1         1.9091    9.0733    1.7645 C.3       1 RES1    0.0000
      8 C2         3.1034    9.8928    1.2214 C.2       1 RES1    0.0000
      9 C3         3.9689   10.1890    2.3544 C.2       1 RES1    0.0000
     10 C4         5.0866   10.9734    2.5166 C.2       1 RES1    0.0000
     11 C5         5.8835   10.7922    3.7666 C.2       1 RES1    0.0000
     12 C6         5.3896    9.8996    4.7845 C.2       1 RES1    0.0000
     13 C7         4.2487    9.2125    4.6516 C.2       1 RES1    0.0000
     14 C8         3.5374    9.3397    3.4338 C.2       1 RES1    0.0000
     15 C9         1.6109    7.8290    0.9465 C.3       1 RES1    0.0000
     16 C10        0.7325   10.0443    1.9010 C.ar      1 RES1    0.0000
     17 C11        0.0780   10.4284    0.7369 C.ar      1 RES1    0.0000
     18 C12       -0.9336   11.3669    0.8027 C.ar      1 RES1    0.0000
     19 C13       -1.3090   11.9201    2.0095 C.ar      1 RES1    0.0000
     20 C14       -0.6606   11.5306    3.1547 C.ar      1 RES1    0.0000
     21 C15        0.3668   10.5920    3.1005 C.ar      1 RES1    0.0000
     22 C16        5.0657   12.5679    0.5778 C.ar      1 RES1    0.0000
     23 C17        3.7303   12.9276    0.4888 C.ar      1 RES1    0.0000
     24 C18        3.2694   13.6403   -0.6235 C.ar      1 RES1    0.0000
     25 C19        4.1510   13.9838   -1.6279 C.ar      1 RES1    0.0000
     26 C20        5.4908   13.6444   -1.5262 C.ar      1 RES1    0.0000
     27 C21        5.9406   12.9384   -0.4346 C.ar      1 RES1    0.0000
     28 C22        2.4654   15.1063   -2.9335 C.3       1 RES1    0.0000
     29 H1         6.3786   12.2257    2.0357 H         1 RES1    0.0000
     30 H2         5.9290    9.8455    5.5829 H         1 RES1    0.0000
     31 H3         3.9871    8.6689    5.3818 H         1 RES1    0.0000
     32 H4         1.5072    8.0197    0.0427 H         1 RES1    0.0000
     33 H5         0.6529    7.4517    1.3043 H         1 RES1    0.0000
     34 H6         2.3314    7.1812    0.9508 H         1 RES1    0.0000
     35 H7         0.2934   10.0348   -0.1036 H         1 RES1    0.0000
     36 H8        -1.2936   11.7118   -0.0122 H         1 RES1    0.0000
     37 H9        -2.0660   12.5503    2.0723 H         1 RES1    0.0000
     38 H10       -0.9364   11.9282    4.0896 H         1 RES1    0.0000
     39 H11        0.8126   10.4135    3.8885 H         1 RES1    0.0000
     40 H12        3.1188   12.7126    1.2007 H         1 RES1    0.0000
     41 H13        2.3464   13.9027   -0.6582 H         1 RES1    0.0000
     42 H14        6.0983   13.8621   -2.2734 H         1 RES1    0.0000
     43 H15        6.9302   12.8208   -0.2621 H         1 RES1    0.0000
     44 H16        2.4284   15.5932   -3.8215 H         1 RES1    0.0000
     45 H17        1.9878   14.5383   -2.6574 H         1 RES1    0.0000
     46 H18        2.2621   15.6878   -2.0174 H         1 RES1    0.0000
@<TRIPOS>BOND
     1    1    5 1
     2    2    8 2
     3    3   11 2
     4    4   25 1
     5    5    7 1
     6    6   10 1
     7    7    8 1
     8    8    9 1
     9    9   10 2
    10   10   11 1
    11   11   12 1
    12   12   13 2
    13   13   14 1
    14   14    5 2
    15   15    7 1
    16   16    7 1
    17   17   16 ar
    18   18   17 ar
    19   19   18 ar
    20   20   19 ar
    21   21   16 ar
    22   22    6 1
    23   23   22 ar
    24   24   23 ar
    25   25   24 ar
    26   26   25 ar
    27   27   22 ar
    28   28    4 1
    29   29    6 1
    30   30   12 1
    31   31   13 1
    32   32   15 1
    33   33   15 1
    34   34   15 1
    35   35   17 1
    36   36   18 1
    37   37   19 1
    38   38   20 1
    39   39   21 1
    40   40   23 1
    41   41   24 1
    42   42   26 1
    43   43   27 1
    44   44   28 1
    45   45   28 1
    46   46   28 1
    47    9   14 1
    48   20   21 ar
    49   26   27 ar
@<TRIPOS>SUBSTRUCTURE
     1 RES1 1

@<TRIPOS>CRYSIN
  11.0840   13.5240    6.3040  90.0000 104.8000  90.0000   4 1

