# MOL2 file generated by ConQuest
# Please check atom types

@<TRIPOS>MOLECULE
SEKNAX
    63    65     1
SMALL
NO_CHARGES
****
Generated from CSD

@<TRIPOS>ATOM
      1 O1         1.6043   16.7774   -5.7085 O.2       1 RES1    0.0000
      2 O2         1.4127   18.2341   -4.1091 O.2       1 RES1    0.0000
      3 O3         0.7181   13.0051   -0.8860 O.3       1 RES1    0.0000
      4 O4         2.8388   12.6725   -0.3119 O.2       1 RES1    0.0000
      5 O5        -0.1477    6.0294    4.2312 O.3       1 RES1    0.0000
      6 O6         0.3579    7.0667    6.1732 O.2       1 RES1    0.0000
      7 O7        -1.6585    1.3313    8.0862 O.3       1 RES1    0.0000
      8 N1         1.4915   17.1231   -4.5639 N.pl3     1 RES1    0.0000
      9 C1         1.3769   15.9889   -3.5612 C.ar      1 RES1    0.0000
     10 C2         1.0790   16.3186   -2.2810 C.ar      1 RES1    0.0000
     11 C3         0.9228   15.2989   -1.3670 C.ar      1 RES1    0.0000
     12 C4         1.0537   14.0047   -1.7648 C.ar      1 RES1    0.0000
     13 C5         1.3700   13.6961   -3.0631 C.ar      1 RES1    0.0000
     14 C6         1.5255   14.7113   -3.9789 C.ar      1 RES1    0.0000
     15 C7         1.7122   12.3704   -0.2287 C.2       1 RES1    0.0000
     16 C8         1.0391   11.2797    0.5822 C.2       1 RES1    0.0000
     17 C9         1.7079   10.4878    1.2766 C.2       1 RES1    0.0000
     18 C10        1.1719    9.3266    2.0523 C.ar      1 RES1    0.0000
     19 C11        2.0537    8.5263    2.7295 C.ar      1 RES1    0.0000
     20 C12        1.6240    7.4408    3.4663 C.ar      1 RES1    0.0000
     21 C13        0.2895    7.1603    3.5043 C.ar      1 RES1    0.0000
     22 C14       -0.6166    7.9161    2.8434 C.ar      1 RES1    0.0000
     23 C15       -0.1772    9.0093    2.1201 C.ar      1 RES1    0.0000
     24 C16       -0.0594    6.1076    5.5900 C.2       1 RES1    0.0000
     25 C17       -0.5014    4.8242    6.2003 C.ar      1 RES1    0.0000
     26 C18       -0.3914    4.7383    7.6125 C.ar      1 RES1    0.0000
     27 C19       -0.7858    3.5742    8.2327 C.ar      1 RES1    0.0000
     28 C20       -1.2341    2.4946    7.5338 C.ar      1 RES1    0.0000
     29 C21       -1.3357    2.5717    6.1460 C.ar      1 RES1    0.0000
     30 C22       -0.9531    3.7322    5.5068 C.ar      1 RES1    0.0000
     31 C23       -1.5619    1.1149    9.4559 C.3       1 RES1    0.0000
     32 C24       -2.0180   -0.3869    9.6811 C.3       1 RES1    0.0000
     33 C25       -2.1331   -1.0122   11.0092 C.3       1 RES1    0.0000
     34 C26       -2.6146   -2.2630   10.3429 C.3       1 RES1    0.0000
     35 C27       -2.8622   -2.6592   11.7370 C.3       1 RES1    0.0000
     36 C28       -3.4317   -4.0496   11.9567 C.3       1 RES1    0.0000
     37 H1         0.9758   17.2370   -2.0216 H         1 RES1    0.0000
     38 H2         0.7155   15.4940   -0.4502 H         1 RES1    0.0000
     39 H3         1.4862   12.7807   -3.3280 H         1 RES1    0.0000
     40 H4         1.7278   14.5210   -4.8975 H         1 RES1    0.0000
     41 H5         0.0823   11.1947    0.5696 H         1 RES1    0.0000
     42 H6         2.6545   10.6437    1.3091 H         1 RES1    0.0000
     43 H7         2.9903    8.7362    2.6996 H         1 RES1    0.0000
     44 H8         2.2578    6.8849    3.9238 H         1 RES1    0.0000
     45 H9        -1.5490    7.6914    2.8741 H         1 RES1    0.0000
     46 H10       -0.8111    9.5569    1.6536 H         1 RES1    0.0000
     47 H11       -0.0455    5.4777    8.1179 H         1 RES1    0.0000
     48 H12       -0.7409    3.5254    9.1901 H         1 RES1    0.0000
     49 H13       -1.6575    1.8212    5.6397 H         1 RES1    0.0000
     50 H14       -1.0084    3.7787    4.5503 H         1 RES1    0.0000
     51 H15       -0.6687    1.2732    9.7715 H         1 RES1    0.0000
     52 H16       -2.1732    1.6917    9.9215 H         1 RES1    0.0000
     53 H17       -1.3448   -0.9314    9.2670 H         1 RES1    0.0000
     54 H18       -2.8602   -0.5294    9.2417 H         1 RES1    0.0000
     55 H19       -1.2973   -1.0222   11.4811 H         1 RES1    0.0000
     56 H20       -2.7706   -0.4857   11.4983 H         1 RES1    0.0000
     57 H21       -1.9646   -2.8261    9.9170 H         1 RES1    0.0000
     58 H22       -3.4259   -2.2685    9.8302 H         1 RES1    0.0000
     59 H23       -2.0063   -2.5684   12.1610 H         1 RES1    0.0000
     60 H24       -3.4614   -1.9915   12.0787 H         1 RES1    0.0000
     61 H25       -2.9763   -3.8233   12.7703 H         1 RES1    0.0000
     62 H26       -3.1022   -4.8899   11.6285 H         1 RES1    0.0000
     63 H27       -4.3739   -4.1194   12.1257 H         1 RES1    0.0000
@<TRIPOS>BOND
     1    1    8 2
     2    2    8 2
     3    3   12 1
     4    4   15 2
     5    5   21 1
     6    6   24 2
     7    7   28 1
     8    8    9 1
     9    9   10 ar
    10   10   11 ar
    11   11   12 ar
    12   12   13 ar
    13   13   14 ar
    14   14    9 ar
    15   15    3 1
    16   16   15 1
    17   17   16 2
    18   18   17 1
    19   19   18 ar
    20   20   19 ar
    21   21   20 ar
    22   22   21 ar
    23   23   18 ar
    24   24    5 1
    25   25   24 1
    26   26   25 ar
    27   27   26 ar
    28   28   27 ar
    29   29   28 ar
    30   30   25 ar
    31   31    7 1
    32   32   31 1
    33   33   32 1
    34   34   33 1
    35   35   34 1
    36   36   35 1
    37   37   10 1
    38   38   11 1
    39   39   13 1
    40   40   14 1
    41   41   16 1
    42   42   17 1
    43   43   19 1
    44   44   20 1
    45   45   22 1
    46   46   23 1
    47   47   26 1
    48   48   27 1
    49   49   29 1
    50   50   30 1
    51   51   31 1
    52   52   31 1
    53   53   32 1
    54   54   32 1
    55   55   33 1
    56   56   33 1
    57   57   34 1
    58   58   34 1
    59   59   35 1
    60   60   35 1
    61   61   36 1
    62   62   36 1
    63   63   36 1
    64   22   23 ar
    65   29   30 ar
@<TRIPOS>SUBSTRUCTURE
     1 RES1 1

@<TRIPOS>CRYSIN
  13.5700   10.8850    9.8050 105.3400 101.1700 106.8400   2 1

