# MOL2 file generated by ConQuest
# Please check atom types

@<TRIPOS>MOLECULE
SEKVAF
    40    42     1
SMALL
NO_CHARGES
****
Generated from CSD

@<TRIPOS>ATOM
      1 O1         2.1008    9.0960    0.7093 O.3       1 RES1    0.0000
      2 N1         1.6423    8.3874   -0.4187 N.2       1 RES1    0.0000
      3 C1         1.7537    7.1520   -0.1840 C.2       1 RES1    0.0000
      4 C2         2.3470    6.7665    1.1360 C.3       1 RES1    0.0000
      5 C3         2.4071    8.1812    1.7893 C.3       1 RES1    0.0000
      6 C4         3.7605    6.2471    0.9267 C.3       1 RES1    0.0000
      7 C5         1.5147    5.6641    1.8187 C.3       1 RES1    0.0000
      8 C6         1.3823    8.5293    2.9293 C.3       1 RES1    0.0000
      9 O2         0.0867    8.2552    2.5227 O.3       1 RES1    0.0000
     10 C7         1.7215    7.6872    4.1827 C.ar      1 RES1    0.0000
     11 C8         0.7085    6.9299    4.7694 C.ar      1 RES1    0.0000
     12 C9         0.9829    6.1494    5.8934 C.ar      1 RES1    0.0000
     13 C10        2.2705    6.1263    6.4294 C.ar      1 RES1    0.0000
     14 C11        3.2840    6.8846    5.8414 C.ar      1 RES1    0.0000
     15 C12        3.0094    7.6650    4.7187 C.ar      1 RES1    0.0000
     16 C13        1.5268   10.0303    3.3267 C.ar      1 RES1    0.0000
     17 C14        2.6599   10.7987    3.0573 C.ar      1 RES1    0.0000
     18 C15        2.6999   12.1387    3.4413 C.ar      1 RES1    0.0000
     19 C16        1.6080   12.7114    4.0934 C.ar      1 RES1    0.0000
     20 C17        0.4749   11.9430    4.3627 C.ar      1 RES1    0.0000
     21 C18        0.4351   10.6021    3.9787 C.ar      1 RES1    0.0000
     22 H1         1.4243    6.4106   -0.8973 H         1 RES1    0.0000
     23 H2         3.3747    8.2403    2.2653 H         1 RES1    0.0000
     24 H3         4.1942    5.9729    1.8773 H         1 RES1    0.0000
     25 H4         4.3635    7.0137    0.4640 H         1 RES1    0.0000
     26 H5         3.7237    5.3801    0.2840 H         1 RES1    0.0000
     27 H6         0.5095    6.0231    1.9813 H         1 RES1    0.0000
     28 H7         1.9632    5.4057    2.7667 H         1 RES1    0.0000
     29 H8         1.4861    4.7906    1.1840 H         1 RES1    0.0000
     30 H9        -0.1865    8.8409    1.7200 H         1 RES1    0.0000
     31 H10       -0.2888    6.9472    4.3547 H         1 RES1    0.0000
     32 H11        0.1982    5.5628    6.3480 H         1 RES1    0.0000
     33 H12        2.4830    5.5224    7.2987 H         1 RES1    0.0000
     34 H13        4.2806    6.8674    6.2560 H         1 RES1    0.0000
     35 H14        3.7936    8.2517    4.2640 H         1 RES1    0.0000
     36 H15        3.5056   10.3557    2.5533 H         1 RES1    0.0000
     37 H16        3.5772   12.7344    3.2320 H         1 RES1    0.0000
     38 H17        1.6388   13.7499    4.3894 H         1 RES1    0.0000
     39 H18       -0.3703   12.3860    4.8667 H         1 RES1    0.0000
     40 H19       -0.4425   10.0073    4.1880 H         1 RES1    0.0000
@<TRIPOS>BOND
     1    1    2 1
     2    2    3 2
     3    3    4 1
     4    4    5 1
     5    5    1 1
     6    6    4 1
     7    7    4 1
     8    8    5 1
     9    9    8 1
    10   10    8 1
    11   11   10 ar
    12   12   11 ar
    13   13   12 ar
    14   14   13 ar
    15   15   10 ar
    16   16    8 1
    17   17   16 ar
    18   18   17 ar
    19   19   18 ar
    20   20   19 ar
    21   21   16 ar
    22   22    3 1
    23   23    5 1
    24   24    6 1
    25   25    6 1
    26   26    6 1
    27   27    7 1
    28   28    7 1
    29   29    7 1
    30   30    9 1
    31   31   11 1
    32   32   12 1
    33   33   13 1
    34   34   14 1
    35   35   15 1
    36   36   17 1
    37   37   18 1
    38   38   19 1
    39   39   20 1
    40   40   21 1
    41   14   15 ar
    42   20   21 ar
@<TRIPOS>SUBSTRUCTURE
     1 RES1 1

@<TRIPOS>CRYSIN
   6.1280    9.5210   13.5140  94.9300  96.2300 106.4100   2 1

