# MOL2 file generated by ConQuest
# Please check atom types

@<TRIPOS>MOLECULE
SELGUN
    42    43     1
SMALL
NO_CHARGES
****
Generated from CSD

@<TRIPOS>ATOM
      1 O1         0.6461   -0.0083    9.4487 O.2       1 RES1    0.0000
      2 O2         0.8455    2.0854    8.9345 O.2       1 RES1    0.0000
      3 O3         4.1652    0.0960    3.9828 O.3       1 RES1    0.0000
      4 O4         2.4886    1.5167    4.4161 O.2       1 RES1    0.0000
      5 O5         5.4127    2.4391    5.5345 O.3       1 RES1    0.0000
      6 O6         6.2970    0.7735    6.7449 O.2       1 RES1    0.0000
      7 N1         1.1088    0.8983    8.7629 N.pl3     1 RES1    0.0000
      8 C1         1.9928    0.5464    7.6391 C.3       1 RES1    0.0000
      9 C2         3.0002    1.5907    7.1868 C.3       1 RES1    0.0000
     10 H1         2.5460    2.2840    6.6748 H         1 RES1    0.0000
     11 C3         3.9199    0.7548    6.2401 C.3       1 RES1    0.0000
     12 C4         3.8811   -0.7051    6.7793 C.3       1 RES1    0.0000
     13 H2         3.9380   -1.3477    6.0396 H         1 RES1    0.0000
     14 H3         4.6290   -0.8660    7.3939 H         1 RES1    0.0000
     15 C5         2.5567   -0.8436    7.5035 C.3       1 RES1    0.0000
     16 H4         2.4773   -1.4420    8.2056 H         1 RES1    0.0000
     17 C6         1.3470   -0.4673    6.7086 C.3       1 RES1    0.0000
     18 H5         0.4692   -0.8580    6.9831 H         1 RES1    0.0000
     19 H6         1.4594   -0.3342    5.7244 H         1 RES1    0.0000
     20 C7         3.7584    2.2300    8.3731 C.3       1 RES1    0.0000
     21 H7         4.5093    2.7516    8.0095 H         1 RES1    0.0000
     22 H8         3.1502    2.8640    8.8174 H         1 RES1    0.0000
     23 C8         4.3123    1.2810    9.4366 C.3       1 RES1    0.0000
     24 H9         3.5304    0.7295    9.8429 H         1 RES1    0.0000
     25 H10        4.9739    0.6151    8.9881 H         1 RES1    0.0000
     26 C9         5.0325    2.0241   10.5541 C.3       1 RES1    0.0000
     27 H11        5.8371    2.5188   10.1639 H         1 RES1    0.0000
     28 H12        4.4014    2.7195   10.9552 H         1 RES1    0.0000
     29 C10        5.5065    1.0878   11.6508 C.3       1 RES1    0.0000
     30 H13        4.7180    0.6693   12.0938 H         1 RES1    0.0000
     31 H14        6.0300    1.6026   12.3241 H         1 RES1    0.0000
     32 H15        6.0806    0.3763   11.2557 H         1 RES1    0.0000
     33 C11        3.4154    0.8556    4.7923 C.2       1 RES1    0.0000
     34 C12        3.7960    0.1606    2.5792 C.3       1 RES1    0.0000
     35 H16        2.8393   -0.0281    2.4841 H         1 RES1    0.0000
     36 H17        4.3109   -0.5017    2.0753 H         1 RES1    0.0000
     37 H18        3.9876    1.0557    2.2324 H         1 RES1    0.0000
     38 C13        5.3522    1.2904    6.2155 C.2       1 RES1    0.0000
     39 C14        6.7319    3.0476    5.4854 C.3       1 RES1    0.0000
     40 H19        7.0424    3.2303    6.3967 H         1 RES1    0.0000
     41 H20        6.6867    3.8876    4.9809 H         1 RES1    0.0000
     42 H21        7.3579    2.4355    5.0444 H         1 RES1    0.0000
@<TRIPOS>BOND
     1    1    7 2
     2    2    7 2
     3    3   33 1
     4    4   33 2
     5    5   38 1
     6    6   38 2
     7    7    8 1
     8    8    9 1
     9    9   10 1
    10   11    9 1
    11   12   11 1
    12   13   12 1
    13   14   12 1
    14   15    8 1
    15   16   15 1
    16   17    8 1
    17   18   17 1
    18   19   17 1
    19   20    9 1
    20   21   20 1
    21   22   20 1
    22   23   20 1
    23   24   23 1
    24   25   23 1
    25   26   23 1
    26   27   26 1
    27   28   26 1
    28   29   26 1
    29   30   29 1
    30   31   29 1
    31   32   29 1
    32   33   11 1
    33   34    3 1
    34   35   34 1
    35   36   34 1
    36   37   34 1
    37   38   11 1
    38   39    5 1
    39   40   39 1
    40   41   39 1
    41   42   39 1
    42   12   15 1
    43   15   17 1
@<TRIPOS>SUBSTRUCTURE
     1 RES1 1

@<TRIPOS>CRYSIN
   7.7170   10.0350    9.9920  90.0000 102.4510  90.0000   4 1

