# MOL2 file generated by ConQuest
# Please check atom types

@<TRIPOS>MOLECULE
SELGEX
    67    70     1
SMALL
NO_CHARGES
****
Generated from CSD

@<TRIPOS>ATOM
      1 O1         2.2685    7.9193    4.4708 O.3       1 RES1    0.0000
      2 O2         0.5064    7.4247    3.1483 O.2       1 RES1    0.0000
      3 O3        -0.9838    9.3051    4.5519 O.3       1 RES1    0.0000
      4 O4        -2.3662   10.3689    3.0960 O.3       1 RES1    0.0000
      5 O5        -1.4299   14.7831    1.4394 O.2       1 RES1    0.0000
      6 O6         0.7048   15.2001    0.9210 O.3       1 RES1    0.0000
      7 O7         2.1116   12.4574    0.5351 O.2       1 RES1    0.0000
      8 O8         2.4740   13.2133    2.5604 O.3       1 RES1    0.0000
      9 N1        -1.4144   10.6447    4.0892 N.3       1 RES1    0.0000
     10 C1         3.4804    7.5077    2.4094 C.3       1 RES1    0.0000
     11 C2         2.8384    5.6023    3.9315 C.3       1 RES1    0.0000
     12 C3         4.5101    7.2986    4.6460 C.3       1 RES1    0.0000
     13 C4         3.2714    7.0449    3.8242 C.3       1 RES1    0.0000
     14 C5         1.0336    8.0750    3.9974 C.2       1 RES1    0.0000
     15 C6         0.4250    9.2771    4.7039 C.3       1 RES1    0.0000
     16 C7         0.9692   10.5936    4.1106 C.3       1 RES1    0.0000
     17 C8        -0.2166   11.1836    3.3531 C.3       1 RES1    0.0000
     18 C9        -0.3977   10.7009    1.8803 C.3       1 RES1    0.0000
     19 C10       -1.6484    9.8437    1.9579 C.3       1 RES1    0.0000
     20 C11       -0.5661   11.9676    1.0533 C.3       1 RES1    0.0000
     21 C12        0.1961   13.0603    1.8413 C.3       1 RES1    0.0000
     22 C13       -0.2916   12.7391    3.2949 C.3       1 RES1    0.0000
     23 C14        0.2689   13.5168    4.5052 C.3       1 RES1    0.0000
     24 C15       -0.5545   13.1815    5.7564 C.3       1 RES1    0.0000
     25 C16       -0.0779   13.9314    6.9990 C.3       1 RES1    0.0000
     26 C17       -0.0735   15.4245    6.7790 C.3       1 RES1    0.0000
     27 C18        0.7425   15.7790    5.5584 C.3       1 RES1    0.0000
     28 C19        0.2682   15.0354    4.3066 C.3       1 RES1    0.0000
     29 C20       -0.2836   14.4389    1.3860 C.2       1 RES1    0.0000
     30 C21        0.3493   16.5538    0.5287 C.3       1 RES1    0.0000
     31 C22        1.6889   12.8709    1.5621 C.2       1 RES1    0.0000
     32 C23        3.8925   12.9864    2.3557 C.3       1 RES1    0.0000
     33 H1         2.6963    7.3148    1.8898 H         1 RES1    0.0000
     34 H2         4.2348    7.0497    2.0312 H         1 RES1    0.0000
     35 H3         3.6438    8.4535    2.4029 H         1 RES1    0.0000
     36 H4         2.6659    5.3867    4.8502 H         1 RES1    0.0000
     37 H5         3.5337    5.0329    3.5938 H         1 RES1    0.0000
     38 H6         2.0383    5.4688    3.4158 H         1 RES1    0.0000
     39 H7         4.7534    8.2247    4.5806 H         1 RES1    0.0000
     40 H8         5.2301    6.7556    4.3162 H         1 RES1    0.0000
     41 H9         4.3368    7.0771    5.5635 H         1 RES1    0.0000
     42 H10        0.6462    9.2371    5.6577 H         1 RES1    0.0000
     43 H11        1.2636   11.1935    4.8136 H         1 RES1    0.0000
     44 H12        1.7117   10.4215    3.5114 H         1 RES1    0.0000
     45 H13        0.3752   10.1780    1.5783 H         1 RES1    0.0000
     46 H14       -2.1763    9.9259    1.1478 H         1 RES1    0.0000
     47 H15       -1.4219    8.9096    2.0914 H         1 RES1    0.0000
     48 H16       -1.5044   12.1974    0.9645 H         1 RES1    0.0000
     49 H17       -0.1861   11.8533    0.1675 H         1 RES1    0.0000
     50 H18       -1.2502   12.9429    3.2876 H         1 RES1    0.0000
     51 H19        1.1923   13.2259    4.6565 H         1 RES1    0.0000
     52 H20       -1.4846   13.4022    5.5910 H         1 RES1    0.0000
     53 H21       -0.5010   12.2277    5.9234 H         1 RES1    0.0000
     54 H22       -0.6605   13.7193    7.7451 H         1 RES1    0.0000
     55 H23        0.8183   13.6384    7.2269 H         1 RES1    0.0000
     56 H24        0.2993   15.8660    7.5580 H         1 RES1    0.0000
     57 H25       -0.9844   15.7385    6.6628 H         1 RES1    0.0000
     58 H26        1.6731   15.5618    5.7244 H         1 RES1    0.0000
     59 H27        0.6837   16.7349    5.4025 H         1 RES1    0.0000
     60 H28        0.8484   15.2601    3.5624 H         1 RES1    0.0000
     61 H29       -0.6296   15.3280    4.0833 H         1 RES1    0.0000
     62 H30       -0.3933   16.5253   -0.0798 H         1 RES1    0.0000
     63 H31        1.0996   16.9700    0.0982 H         1 RES1    0.0000
     64 H32        0.1057   17.0596    1.3074 H         1 RES1    0.0000
     65 H33        4.0571   12.0440    2.2733 H         1 RES1    0.0000
     66 H34        4.3835   13.3324    3.1057 H         1 RES1    0.0000
     67 H35        4.1760   13.4324    1.5548 H         1 RES1    0.0000
@<TRIPOS>BOND
     1    1   13 1
     2    2   14 2
     3    3    9 1
     4    4    9 1
     5    5   29 2
     6    6   29 1
     7    7   31 2
     8    8   31 1
     9    9   17 1
    10   10   13 1
    11   11   13 1
    12   12   13 1
    13   14    1 1
    14   15    3 1
    15   16   15 1
    16   17   16 1
    17   18   17 1
    18   19    4 1
    19   20   18 1
    20   21   20 1
    21   22   17 1
    22   23   22 1
    23   24   23 1
    24   25   24 1
    25   26   25 1
    26   27   26 1
    27   28   23 1
    28   29   21 1
    29   30    6 1
    30   31   21 1
    31   32    8 1
    32   33   10 1
    33   34   10 1
    34   35   10 1
    35   36   11 1
    36   37   11 1
    37   38   11 1
    38   39   12 1
    39   40   12 1
    40   41   12 1
    41   42   15 1
    42   43   16 1
    43   44   16 1
    44   45   18 1
    45   46   19 1
    46   47   19 1
    47   48   20 1
    48   49   20 1
    49   50   22 1
    50   51   23 1
    51   52   24 1
    52   53   24 1
    53   54   25 1
    54   55   25 1
    55   56   26 1
    56   57   26 1
    57   58   27 1
    58   59   27 1
    59   60   28 1
    60   61   28 1
    61   62   30 1
    62   63   30 1
    63   64   30 1
    64   65   32 1
    65   66   32 1
    66   67   32 1
    67   14   15 1
    68   18   19 1
    69   21   22 1
    70   27   28 1
@<TRIPOS>SUBSTRUCTURE
     1 RES1 1

@<TRIPOS>CRYSIN
   8.3584   10.8267   14.0001  69.2640  85.6750  82.2170   2 1

