# MOL2 file generated by ConQuest
# Please check atom types

@<TRIPOS>MOLECULE
SELGIB01
    51    53     1
SMALL
NO_CHARGES
****
Generated from CSD

@<TRIPOS>ATOM
      1 C1         3.3212    9.4651    1.9089 C.3       1 RES1    0.0000
      2 C2         4.4114    8.8637    2.7888 C.3       1 RES1    0.0000
      3 H1         5.2627    9.3099    2.6575 H         1 RES1    0.0000
      4 H2         4.1710    8.8973    3.7286 H         1 RES1    0.0000
      5 C3         4.4466    7.4423    2.2777 C.3       1 RES1    0.0000
      6 H3         3.7096    6.9217    2.6592 H         1 RES1    0.0000
      7 O1         4.2816    7.5828    0.8462 O.3       1 RES1    0.0000
      8 N1         3.5595    8.8275    0.5583 N.3       1 RES1    0.0000
      9 O2         2.2742    8.4411    0.0994 O.3       1 RES1    0.0000
     10 C4         1.4904    8.0310    1.2429 C.3       1 RES1    0.0000
     11 H4         0.5405    8.0861    1.0525 H         1 RES1    0.0000
     12 H5         1.7081    7.1224    1.5073 H         1 RES1    0.0000
     13 C5         1.8845    9.0199    2.3207 C.3       1 RES1    0.0000
     14 H6         1.8873    8.5949    3.2048 H         1 RES1    0.0000
     15 C6         1.0652   10.3051    2.3341 C.3       1 RES1    0.0000
     16 H7         0.3758   10.2652    3.0153 H         1 RES1    0.0000
     17 H8         0.6450   10.4518    1.4719 H         1 RES1    0.0000
     18 C7         2.0796   11.4317    2.6474 C.3       1 RES1    0.0000
     19 C8         3.2716   11.0040    1.7397 C.3       1 RES1    0.0000
     20 H9         2.9600   11.1527    0.8227 H         1 RES1    0.0000
     21 C9         5.7639    6.7255    2.4773 C.2       1 RES1    0.0000
     22 O3         6.7277    7.1780    3.0229 O.2       1 RES1    0.0000
     23 O4         5.6919    5.5051    1.9586 O.3       1 RES1    0.0000
     24 C10        6.9113    4.7228    1.9628 C.3       1 RES1    0.0000
     25 H10        7.2734    4.6974    2.8511 H         1 RES1    0.0000
     26 H11        7.5506    5.1213    1.3683 H         1 RES1    0.0000
     27 H12        6.7182    3.8269    1.6714 H         1 RES1    0.0000
     28 C11        2.4687   11.4565    4.1369 C.2       1 RES1    0.0000
     29 O5         1.4620   11.1210    4.9268 O.3       1 RES1    0.0000
     30 O6         3.5424   11.7242    4.5605 O.2       1 RES1    0.0000
     31 C12        1.7740   11.1284    6.3507 C.3       1 RES1    0.0000
     32 H13        2.2040   11.9554    6.5797 H         1 RES1    0.0000
     33 H14        2.3599   10.3952    6.5527 H         1 RES1    0.0000
     34 H15        0.9621   11.0396    6.8559 H         1 RES1    0.0000
     35 C13        1.4812   12.7592    2.1851 C.2       1 RES1    0.0000
     36 O7         1.2234   12.9887    1.0424 O.2       1 RES1    0.0000
     37 O8         1.2390   13.5935    3.1896 O.3       1 RES1    0.0000
     38 C14        0.6840   14.8840    2.8183 C.3       1 RES1    0.0000
     39 H16       -0.0169   14.7591    2.1758 H         1 RES1    0.0000
     40 H17        1.3734   15.4318    2.4360 H         1 RES1    0.0000
     41 H18        0.3297   15.3159    3.5980 H         1 RES1    0.0000
     42 C15        4.6261   11.7491    1.8323 C.3       1 RES1    0.0000
     43 H19        5.0752   11.4636    2.6558 H         1 RES1    0.0000
     44 C16        5.5126   11.3579    0.6467 C.3       1 RES1    0.0000
     45 H20        5.1012   11.6501   -0.1701 H         1 RES1    0.0000
     46 H21        6.3722   11.7773    0.7393 H         1 RES1    0.0000
     47 H22        5.6222   10.4065    0.6298 H         1 RES1    0.0000
     48 C17        4.4701   13.2727    1.8761 C.3       1 RES1    0.0000
     49 H23        3.9731   13.5664    1.1098 H         1 RES1    0.0000
     50 H24        5.3377   13.6851    1.8719 H         1 RES1    0.0000
     51 H25        4.0019   13.5240    2.6760 H         1 RES1    0.0000
@<TRIPOS>BOND
     1    1    2 1
     2    2    3 1
     3    4    2 1
     4    5    2 1
     5    6    5 1
     6    7    5 1
     7    8    1 1
     8    9    8 1
     9   10    9 1
    10   11   10 1
    11   12   10 1
    12   13    1 1
    13   14   13 1
    14   15   13 1
    15   16   15 1
    16   17   15 1
    17   18   15 1
    18   19    1 1
    19   20   19 1
    20   21    5 1
    21   22   21 2
    22   23   21 1
    23   24   23 1
    24   25   24 1
    25   26   24 1
    26   27   24 1
    27   28   18 1
    28   29   28 1
    29   30   28 2
    30   31   29 1
    31   32   31 1
    32   33   31 1
    33   34   31 1
    34   35   18 1
    35   36   35 2
    36   37   35 1
    37   38   37 1
    38   39   38 1
    39   40   38 1
    40   41   38 1
    41   42   19 1
    42   43   42 1
    43   44   42 1
    44   45   44 1
    45   46   44 1
    46   47   44 1
    47   48   42 1
    48   49   48 1
    49   50   48 1
    50   51   48 1
    51    7    8 1
    52   10   13 1
    53   18   19 1
@<TRIPOS>SUBSTRUCTURE
     1 RES1 1

@<TRIPOS>CRYSIN
   7.8196   28.2633    8.4619  90.0000  95.6773  90.0000  14 1

