# MOL2 file generated by ConQuest
# Please check atom types

@<TRIPOS>MOLECULE
SELHEY
    67    70     1
SMALL
NO_CHARGES
****
Generated from CSD

@<TRIPOS>ATOM
      1 O1         2.7872    7.3402   12.4080 O.2       1 RES1    0.0000
      2 O2         0.9756    6.9058   11.1815 O.3       1 RES1    0.0000
      3 O3         2.7700    4.5100   12.7320 O.3       1 RES1    0.0000
      4 O4         2.9046    2.4915   13.8106 O.3       1 RES1    0.0000
      5 O5         0.5111    3.1984   19.3942 O.2       1 RES1    0.0000
      6 O6         2.3115    2.2709   18.4628 O.3       1 RES1    0.0000
      7 O7        -0.2368    5.6534   17.3158 O.2       1 RES1    0.0000
      8 O8        -1.4280    3.8073   17.0991 O.3       1 RES1    0.0000
      9 N1         2.9835    3.8834   14.0368 N.3       1 RES1    0.0000
     10 C1         0.6143    9.2553   11.4673 C.3       1 RES1    0.0000
     11 C2         2.2245    8.5385    9.7996 C.3       1 RES1    0.0000
     12 C3        -0.1295    7.9774    9.4337 C.3       1 RES1    0.0000
     13 C4         0.9027    8.2323   10.5048 C.3       1 RES1    0.0000
     14 C5         1.8713    6.6251   12.0824 C.2       1 RES1    0.0000
     15 C6         1.5656    5.3012   12.7562 C.3       1 RES1    0.0000
     16 C7         1.2448    5.4941   14.2144 C.3       1 RES1    0.0000
     17 C8         1.7650    4.2108   14.8571 C.3       1 RES1    0.0000
     18 C9         0.8025    3.0019   14.6747 C.3       1 RES1    0.0000
     19 C10        1.5140    2.1559   13.6600 C.3       1 RES1    0.0000
     20 C11        0.6943    2.3860   16.0701 C.3       1 RES1    0.0000
     21 C12        0.9291    3.5489   17.0464 C.3       1 RES1    0.0000
     22 C13        2.1506    4.2445   16.3509 C.3       1 RES1    0.0000
     23 C14        2.6839    5.5773   16.9125 C.3       1 RES1    0.0000
     24 C15        3.9935    5.9561   16.2080 C.3       1 RES1    0.0000
     25 C16        4.5056    7.3101   16.7065 C.3       1 RES1    0.0000
     26 C17        4.7100    7.3207   18.1913 C.3       1 RES1    0.0000
     27 C18        3.4126    6.9172   18.9071 C.3       1 RES1    0.0000
     28 C19        2.8954    5.5702   18.4087 C.3       1 RES1    0.0000
     29 C20       -0.2834    4.4728   17.1699 C.2       1 RES1    0.0000
     30 C21       -2.6202    4.6002   17.2606 C.3       1 RES1    0.0000
     31 C22        1.2053    3.0196   18.4328 C.2       1 RES1    0.0000
     32 C23        2.6687    1.7116   19.7291 C.3       1 RES1    0.0000
     33 H1         1.3804    9.3898   12.0321 H         1 RES1    0.0000
     34 H2        -0.1356    8.9881   12.0055 H         1 RES1    0.0000
     35 H3         0.4058   10.0748   11.0113 H         1 RES1    0.0000
     36 H4         2.8671    8.8429   10.4439 H         1 RES1    0.0000
     37 H5         2.0838    9.2217    9.1420 H         1 RES1    0.0000
     38 H6         2.5503    7.7438    9.3727 H         1 RES1    0.0000
     39 H7        -0.1640    8.7279    8.8371 H         1 RES1    0.0000
     40 H8        -0.9898    7.8535    9.8420 H         1 RES1    0.0000
     41 H9         0.1083    7.1880    8.9405 H         1 RES1    0.0000
     42 H10        0.8339    4.8374   12.2972 H         1 RES1    0.0000
     43 H11        0.2894    5.5932   14.3520 H         1 RES1    0.0000
     44 H12        1.6982    6.2729   14.5721 H         1 RES1    0.0000
     45 H13       -0.0739    3.2904   14.3441 H         1 RES1    0.0000
     46 H14        1.3673    1.2142   13.8350 H         1 RES1    0.0000
     47 H15        1.2053    2.3612   12.7638 H         1 RES1    0.0000
     48 H16        1.3642    1.6939   16.1921 H         1 RES1    0.0000
     49 H17       -0.1842    1.9966   16.2054 H         1 RES1    0.0000
     50 H18        2.8934    3.6108   16.4387 H         1 RES1    0.0000
     51 H19        2.0241    6.2729   16.7091 H         1 RES1    0.0000
     52 H20        4.6625    5.2746   16.3803 H         1 RES1    0.0000
     53 H21        3.8458    5.9968   15.2509 H         1 RES1    0.0000
     54 H22        5.3456    7.5154   16.2663 H         1 RES1    0.0000
     55 H23        3.8670    8.0004   16.4652 H         1 RES1    0.0000
     56 H24        4.9772    8.2093   18.4776 H         1 RES1    0.0000
     57 H25        5.4175    6.7012   18.4272 H         1 RES1    0.0000
     58 H26        3.5745    6.8658   19.8616 H         1 RES1    0.0000
     59 H27        2.7366    7.5968   18.7560 H         1 RES1    0.0000
     60 H28        3.5340    4.8764   18.6393 H         1 RES1    0.0000
     61 H29        2.0575    5.3649   18.8488 H         1 RES1    0.0000
     62 H30       -2.6262    5.3047   16.6057 H         1 RES1    0.0000
     63 H31       -2.6354    4.9808   18.1409 H         1 RES1    0.0000
     64 H32       -3.3934    4.0445   17.1360 H         1 RES1    0.0000
     65 H33        2.0038    1.0726   19.9942 H         1 RES1    0.0000
     66 H34        2.7214    2.4107   20.3840 H         1 RES1    0.0000
     67 H35        3.5209    1.2762   19.6575 H         1 RES1    0.0000
@<TRIPOS>BOND
     1    1   14 2
     2    2   13 1
     3    3    9 1
     4    4    9 1
     5    5   31 2
     6    6   31 1
     7    7   29 2
     8    8   29 1
     9    9   17 1
    10   10   13 1
    11   11   13 1
    12   12   13 1
    13   14    2 1
    14   15    3 1
    15   16   15 1
    16   17   16 1
    17   18   17 1
    18   19    4 1
    19   20   18 1
    20   21   20 1
    21   22   17 1
    22   23   22 1
    23   24   23 1
    24   25   24 1
    25   26   25 1
    26   27   26 1
    27   28   23 1
    28   29   21 1
    29   30    8 1
    30   31   21 1
    31   32    6 1
    32   33   10 1
    33   34   10 1
    34   35   10 1
    35   36   11 1
    36   37   11 1
    37   38   11 1
    38   39   12 1
    39   40   12 1
    40   41   12 1
    41   42   15 1
    42   43   16 1
    43   44   16 1
    44   45   18 1
    45   46   19 1
    46   47   19 1
    47   48   20 1
    48   49   20 1
    49   50   22 1
    50   51   23 1
    51   52   24 1
    52   53   24 1
    53   54   25 1
    54   55   25 1
    55   56   26 1
    56   57   26 1
    57   58   27 1
    58   59   27 1
    59   60   28 1
    60   61   28 1
    61   62   30 1
    62   63   30 1
    63   64   30 1
    64   65   32 1
    65   66   32 1
    66   67   32 1
    67   14   15 1
    68   18   19 1
    69   21   22 1
    70   27   28 1
@<TRIPOS>SUBSTRUCTURE
     1 RES1 1

@<TRIPOS>CRYSIN
  10.1204   17.7000   26.5140  90.0000  90.0000  90.0000  61 1

