# MOL2 file generated by ConQuest
# Please check atom types

@<TRIPOS>MOLECULE
SELXIS
    30    32     1
SMALL
NO_CHARGES
****
Generated from CSD

@<TRIPOS>ATOM
      1 O1         6.2554    1.5203    2.3971 O.3       1 RES1    0.0000
      2 N1         5.6236    2.1462    1.2111 N.3       1 RES1    0.0000
      3 N2         9.0861    3.2943    1.8208 N.1       1 RES1    0.0000
      4 C1         4.7570    3.1757    1.8573 C.3       1 RES1    0.0000
      5 C2         3.4934    2.5943    2.4996 C.3       1 RES1    0.0000
      6 H1         3.7446    2.1202    3.3319 H         1 RES1    0.0000
      7 H2         2.8876    3.3372    2.7463 H         1 RES1    0.0000
      8 C3         2.7514    1.6334    1.5915 C.3       1 RES1    0.0000
      9 H3         2.4259    2.1121    0.7884 H         1 RES1    0.0000
     10 H4         1.9699    1.2562    2.0675 H         1 RES1    0.0000
     11 C4         3.7040    0.5087    1.1776 C.3       1 RES1    0.0000
     12 H5         3.9861    0.0000    1.9779 H         1 RES1    0.0000
     13 H6         3.2383   -0.1130    0.5646 H         1 RES1    0.0000
     14 C5         4.9184    1.0855    0.4888 C.3       1 RES1    0.0000
     15 H7         5.5569    0.3484    0.3179 H         1 RES1    0.0000
     16 H8         4.6363    1.4431   -0.3901 H         1 RES1    0.0000
     17 C6         4.5397    4.2912    0.8204 C.3       1 RES1    0.0000
     18 H9         4.3986    3.9117   -0.0831 H         1 RES1    0.0000
     19 H10        3.7581    4.8495    1.0598 H         1 RES1    0.0000
     20 C7         5.8304    5.1090    0.8725 C.3       1 RES1    0.0000
     21 H11        6.5540    4.6672    0.3618 H         1 RES1    0.0000
     22 H12        5.6903    6.0215    0.5134 H         1 RES1    0.0000
     23 C8         6.1550    5.1482    2.3662 C.3       1 RES1    0.0000
     24 H13        5.6487    5.8704    2.8166 H         1 RES1    0.0000
     25 H14        7.1230    5.2971    2.5115 H         1 RES1    0.0000
     26 C9         5.7299    3.7732    2.8961 C.3       1 RES1    0.0000
     27 H15        5.2652    3.8782    3.7759 H         1 RES1    0.0000
     28 C10        6.8216    2.6728    3.0057 C.3       1 RES1    0.0000
     29 H16        7.0080    2.4824    3.9705 H         1 RES1    0.0000
     30 C11        8.0910    3.0315    2.3169 C.1       1 RES1    0.0000
@<TRIPOS>BOND
     1    1    2 1
     2    2    4 1
     3    3   30 3
     4    4    5 1
     5    5    6 1
     6    7    5 1
     7    8    5 1
     8    9    8 1
     9   10    8 1
    10   11    8 1
    11   12   11 1
    12   13   11 1
    13   14    2 1
    14   15   14 1
    15   16   14 1
    16   17    4 1
    17   18   17 1
    18   19   17 1
    19   20   17 1
    20   21   20 1
    21   22   20 1
    22   23   20 1
    23   24   23 1
    24   25   23 1
    25   26    4 1
    26   27   26 1
    27   28    1 1
    28   29   28 1
    29   30   28 1
    30   11   14 1
    31   23   26 1
    32   26   28 1
@<TRIPOS>SUBSTRUCTURE
     1 RES1 1

@<TRIPOS>CRYSIN
   9.6609   11.5354    9.1360  90.0000  90.0000  90.0000  29 1

