# MOL2 file generated by ConQuest
# Please check atom types

@<TRIPOS>MOLECULE
SEMLEE
    23    24     1
SMALL
NO_CHARGES
****
Generated from CSD

@<TRIPOS>ATOM
      1 N1         4.7127    9.5489    7.5901 N.2       1 RES1    0.0000
      2 C1         4.8456    9.9678    8.8418 C.2       1 RES1    0.0000
      3 H1         4.1869    9.8856    9.4935 H         1 RES1    0.0000
      4 C2         6.0799   10.5393    9.0571 C.2       1 RES1    0.0000
      5 H2         6.4043   10.9065    9.8468 H         1 RES1    0.0000
      6 C3         6.7177   10.4499    7.8650 C.2       1 RES1    0.0000
      7 H3         7.5782   10.7529    7.6813 H         1 RES1    0.0000
      8 N2         5.8901    9.8484    6.9954 N.pl3     1 RES1    0.0000
      9 C4         6.0861    9.6069    5.5880 C.3       1 RES1    0.0000
     10 H4         5.5477    8.8465    5.3187 H         1 RES1    0.0000
     11 H5         7.0167    9.3817    5.4317 H         1 RES1    0.0000
     12 C5         5.7180   10.7971    4.7384 C.3       1 RES1    0.0000
     13 H6         6.2077   11.5739    5.0493 H         1 RES1    0.0000
     14 H7         5.9818   10.6273    3.8207 H         1 RES1    0.0000
     15 N3         4.2849   11.0833    4.7805 N.pl3     1 RES1    0.0000
     16 N4         3.7390   11.9550    5.6495 N.2       1 RES1    0.0000
     17 N5         2.4548   11.9134    5.4367 N.2       1 RES1    0.0000
     18 N6         2.1424   11.0304    4.4433 N.2       1 RES1    0.0000
     19 C6         3.2980   10.5280    4.0667 C.2       1 RES1    0.0000
     20 N7         3.6369    9.5895    3.0918 N.2       1 RES1    0.0000
     21 N8         2.6411    8.9846    2.6380 N.2       1 RES1    0.0000
     22 O1         3.0409    8.1181    1.6992 O.3       1 RES1    0.0000
     23 H8         2.3012    7.7925    1.4298 H         1 RES1    0.0000
@<TRIPOS>BOND
     1    1    2 2
     2    2    3 1
     3    4    2 1
     4    5    4 1
     5    6    4 2
     6    7    6 1
     7    8    1 1
     8    9    8 1
     9   10    9 1
    10   11    9 1
    11   12    9 1
    12   13   12 1
    13   14   12 1
    14   15   12 1
    15   16   15 1
    16   17   16 2
    17   18   17 1
    18   19   15 1
    19   20   19 1
    20   21   20 2
    21   22   21 1
    22   23   22 1
    23    6    8 1
    24   18   19 2
@<TRIPOS>SUBSTRUCTURE
     1 RES1 1

@<TRIPOS>CRYSIN
   6.7935   16.5200    8.3969  90.0000  98.1040  90.0000  14 1

