# MOL2 file generated by ConQuest
# Please check atom types

@<TRIPOS>MOLECULE
SEMTAF02
    20    20     1
SMALL
NO_CHARGES
****
Generated from CSD

@<TRIPOS>ATOM
      1 O1         0.5557    4.0939    0.7753 O.3       1 RES1    0.0000
      2 O2         4.4871   -1.0477    6.0349 O.2       1 RES1    0.0000
      3 O3         6.1594   -0.8482    4.6769 O.2       1 RES1    0.0000
      4 O4         1.2593    1.9842    0.9250 O.2       1 RES1    0.0000
      5 N1         5.0445   -0.5246    5.0767 N.pl3     1 RES1    0.0000
      6 C1         4.3487    0.5573    4.3624 C.ar      1 RES1    0.0000
      7 C2         3.0335    2.5665    3.0130 C.ar      1 RES1    0.0000
      8 C3         2.4841    2.0153    4.1596 C.ar      1 RES1    0.0000
      9 H1         1.6504    2.3384    4.4819 H         1 RES1    0.0000
     10 C4         1.3295    3.1585    1.2592 C.2       1 RES1    0.0000
     11 C5         3.1318    1.0028    4.8410 C.ar      1 RES1    0.0000
     12 H2         2.7481    0.6216    5.6214 H         1 RES1    0.0000
     13 C6         4.9231    1.0880    3.2346 C.ar      1 RES1    0.0000
     14 H3         5.7623    0.7711    2.9246 H         1 RES1    0.0000
     15 C7         4.2539    2.0944    2.5597 C.ar      1 RES1    0.0000
     16 H4         4.6374    2.4665    1.7750 H         1 RES1    0.0000
     17 C8         2.3169    3.6622    2.2683 C.3       1 RES1    0.0000
     18 H5         1.8420    4.2348    2.9221 H         1 RES1    0.0000
     19 H6         2.9866    4.2256    1.8054 H         1 RES1    0.0000
     20 H7        -0.0623    3.7816    0.0684 H         1 RES1    0.0000
@<TRIPOS>BOND
     1    1   10 1
     2    2    5 2
     3    3    5 2
     4    4   10 2
     5    5    6 1
     6    6   11 ar
     7    7    8 ar
     8    8    9 1
     9   10   17 1
    10   11    8 ar
    11   12   11 1
    12   13    6 ar
    13   14   13 1
    14   15    7 ar
    15   16   15 1
    16   17    7 1
    17   18   17 1
    18   19   17 1
    19   20    1 1
    20   13   15 ar
@<TRIPOS>SUBSTRUCTURE
     1 RES1 1

@<TRIPOS>CRYSIN
   6.1364    5.1034   25.4580  90.0000  95.9370  90.0000  14 1

