# MOL2 file generated by ConQuest
# Please check atom types

@<TRIPOS>MOLECULE
SEMTAG
    34    37     1
SMALL
NO_CHARGES
****
Generated from CSD

@<TRIPOS>ATOM
      1 N1         1.7757    2.2450    7.0181 N.pl3     1 RES1    0.0000
      2 O1         1.8358    3.2245    7.7450 O.2       1 RES1    0.0000
      3 O2         1.2434    1.1882    7.3310 O.2       1 RES1    0.0000
      4 N2         4.3400    3.5106    6.5001 N.pl3     1 RES1    0.0000
      5 C1         4.7727    4.8324    6.6417 C.ar      1 RES1    0.0000
      6 C2         4.4627    5.9456    5.8636 C.ar      1 RES1    0.0000
      7 H1         3.8498    5.8764    5.0989 H         1 RES1    0.0000
      8 C3         5.0512    7.1451    6.2259 C.ar      1 RES1    0.0000
      9 H2         4.8274    7.9622    5.6978 H         1 RES1    0.0000
     10 C4         5.9089    7.2383    7.3238 C.ar      1 RES1    0.0000
     11 H3         6.3266    8.1064    7.5289 H         1 RES1    0.0000
     12 C5         6.2013    6.1385    8.0916 C.ar      1 RES1    0.0000
     13 H4         6.7996    6.2111    8.8650 H         1 RES1    0.0000
     14 C6         5.6260    4.9058    7.7551 C.ar      1 RES1    0.0000
     15 C7         5.7227    3.5732    8.3083 C.ar      1 RES1    0.0000
     16 C8         6.4418    3.0069    9.3645 C.ar      1 RES1    0.0000
     17 H5         6.9601    3.6103    9.9031 H         1 RES1    0.0000
     18 C9         6.3435    1.6527    9.5997 C.ar      1 RES1    0.0000
     19 H6         6.8153    1.2463   10.3582 H         1 RES1    0.0000
     20 C10        5.5437    0.8390    8.7875 C.ar      1 RES1    0.0000
     21 H7         5.4766   -0.1107    8.9616 H         1 RES1    0.0000
     22 C11        4.8137    1.3663    7.7289 C.ar      1 RES1    0.0000
     23 H8         4.2669    0.7622    7.1863 H         1 RES1    0.0000
     24 C12        4.9164    2.7376    7.5076 C.ar      1 RES1    0.0000
     25 C13        3.5444    3.0062    5.4394 C.ar      1 RES1    0.0000
     26 C14        2.3429    2.3428    5.6619 C.ar      1 RES1    0.0000
     27 C15        1.6274    1.7554    4.6357 C.ar      1 RES1    0.0000
     28 H9         0.7596    1.3030    4.8136 H         1 RES1    0.0000
     29 C16        2.0885    1.8793    3.3424 C.ar      1 RES1    0.0000
     30 H10        1.6211    1.4884    2.6249 H         1 RES1    0.0000
     31 C17        3.2734    2.5506    3.0918 C.ar      1 RES1    0.0000
     32 H11        3.6348    2.6678    2.1769 H         1 RES1    0.0000
     33 C18        4.0049    3.0945    4.1327 C.ar      1 RES1    0.0000
     34 H12        4.8546    3.5665    3.9798 H         1 RES1    0.0000
@<TRIPOS>BOND
     1    1    2 2
     2    3    1 2
     3    4    5 1
     4    5    6 ar
     5    6    7 1
     6    8    6 ar
     7    9    8 1
     8   10    8 ar
     9   11   10 1
    10   12   10 ar
    11   13   12 1
    12   14    5 ar
    13   15   14 1
    14   16   15 ar
    15   17   16 1
    16   18   16 ar
    17   19   18 1
    18   20   18 ar
    19   21   20 1
    20   22   20 ar
    21   23   22 1
    22   24    4 1
    23   25    4 1
    24   26    1 1
    25   27   26 ar
    26   28   27 1
    27   29   27 ar
    28   30   29 1
    29   31   29 ar
    30   32   31 1
    31   33   25 ar
    32   34   33 1
    33   12   14 ar
    34   15   24 ar
    35   22   24 ar
    36   25   26 ar
    37   31   33 ar
@<TRIPOS>SUBSTRUCTURE
     1 RES1 1

@<TRIPOS>CRYSIN
  14.3330   25.7510    7.8590  90.0000  90.0000  90.0000  45 1

