# MOL2 file generated by ConQuest
# Please check atom types

@<TRIPOS>MOLECULE
SEMWOX
    55    58     1
SMALL
NO_CHARGES
****
Generated from CSD

@<TRIPOS>ATOM
      1 O1         0.6959    4.1297    4.1922 O.3       1 RES1    0.0000
      2 C1         1.7067    3.2895    4.8903 C.3       1 RES1    0.0000
      3 C2         2.8519    4.2656    5.2165 C.3       1 RES1    0.0000
      4 H1         3.6461    3.7880    5.5641 H         1 RES1    0.0000
      5 H2         3.1110    4.7977    4.4224 H         1 RES1    0.0000
      6 C3         2.2083    5.1462    6.2967 C.3       1 RES1    0.0000
      7 H3         2.1739    6.0913    6.0052 H         1 RES1    0.0000
      8 H4         2.7178    5.0910    7.1442 H         1 RES1    0.0000
      9 C4         0.7913    4.5771    6.4731 C.3       1 RES1    0.0000
     10 O2        -0.7215    5.7287    4.8809 O.2       1 RES1    0.0000
     11 C5         0.1219    4.9168    5.1429 C.2       1 RES1    0.0000
     12 C6         0.9989    3.0736    6.2512 C.3       1 RES1    0.0000
     13 O3         2.7687    1.2297    4.5387 O.2       1 RES1    0.0000
     14 C7         2.1024    2.1304    4.0855 C.2       1 RES1    0.0000
     15 O4         1.7301    2.1923    2.7957 O.3       1 RES1    0.0000
     16 C8         2.3005    1.1618    1.9184 C.3       1 RES1    0.0000
     17 H5         3.2395    0.9445    2.1858 H         1 RES1    0.0000
     18 C9         2.2538    1.7309    0.4906 C.3       1 RES1    0.0000
     19 H6         1.7259    2.5670    0.4545 H         1 RES1    0.0000
     20 H7         3.1646    1.9064    0.1444 H         1 RES1    0.0000
     21 C10        1.5808    0.6290   -0.2834 C.3       1 RES1    0.0000
     22 H8         1.0613    1.0144   -1.0468 H         1 RES1    0.0000
     23 O5         0.7113   -0.0074    0.6216 O.3       1 RES1    0.0000
     24 C11        1.4516   -0.0807    1.8743 C.3       1 RES1    0.0000
     25 H9         2.0202   -0.8913    1.8957 H         1 RES1    0.0000
     26 H10        0.8311   -0.1070    2.6457 H         1 RES1    0.0000
     27 O6         2.5769   -0.2307   -0.7660 O.3       1 RES1    0.0000
     28 C12        2.0501   -1.2970   -1.5802 C.3       1 RES1    0.0000
     29 H11        1.7397   -0.9283   -2.4451 H         1 RES1    0.0000
     30 H12        1.2705   -1.7039   -1.1243 H         1 RES1    0.0000
     31 C13        3.0713   -2.3356   -1.8275 C.ar      1 RES1    0.0000
     32 C14        2.7148   -3.4382   -2.5895 C.ar      1 RES1    0.0000
     33 H13        1.8397   -3.4805   -2.9585 H         1 RES1    0.0000
     34 C15        3.5875   -4.4681   -2.8248 C.ar      1 RES1    0.0000
     35 H14        3.3243   -5.2121   -3.3542 H         1 RES1    0.0000
     36 C16        4.8728   -4.4082   -2.2740 C.ar      1 RES1    0.0000
     37 C17        5.2582   -3.3083   -1.5294 C.ar      1 RES1    0.0000
     38 H15        6.1396   -3.2572   -1.1791 H         1 RES1    0.0000
     39 C18        4.3614   -2.2865   -1.2941 C.ar      1 RES1    0.0000
     40 H16        4.6235   -1.5425   -0.7647 H         1 RES1    0.0000
     41 N1         5.8091   -5.4825   -2.5200 N.pl3     1 RES1    0.0000
     42 O7         6.9313   -5.3977   -2.0187 O.2       1 RES1    0.0000
     43 O8         5.4630   -6.4330   -3.2259 O.2       1 RES1    0.0000
     44 C19        0.0367    5.0506    7.7004 C.3       1 RES1    0.0000
     45 H17        0.5277    4.7896    8.5079 H         1 RES1    0.0000
     46 H18       -0.8551    4.6423    7.7151 H         1 RES1    0.0000
     47 H19       -0.0518    6.0267    7.6736 H         1 RES1    0.0000
     48 C20       -0.2881    2.2744    6.1242 C.3       1 RES1    0.0000
     49 H20       -0.0726    1.3272    5.9959 H         1 RES1    0.0000
     50 H21       -0.7988    2.6007    5.3542 H         1 RES1    0.0000
     51 H22       -0.8213    2.3814    6.9384 H         1 RES1    0.0000
     52 C21        1.8807    2.4143    7.3301 C.3       1 RES1    0.0000
     53 H23        1.9787    1.4598    7.1322 H         1 RES1    0.0000
     54 H24        1.4608    2.5246    8.2084 H         1 RES1    0.0000
     55 H25        2.7637    2.8395    7.3341 H         1 RES1    0.0000
@<TRIPOS>BOND
     1    1    2 1
     2    2    3 1
     3    3    4 1
     4    5    3 1
     5    6    3 1
     6    7    6 1
     7    8    6 1
     8    9    6 1
     9   10   11 2
    10   11    1 1
    11   12    2 1
    12   13   14 2
    13   14    2 1
    14   15   14 1
    15   16   15 1
    16   17   16 1
    17   18   16 1
    18   19   18 1
    19   20   18 1
    20   21   18 1
    21   22   21 1
    22   23   21 1
    23   24   16 1
    24   25   24 1
    25   26   24 1
    26   27   21 1
    27   28   27 1
    28   29   28 1
    29   30   28 1
    30   31   28 1
    31   32   31 ar
    32   33   32 1
    33   34   32 ar
    34   35   34 1
    35   36   34 ar
    36   37   36 ar
    37   38   37 1
    38   39   31 ar
    39   40   39 1
    40   41   36 1
    41   42   41 2
    42   43   41 2
    43   44    9 1
    44   45   44 1
    45   46   44 1
    46   47   44 1
    47   48   12 1
    48   49   48 1
    49   50   48 1
    50   51   48 1
    51   52   12 1
    52   53   52 1
    53   54   52 1
    54   55   52 1
    55    9   11 1
    56    9   12 1
    57   23   24 1
    58   37   39 ar
@<TRIPOS>SUBSTRUCTURE
     1 RES1 1

@<TRIPOS>CRYSIN
  11.4230    6.7270   13.8890  90.0000 105.7320  90.0000   4 1

