# MOL2 file generated by ConQuest
# Please check atom types

@<TRIPOS>MOLECULE
SEMXUE
    29    29     1
SMALL
NO_CHARGES
****
Generated from CSD

@<TRIPOS>ATOM
      1 O1         4.2643    1.1135    7.8017 O.2       1 RES1    0.0000
      2 C1         4.8799    1.7319    8.6652 C.2       1 RES1    0.0000
      3 C2         6.2812    2.1112    8.4946 C.2       1 RES1    0.0000
      4 O2         6.4466    0.9202    6.4590 O.3       1 RES1    0.0000
      5 H1         5.5319    0.7938    6.6921 H         1 RES1    0.0000
      6 C3         6.9720    1.6905    7.3961 C.2       1 RES1    0.0000
      7 C4         8.4156    1.9510    7.1766 C.ar      1 RES1    0.0000
      8 C5         9.3333    1.3887    8.0502 C.ar      1 RES1    0.0000
      9 H2         9.0276    0.9469    8.8327 H         1 RES1    0.0000
     10 C6        10.6915    1.4653    7.7923 C.ar      1 RES1    0.0000
     11 H3        11.3110    1.0830    8.4032 H         1 RES1    0.0000
     12 C7        11.1489    2.0940    6.6530 C.ar      1 RES1    0.0000
     13 H4        12.0805    2.1230    6.4704 H         1 RES1    0.0000
     14 C8        10.2574    2.6828    5.7749 C.ar      1 RES1    0.0000
     15 H5        10.5697    3.1274    4.9948 H         1 RES1    0.0000
     16 C9         8.9113    2.6135    6.0500 C.ar      1 RES1    0.0000
     17 N1         7.9840    3.3481    5.1623 N.pl3     1 RES1    0.0000
     18 O3         8.4028    3.7145    4.0776 O.2       1 RES1    0.0000
     19 O4         6.8653    3.5937    5.5900 O.2       1 RES1    0.0000
     20 O5         4.3497    2.0924    9.8174 O.3       1 RES1    0.0000
     21 C10        2.9522    1.6847   10.0201 C.3       1 RES1    0.0000
     22 H6         2.8492    0.7168    9.8414 H         1 RES1    0.0000
     23 H7         2.3581    2.1829    9.4049 H         1 RES1    0.0000
     24 C11        2.6006    1.9869   11.4330 C.3       1 RES1    0.0000
     25 H8         1.6703    1.7269   11.6010 H         1 RES1    0.0000
     26 H9         2.7062    2.9476   11.5982 H         1 RES1    0.0000
     27 H10        3.1934    1.4863   12.0319 H         1 RES1    0.0000
     28 C12        6.9155    2.9318    9.4764 C.1       1 RES1    0.0000
     29 N2         7.4143    3.5997   10.2610 N.1       1 RES1    0.0000
@<TRIPOS>BOND
     1    1    2 2
     2    2    3 1
     3    3    6 2
     4    4    5 1
     5    6    4 1
     6    7    6 1
     7    8    7 ar
     8    9    8 1
     9   10    8 ar
    10   11   10 1
    11   12   10 ar
    12   13   12 1
    13   14   12 ar
    14   15   14 1
    15   16    7 ar
    16   17   16 1
    17   18   17 2
    18   19   17 2
    19   20    2 1
    20   21   20 1
    21   22   21 1
    22   23   21 1
    23   24   21 1
    24   25   24 1
    25   26   24 1
    26   27   24 1
    27   28    3 1
    28   29   28 3
    29   14   16 ar
@<TRIPOS>SUBSTRUCTURE
     1 RES1 1

@<TRIPOS>CRYSIN
  10.9451    8.0999   14.0396  90.0000  99.2960  90.0000  14 1

