# MOL2 file generated by ConQuest
# Please check atom types

@<TRIPOS>MOLECULE
SEMYIT01
    29    29     1
SMALL
NO_CHARGES
****
Generated from CSD

@<TRIPOS>ATOM
      1 N1         1.9304   -2.9514    0.8918 N.1       1 RES1    0.0000
      2 C1         2.8644   -2.3994    1.2587 C.1       1 RES1    0.0000
      3 C2         4.0273   -1.7086    1.7193 C.2       1 RES1    0.0000
      4 C3         3.9181   -0.3716    1.9437 C.2       1 RES1    0.0000
      5 C4         2.6044    0.3015    1.7217 C.ar      1 RES1    0.0000
      6 C5         1.6876    0.3115    2.7667 C.ar      1 RES1    0.0000
      7 H1         1.9254   -0.0628    3.6068 H         1 RES1    0.0000
      8 C6         0.4288    0.8638    2.5897 C.ar      1 RES1    0.0000
      9 H2        -0.1817    0.8821    3.3174 H         1 RES1    0.0000
     10 C7         0.0522    1.3855    1.3764 C.ar      1 RES1    0.0000
     11 H3        -0.8167    1.7526    1.2652 H         1 RES1    0.0000
     12 C8         0.9390    1.3753    0.3176 C.ar      1 RES1    0.0000
     13 H4         0.6841    1.7228   -0.5292 H         1 RES1    0.0000
     14 C9         2.2003    0.8520    0.5094 C.ar      1 RES1    0.0000
     15 N2         3.1430    0.9115   -0.6152 N.pl3     1 RES1    0.0000
     16 O1         2.7026    1.1067   -1.7309 O.2       1 RES1    0.0000
     17 O2         4.3350    0.7915   -0.3627 O.2       1 RES1    0.0000
     18 O3         4.9337    0.3027    2.4562 O.3       1 RES1    0.0000
     19 C10        4.7817    1.7233    2.6987 C.3       1 RES1    0.0000
     20 H5         5.6181    2.0846    3.0603 H         1 RES1    0.0000
     21 H6         4.0570    1.8696    3.3422 H         1 RES1    0.0000
     22 H7         4.5678    2.1771    1.8568 H         1 RES1    0.0000
     23 C11        5.2610   -2.4951    1.9327 C.2       1 RES1    0.0000
     24 O4         6.3409   -2.0536    2.2074 O.2       1 RES1    0.0000
     25 O5         5.0040   -3.7946    1.7586 O.3       1 RES1    0.0000
     26 C12        6.1198   -4.6984    1.9410 C.3       1 RES1    0.0000
     27 H8         5.7877   -5.6184    2.0064 H         1 RES1    0.0000
     28 H9         6.5992   -4.4650    2.7633 H         1 RES1    0.0000
     29 H10        6.7292   -4.6246    1.1765 H         1 RES1    0.0000
@<TRIPOS>BOND
     1    1    2 3
     2    2    3 1
     3    3    4 2
     4    4    5 1
     5    5    6 ar
     6    6    7 1
     7    8    6 ar
     8    9    8 1
     9   10    8 ar
    10   11   10 1
    11   12   10 ar
    12   13   12 1
    13   14    5 ar
    14   15   14 1
    15   16   15 2
    16   17   15 2
    17   18    4 1
    18   19   18 1
    19   20   19 1
    20   21   19 1
    21   22   19 1
    22   23    3 1
    23   24   23 2
    24   25   23 1
    25   26   25 1
    26   27   26 1
    27   28   26 1
    28   29   26 1
    29   12   14 ar
@<TRIPOS>SUBSTRUCTURE
     1 RES1 1

@<TRIPOS>CRYSIN
  15.1590   10.6410    7.7233  90.0000 103.2640  90.0000  14 1

