# MOL2 file generated by ConQuest
# Please check atom types

@<TRIPOS>MOLECULE
SEMYIS
    23    23     1
SMALL
NO_CHARGES
****
Generated from CSD

@<TRIPOS>ATOM
      1 C1         5.8544    8.8148   11.3468 C.ar      1 RES1    0.0000
      2 C2         4.9346    8.4703   12.3370 C.ar      1 RES1    0.0000
      3 C3         5.0843    8.9709   13.6231 C.ar      1 RES1    0.0000
      4 C4         6.1138    9.8491   13.9615 C.ar      1 RES1    0.0000
      5 C5         6.9797   10.2172   12.9462 C.ar      1 RES1    0.0000
      6 C6         6.8718    9.7166   11.6582 C.ar      1 RES1    0.0000
      7 C7         6.2905   10.3506   15.3714 C.3       1 RES1    0.0000
      8 C8         5.0183    7.2695    9.5559 C.2       1 RES1    0.0000
      9 C9         5.2127    6.8730    8.1170 C.3       1 RES1    0.0000
     10 N1         5.7874    8.2849   10.0220 N.am      1 RES1    0.0000
     11 O1         4.2315    6.6714   10.3024 O.2       1 RES1    0.0000
     12 O2         6.6300    8.9047    9.0917 O.3       1 RES1    0.0000
     13 H1         4.1664    7.9868   12.1262 H         1 RES1    0.0000
     14 H2         4.3803    8.5924   14.3890 H         1 RES1    0.0000
     15 H3         7.6911   10.8257   13.1125 H         1 RES1    0.0000
     16 H4         7.4493   10.0781   10.9851 H         1 RES1    0.0000
     17 H5         6.6681   11.1001   15.2979 H         1 RES1    0.0000
     18 H6         5.3754   10.4566   15.8588 H         1 RES1    0.0000
     19 H7         6.9285    9.9835   15.8781 H         1 RES1    0.0000
     20 H8         4.5012    6.0942    7.8520 H         1 RES1    0.0000
     21 H9         5.0778    7.7691    7.5039 H         1 RES1    0.0000
     22 H10        6.0915    6.3781    8.0068 H         1 RES1    0.0000
     23 H11        7.4028    8.4031    9.1478 H         1 RES1    0.0000
@<TRIPOS>BOND
     1    1    2 ar
     2    2    3 ar
     3    3    4 ar
     4    4    5 ar
     5    5    6 ar
     6    6    1 ar
     7    7    4 1
     8    8    9 1
     9    9   20 1
    10   10    1 1
    11   11    8 2
    12   12   10 1
    13   13    2 1
    14   14    3 1
    15   15    5 1
    16   16    6 1
    17   17    7 1
    18   18    7 1
    19   19    7 1
    20   21    9 1
    21   22    9 1
    22   23   12 1
    23    8   10 1
@<TRIPOS>SUBSTRUCTURE
     1 RES1 1

@<TRIPOS>CRYSIN
   9.3000    9.4630   19.3400  90.0000  90.0000  90.0000  61 1

