# MOL2 file generated by ConQuest
# Please check atom types

@<TRIPOS>MOLECULE
SEMYAL
    22    22     1
SMALL
NO_CHARGES
****
Generated from CSD

@<TRIPOS>ATOM
      1 O1         3.2876    0.0200    5.1064 O.2       1 RES1    0.0000
      2 C1         4.4094   -0.1646    4.7289 C.2       1 RES1    0.0000
      3 H1         4.6128   -0.6652    3.9314 H         1 RES1    0.0000
      4 C2         5.5801    0.2669    5.5085 C.2       1 RES1    0.0000
      5 C3         5.3810    0.8831    6.8474 C.ar      1 RES1    0.0000
      6 C4         5.4463    2.2618    6.9594 C.ar      1 RES1    0.0000
      7 H2         5.6589    2.7824    6.1934 H         1 RES1    0.0000
      8 C5         5.2071    2.8938    8.1676 C.ar      1 RES1    0.0000
      9 H3         5.2528    3.8401    8.2361 H         1 RES1    0.0000
     10 C6         4.9031    2.1263    9.2637 C.ar      1 RES1    0.0000
     11 C7         4.8337    0.7600    9.2153 C.ar      1 RES1    0.0000
     12 H4         4.6259    0.2478    9.9889 H         1 RES1    0.0000
     13 C8         5.0768    0.1580    8.0005 C.ar      1 RES1    0.0000
     14 N1         5.0286   -1.3114    7.9672 N.pl3     1 RES1    0.0000
     15 O2         4.7145   -1.8901    8.9814 O.2       1 RES1    0.0000
     16 O3         5.3527   -1.8910    6.9701 O.2       1 RES1    0.0000
     17 N2         4.6191    2.7949   10.5451 N.pl3     1 RES1    0.0000
     18 O4         4.8073    3.9757   10.6102 O.2       1 RES1    0.0000
     19 O5         4.1831    2.1296   11.4566 O.2       1 RES1    0.0000
     20 N3         6.6929    0.1272    4.8989 N.2       1 RES1    0.0000
     21 O6         7.7592    0.5738    5.6437 O.3       1 RES1    0.0000
     22 H5         8.4765    0.3493    5.1693 H         1 RES1    0.0000
@<TRIPOS>BOND
     1    1    2 2
     2    2    3 1
     3    4    2 1
     4    5    4 1
     5    6    5 ar
     6    7    6 1
     7    8    6 ar
     8    9    8 1
     9   10    8 ar
    10   11   10 ar
    11   12   11 1
    12   13    5 ar
    13   14   13 1
    14   15   14 2
    15   16   14 2
    16   17   10 1
    17   18   17 2
    18   19   17 2
    19   20    4 2
    20   21   20 1
    21   22   21 1
    22   11   13 ar
@<TRIPOS>SUBSTRUCTURE
     1 RES1 1

@<TRIPOS>CRYSIN
  13.1419    8.3156   18.1253  90.0000  90.0000  90.0000  61 1

