# MOL2 file generated by ConQuest
# Please check atom types

@<TRIPOS>MOLECULE
SENMII
    44    47     1
SMALL
NO_CHARGES
****
Generated from CSD

@<TRIPOS>ATOM
      1 C1         7.4598    7.5893    5.2628 C.3       1 RES1    0.0000
      2 H1         7.8252    8.4715    5.1649 H         1 RES1    0.0000
      3 H2         8.1339    6.9390    5.0549 H         1 RES1    0.0000
      4 H3         7.1627    7.4646    6.1672 H         1 RES1    0.0000
      5 O1         1.9398    8.4410    3.0117 O.3       1 RES1    0.0000
      6 O2         6.3295    7.4274    4.3523 O.3       1 RES1    0.0000
      7 O3         5.1927    8.9094    5.5742 O.2       1 RES1    0.0000
      8 C2         4.1501    7.8449    3.7135 C.2       1 RES1    0.0000
      9 C3         4.3950    5.3740    3.2162 C.ar      1 RES1    0.0000
     10 C4         4.2983    6.8008    2.6430 C.3       1 RES1    0.0000
     11 H4         5.1266    6.9858    2.1530 H         1 RES1    0.0000
     12 C5         0.9234    7.6674    1.0430 C.ar      1 RES1    0.0000
     13 C6         5.6262    4.7592    3.3455 C.ar      1 RES1    0.0000
     14 H5         6.3999    5.1829    3.0515 H         1 RES1    0.0000
     15 C7         2.0580    7.6372    1.8996 C.ar      1 RES1    0.0000
     16 C8         2.9981    8.5591    3.8465 C.2       1 RES1    0.0000
     17 N1         2.7041    9.4482    4.7989 N.3       1 RES1    0.0000
     18 H6         1.9366    9.8365    4.8028 H         1 RES1    0.0000
     19 H7         3.2818    9.6320    5.4083 H         1 RES1    0.0000
     20 C9         3.1473    6.8705    1.6597 C.ar      1 RES1    0.0000
     21 O4         8.0131    3.5485    3.8382 O.2       1 RES1    0.0000
     22 C10        3.2617    4.7036    3.6474 C.ar      1 RES1    0.0000
     23 H8         2.4289    5.1108    3.5743 H         1 RES1    0.0000
     24 C11        5.6867    3.4966    3.9234 C.ar      1 RES1    0.0000
     25 C12        5.2255    8.1312    4.6343 C.2       1 RES1    0.0000
     26 N2         7.0272    2.8929    4.1145 N.pl3     1 RES1    0.0000
     27 O5         7.0695    1.7520    4.5708 O.2       1 RES1    0.0000
     28 C13        4.5751    2.8193    4.3468 C.ar      1 RES1    0.0000
     29 H9         4.6388    1.9735    4.7286 H         1 RES1    0.0000
     30 C14        3.3597    3.4414    4.1834 C.ar      1 RES1    0.0000
     31 H10        2.5845    2.9972    4.4419 H         1 RES1    0.0000
     32 C15       -0.2083    8.4516    1.3112 C.ar      1 RES1    0.0000
     33 H11       -0.2363    8.9863    2.0714 H         1 RES1    0.0000
     34 C16        3.1494    6.0887    0.4858 C.ar      1 RES1    0.0000
     35 H12        3.9017    5.5828    0.2793 H         1 RES1    0.0000
     36 C17        0.9315    6.8394   -0.0945 C.ar      1 RES1    0.0000
     37 C18       -1.2762    8.4260    0.4464 C.ar      1 RES1    0.0000
     38 H13       -2.0240    8.9486    0.6291 H         1 RES1    0.0000
     39 C19        2.0843    6.0564   -0.3469 C.ar      1 RES1    0.0000
     40 H14        2.1093    5.5097   -1.0987 H         1 RES1    0.0000
     41 C20       -0.1975    6.8467   -0.9499 C.ar      1 RES1    0.0000
     42 H15       -0.2096    6.2990   -1.7018 H         1 RES1    0.0000
     43 C21       -1.2598    7.6432   -0.6836 C.ar      1 RES1    0.0000
     44 H16       -1.9824    7.6604   -1.2680 H         1 RES1    0.0000
@<TRIPOS>BOND
     1    1    2 1
     2    3    1 1
     3    4    1 1
     4    5   15 1
     5    6    1 1
     6    7   25 2
     7    8   10 1
     8    9   10 1
     9   10   11 1
    10   12   15 ar
    11   13    9 ar
    12   14   13 1
    13   15   20 ar
    14   16    5 1
    15   17   16 1
    16   18   17 1
    17   19   17 1
    18   20   10 1
    19   21   26 2
    20   22    9 ar
    21   23   22 1
    22   24   13 ar
    23   25    6 1
    24   26   24 1
    25   27   26 2
    26   28   24 ar
    27   29   28 1
    28   30   22 ar
    29   31   30 1
    30   32   12 ar
    31   33   32 1
    32   34   20 ar
    33   35   34 1
    34   36   12 ar
    35   37   32 ar
    36   38   37 1
    37   39   34 ar
    38   40   39 1
    39   41   36 ar
    40   42   41 1
    41   43   37 ar
    42   44   43 1
    43    8   16 2
    44    8   25 1
    45   28   30 ar
    46   36   39 ar
    47   41   43 ar
@<TRIPOS>SUBSTRUCTURE
     1 RES1 1

@<TRIPOS>CRYSIN
   8.2190    9.2570   13.2030  71.8400  78.3900  82.7300   2 1

