# MOL2 file generated by ConQuest
# Please check atom types

@<TRIPOS>MOLECULE
SENREJ
    29    29     1
SMALL
NO_CHARGES
****
Generated from CSD

@<TRIPOS>ATOM
      1 N1         3.9832   -0.2863   -0.8692 N.1       1 RES1    0.0000
      2 C1         4.7648    0.5323   -0.7055 C.1       1 RES1    0.0000
      3 C2         5.7519    1.5566   -0.5090 C.2       1 RES1    0.0000
      4 C3         6.3729    2.0657   -1.6076 C.2       1 RES1    0.0000
      5 C4         7.3596    3.1851   -1.5792 C.ar      1 RES1    0.0000
      6 C5         6.8891    4.4593   -1.8812 C.ar      1 RES1    0.0000
      7 C6         7.7576    5.5463   -1.8875 C.ar      1 RES1    0.0000
      8 C7         9.0947    5.3848   -1.5722 C.ar      1 RES1    0.0000
      9 C8         9.5797    4.1320   -1.2372 C.ar      1 RES1    0.0000
     10 C9         8.7078    3.0575   -1.2585 C.ar      1 RES1    0.0000
     11 N2         9.2559    1.7322   -0.9297 N.pl3     1 RES1    0.0000
     12 O1        10.2039    1.6708   -0.1628 O.2       1 RES1    0.0000
     13 O2         8.7462    0.7592   -1.4736 O.2       1 RES1    0.0000
     14 O3         5.9718    1.5907   -2.7864 O.3       1 RES1    0.0000
     15 C10        6.7105    1.9327   -3.9880 C.3       1 RES1    0.0000
     16 C11        6.0651    1.9877    0.8675 C.2       1 RES1    0.0000
     17 O4         6.9582    2.7261    1.1867 O.2       1 RES1    0.0000
     18 O5         5.2143    1.4200    1.7423 O.3       1 RES1    0.0000
     19 C12        5.4227    1.7657    3.1343 C.3       1 RES1    0.0000
     20 H1         5.9140    4.5974   -2.0895 H         1 RES1    0.0000
     21 H2         7.4077    6.4569   -2.1341 H         1 RES1    0.0000
     22 H3         9.7108    6.1805   -1.5922 H         1 RES1    0.0000
     23 H4        10.5429    4.0087   -0.9821 H         1 RES1    0.0000
     24 H5         6.2871    1.4954   -4.7891 H         1 RES1    0.0000
     25 H6         7.6602    1.6156   -3.9149 H         1 RES1    0.0000
     26 H7         6.7086    2.9256   -4.1257 H         1 RES1    0.0000
     27 H8         4.7507    1.2954    3.7103 H         1 RES1    0.0000
     28 H9         6.3458    1.4808    3.4213 H         1 RES1    0.0000
     29 H10        5.3345    2.7537    3.2626 H         1 RES1    0.0000
@<TRIPOS>BOND
     1    1    2 3
     2    2    3 1
     3    3    4 2
     4    4    5 1
     5    5    6 ar
     6    6    7 ar
     7    7    8 ar
     8    8    9 ar
     9    9   10 ar
    10   10    5 ar
    11   11   10 1
    12   12   11 2
    13   13   11 2
    14   14    4 1
    15   15   14 1
    16   16    3 1
    17   17   16 2
    18   18   16 1
    19   19   18 1
    20   20    6 1
    21   21    7 1
    22   22    8 1
    23   23    9 1
    24   24   15 1
    25   25   15 1
    26   26   15 1
    27   27   19 1
    28   28   19 1
    29   29   19 1
@<TRIPOS>SUBSTRUCTURE
     1 RES1 1

@<TRIPOS>CRYSIN
  17.2671   11.2352   13.1432  90.0000 109.3520  90.0000  15 1

