# MOL2 file generated by ConQuest
# Please check atom types

@<TRIPOS>MOLECULE
SEPFAW
    44    46     1
SMALL
NO_CHARGES
****
Generated from CSD

@<TRIPOS>ATOM
      1 C1         9.5964   13.4758    0.8926 C.2       1 RES1    0.0000
      2 C2        10.8618   13.6015    1.7102 C.3       1 RES1    0.0000
      3 H1        11.2225   12.6829    1.8737 H         1 RES1    0.0000
      4 C3        10.3360   14.1499    3.0303 C.3       1 RES1    0.0000
      5 H2        10.3722   15.1495    3.0098 H         1 RES1    0.0000
      6 C4         8.8695   13.6967    3.1274 C.3       1 RES1    0.0000
      7 H3         8.8214   12.7970    3.5609 H         1 RES1    0.0000
      8 C5         7.1521   13.3732    1.2937 C.ar      1 RES1    0.0000
      9 C6         6.3624   12.4402    1.9529 C.ar      1 RES1    0.0000
     10 H4         6.7173   11.9368    2.6760 H         1 RES1    0.0000
     11 C7         5.0580   12.2524    1.5458 C.ar      1 RES1    0.0000
     12 H5         4.5086   11.6326    2.0108 H         1 RES1    0.0000
     13 C8         4.5348   12.9526    0.4693 C.ar      1 RES1    0.0000
     14 C9         5.3079   13.8994   -0.1720 C.ar      1 RES1    0.0000
     15 H6         4.9518   14.4018   -0.8951 H         1 RES1    0.0000
     16 C10        6.6205   14.1097    0.2555 C.ar      1 RES1    0.0000
     17 H7         7.1546   14.7677   -0.1737 H         1 RES1    0.0000
     18 C11        2.6789   13.2865   -0.9956 C.3       1 RES1    0.0000
     19 H8         2.6845   14.2576   -0.8602 H         1 RES1    0.0000
     20 H9         1.7559   12.9808   -1.1174 H         1 RES1    0.0000
     21 H10        3.2042   13.0647   -1.7919 H         1 RES1    0.0000
     22 C12       11.9500   14.4274    1.0382 C.3       1 RES1    0.0000
     23 H11       12.1180   14.0644    0.1329 H         1 RES1    0.0000
     24 H12       11.6303   15.3586    0.9351 H         1 RES1    0.0000
     25 C13       13.2550   14.4350    1.8192 C.3       1 RES1    0.0000
     26 H13       13.0978   14.8026    2.7134 H         1 RES1    0.0000
     27 H14       13.9134   14.9879    1.3491 H         1 RES1    0.0000
     28 H15       13.5932   13.5178    1.8975 H         1 RES1    0.0000
     29 C14        7.9905   14.6725    3.8777 C.ar      1 RES1    0.0000
     30 C15        7.3334   14.2798    5.0198 C.ar      1 RES1    0.0000
     31 H16        7.4100   13.3895    5.3400 H         1 RES1    0.0000
     32 C16        6.5607   15.2002    5.6900 C.ar      1 RES1    0.0000
     33 H17        6.1077   14.9626    6.4906 H         1 RES1    0.0000
     34 C17        6.4608   16.4612    5.1816 C.ar      1 RES1    0.0000
     35 H18        5.9150   17.1123    5.6074 H         1 RES1    0.0000
     36 C18        7.1722   16.7781    4.0310 C.ar      1 RES1    0.0000
     37 H19        7.1165   17.6668    3.6997 H         1 RES1    0.0000
     38 N1         8.5148   13.5834    1.7093 N.am      1 RES1    0.0000
     39 N2        11.0723   13.6506    4.2465 N.pl3     1 RES1    0.0000
     40 N3         7.9234   15.9064    3.3692 N.ar      1 RES1    0.0000
     41 O1         9.5499   13.2778   -0.3177 O.2       1 RES1    0.0000
     42 O2         3.2457   12.6451    0.1431 O.3       1 RES1    0.0000
     43 O3        11.4515   12.4919    4.2831 O.2       1 RES1    0.0000
     44 O4        11.1683   14.4444    5.1842 O.2       1 RES1    0.0000
@<TRIPOS>BOND
     1    1    2 1
     2    2    3 1
     3    4    2 1
     4    5    4 1
     5    6    4 1
     6    7    6 1
     7    8    9 ar
     8    9   10 1
     9   11    9 ar
    10   12   11 1
    11   13   11 ar
    12   14   13 ar
    13   15   14 1
    14   16    8 ar
    15   17   16 1
    16   18   19 1
    17   20   18 1
    18   21   18 1
    19   22    2 1
    20   23   22 1
    21   24   22 1
    22   25   22 1
    23   26   25 1
    24   27   25 1
    25   28   25 1
    26   29    6 1
    27   30   29 ar
    28   31   30 1
    29   32   30 ar
    30   33   32 1
    31   34   32 ar
    32   35   34 1
    33   36   34 ar
    34   37   36 1
    35   38    1 1
    36   39    4 1
    37   40   29 ar
    38   41    1 2
    39   42   13 1
    40   43   39 2
    41   44   39 2
    42    6   38 1
    43    8   38 1
    44   14   16 ar
    45   18   42 1
    46   36   40 ar
@<TRIPOS>SUBSTRUCTURE
     1 RES1 1

@<TRIPOS>CRYSIN
  12.6533   15.8418    8.8587  90.0000 105.9710  90.0000  14 1

