# MOL2 file generated by ConQuest
# Please check atom types

@<TRIPOS>MOLECULE
SEPGIF
    47    49     1
SMALL
NO_CHARGES
****
Generated from CSD

@<TRIPOS>ATOM
      1 O1        -2.7232   -3.4344   20.1325 O.3       1 RES1    0.0000
      2 C1        -3.6280   -4.1658   20.8645 C.ar      1 RES1    0.0000
      3 N1        -7.4488   -6.6180   23.6967 N.1       1 RES1    0.0000
      4 O2        -0.6119    1.9700   14.0400 O.2       1 RES1    0.0000
      5 N2        -2.6451   -0.1783   16.6753 N.2       1 RES1    0.0000
      6 C2        -4.1554   -3.5565   21.9488 C.ar      1 RES1    0.0000
      7 H1        -3.8791   -2.6757   22.1714 H         1 RES1    0.0000
      8 O3        -0.7815    4.0919   13.6176 O.2       1 RES1    0.0000
      9 N3        -2.1403    0.8152   15.8477 N.pl3     1 RES1    0.0000
     10 H2        -1.3465    0.6865   15.3669 H         1 RES1    0.0000
     11 C3        -5.0954   -4.2043   22.7464 C.ar      1 RES1    0.0000
     12 H3        -5.4133   -3.7984   23.5440 H         1 RES1    0.0000
     13 N4        -4.8041    5.7435   15.8549 N.pl3     1 RES1    0.0000
     14 O4        -4.2770    6.7319   15.3227 O.2       1 RES1    0.0000
     15 C4        -5.5700   -5.4657   22.3512 C.ar      1 RES1    0.0000
     16 N5        -1.1661    3.0530   14.1983 N.pl3     1 RES1    0.0000
     17 O5        -5.8974    5.7912   16.4099 O.2       1 RES1    0.0000
     18 C5        -5.0517   -6.0545   21.2226 C.ar      1 RES1    0.0000
     19 H4        -5.3622   -6.9108   20.9543 H         1 RES1    0.0000
     20 C6        -4.0801   -5.4061   20.4735 C.ar      1 RES1    0.0000
     21 C7        -3.5510   -5.9160   19.1994 C.2       1 RES1    0.0000
     22 H5        -3.9447   -6.6862   18.8056 H         1 RES1    0.0000
     23 C8        -2.5514   -5.3310   18.5987 C.2       1 RES1    0.0000
     24 H6        -2.2439   -5.6736   17.7668 H         1 RES1    0.0000
     25 C9        -1.8910   -4.1577   19.1751 C.3       1 RES1    0.0000
     26 H7        -1.1029   -4.4994   19.6859 H         1 RES1    0.0000
     27 C10       -6.6350   -6.1013   23.0946 C.1       1 RES1    0.0000
     28 C11       -1.3554   -3.1104   18.1991 C.3       1 RES1    0.0000
     29 H8        -0.7703   -3.5815   17.5385 H         1 RES1    0.0000
     30 C12       -0.5340   -2.0698   18.8683 C.3       1 RES1    0.0000
     31 H9         0.2266   -2.4930   19.3178 H         1 RES1    0.0000
     32 H10       -1.0818   -1.5963   19.5290 H         1 RES1    0.0000
     33 H11       -0.2045   -1.4336   18.2006 H         1 RES1    0.0000
     34 C13       -2.5126   -2.4724   17.4258 C.3       1 RES1    0.0000
     35 H12       -2.9318   -3.1599   16.8494 H         1 RES1    0.0000
     36 H13       -3.1966   -2.1603   18.0693 H         1 RES1    0.0000
     37 C14       -2.0860   -1.3296   16.5826 C.2       1 RES1    0.0000
     38 H14       -1.3816   -1.4530   15.9562 H         1 RES1    0.0000
     39 C15       -2.7487    2.0357   15.7992 C.ar      1 RES1    0.0000
     40 C16       -2.3169    3.1293   15.0844 C.ar      1 RES1    0.0000
     41 C17       -2.9605    4.3646   15.1015 C.ar      1 RES1    0.0000
     42 H15       -2.6242    5.1020   14.6036 H         1 RES1    0.0000
     43 C18       -4.0864    4.4789   15.8534 C.ar      1 RES1    0.0000
     44 C19       -4.5759    3.4068   16.5983 C.ar      1 RES1    0.0000
     45 H16       -5.3637    3.5106   17.1190 H         1 RES1    0.0000
     46 C20       -3.9341    2.2214   16.5811 C.ar      1 RES1    0.0000
     47 H17       -4.2737    1.4986   17.0948 H         1 RES1    0.0000
@<TRIPOS>BOND
     1    1    2 1
     2    2    6 ar
     3    3   27 3
     4    4   16 2
     5    5    9 1
     6    6    7 1
     7    8   16 2
     8    9   10 1
     9   11    6 ar
    10   12   11 1
    11   13   14 2
    12   15   11 ar
    13   16   40 1
    14   17   13 2
    15   18   15 ar
    16   19   18 1
    17   20    2 ar
    18   21   20 1
    19   22   21 1
    20   23   21 2
    21   24   23 1
    22   25    1 1
    23   26   25 1
    24   27   15 1
    25   28   25 1
    26   29   28 1
    27   30   28 1
    28   31   30 1
    29   32   30 1
    30   33   30 1
    31   34   28 1
    32   35   34 1
    33   36   34 1
    34   37    5 2
    35   38   37 1
    36   39    9 1
    37   40   39 ar
    38   41   40 ar
    39   42   41 1
    40   43   13 1
    41   44   43 ar
    42   45   44 1
    43   46   39 ar
    44   47   46 1
    45   18   20 ar
    46   23   25 1
    47   34   37 1
    48   41   43 ar
    49   44   46 ar
@<TRIPOS>SUBSTRUCTURE
     1 RES1 1

@<TRIPOS>CRYSIN
   5.6510   11.8800   15.3890 109.0600 100.3100  90.8100   2 1

