# MOL2 file generated by ConQuest
# Please check atom types

@<TRIPOS>MOLECULE
SEPRUB
    24    25     1
SMALL
NO_CHARGES
****
Generated from CSD

@<TRIPOS>ATOM
      1 C1         0.1730    9.4091   11.0175 C.2       1 RES1    0.0000
      2 H1         0.0228    9.3200   11.9308 H         1 RES1    0.0000
      3 C2         0.6373   10.2221    9.0991 C.2       1 RES1    0.0000
      4 C3         0.3538    8.8942    8.9034 C.2       1 RES1    0.0000
      5 C4         0.0260    6.8696    7.5660 C.2       1 RES1    0.0000
      6 C5         0.1056    6.3543    6.1636 C.3       1 RES1    0.0000
      7 H2         1.0253    6.2181    5.9250 H         1 RES1    0.0000
      8 H3        -0.2885    6.9931    5.5650 H         1 RES1    0.0000
      9 H4        -0.3677    5.5216    6.1013 H         1 RES1    0.0000
     10 C6         1.0003   11.1715    8.0706 C.2       1 RES1    0.0000
     11 C7         1.3341   11.9199    6.1516 C.2       1 RES1    0.0000
     12 C8         1.4708   12.1970    4.7030 C.3       1 RES1    0.0000
     13 H5         1.5733   11.3694    4.2277 H         1 RES1    0.0000
     14 H6         2.2418   12.7501    4.5540 H         1 RES1    0.0000
     15 H7         0.6860   12.6515    4.3879 H         1 RES1    0.0000
     16 H8        -0.0919    7.5346   10.3349 H         1 RES1    0.0000
     17 H9         0.5520    8.6445    7.0389 H         1 RES1    0.0000
     18 N1         0.0592    8.3859   10.1336 N.pl3     1 RES1    0.0000
     19 N2         0.5171   10.5345   10.4457 N.2       1 RES1    0.0000
     20 N3         0.3679    8.1792    7.7157 N.am      1 RES1    0.0000
     21 N4         1.3239   12.4138    8.3012 N.2       1 RES1    0.0000
     22 N5         1.0029   10.8166    6.7336 N.2       1 RES1    0.0000
     23 O1        -0.3127    6.1970    8.5166 O.2       1 RES1    0.0000
     24 O2         1.5551   12.9234    6.9962 O.3       1 RES1    0.0000
@<TRIPOS>BOND
     1    1    2 1
     2    3    4 2
     3    4   18 1
     4    5    6 1
     5    6    7 1
     6    8    6 1
     7    9    6 1
     8   10    3 1
     9   11   12 1
    10   12   13 1
    11   14   12 1
    12   15   12 1
    13   16   18 1
    14   17   20 1
    15   18    1 1
    16   19    1 2
    17   20    4 1
    18   21   10 2
    19   22   10 1
    20   23    5 2
    21   24   11 1
    22    3   19 1
    23    5   20 1
    24   11   22 2
    25   21   24 1
@<TRIPOS>SUBSTRUCTURE
     1 RES1 1

@<TRIPOS>CRYSIN
   6.9156    9.5678   14.8356  90.0000  97.8970  90.0000 231 1

