# MOL2 file generated by ConQuest
# Please check atom types

@<TRIPOS>MOLECULE
SEPSEO
    73    79     1
SMALL
NO_CHARGES
****
Generated from CSD

@<TRIPOS>ATOM
      1 C1         8.6088    6.9808    3.9268 C.3       1 RES1    0.0000
      2 C2         8.8618    8.4798    3.9918 C.3       1 RES1    0.0000
      3 H1         8.7475    8.8179    4.9145 H         1 RES1    0.0000
      4 H2         9.7758    8.6979    3.6803 H         1 RES1    0.0000
      5 C3         7.8194    9.0703    3.0660 C.3       1 RES1    0.0000
      6 H3         8.2058    9.1611    2.1481 H         1 RES1    0.0000
      7 C4         9.1221    6.2688    5.1848 C.3       1 RES1    0.0000
      8 H4         9.8393    6.7913    5.6239 H         1 RES1    0.0000
      9 H5         8.3891    6.1165    5.8331 H         1 RES1    0.0000
     10 C5         9.3594    6.2038    2.7824 C.3       1 RES1    0.0000
     11 H6         8.7119    5.5883    2.3337 H         1 RES1    0.0000
     12 C6         7.2689   10.4305    3.5208 C.3       1 RES1    0.0000
     13 C7         8.3890   11.4637    3.4326 C.ar      1 RES1    0.0000
     14 C8         8.9388   11.7603    2.1880 C.ar      1 RES1    0.0000
     15 H7         8.6476   11.2806    1.4210 H         1 RES1    0.0000
     16 C9         9.9023   12.7422    2.0525 C.ar      1 RES1    0.0000
     17 H8        10.2690   12.9340    1.1976 H         1 RES1    0.0000
     18 C10       10.3325   13.4478    3.1661 C.ar      1 RES1    0.0000
     19 H9        10.9824   14.1347    3.0750 H         1 RES1    0.0000
     20 C11        9.8105   13.1456    4.4102 C.ar      1 RES1    0.0000
     21 H10       10.1157   13.6164    5.1770 H         1 RES1    0.0000
     22 C12        8.8412   12.1568    4.5459 C.ar      1 RES1    0.0000
     23 H11        8.4879   11.9559    5.4040 H         1 RES1    0.0000
     24 C13        6.0864   10.9159    2.6741 C.ar      1 RES1    0.0000
     25 C14        5.7627   10.4066    1.4216 C.ar      1 RES1    0.0000
     26 H12        6.2967    9.7210    1.0392 H         1 RES1    0.0000
     27 C15        4.6630   10.8938    0.7246 C.ar      1 RES1    0.0000
     28 H13        4.4535   10.5432   -0.1336 H         1 RES1    0.0000
     29 C16        3.8720   11.8868    1.2753 C.ar      1 RES1    0.0000
     30 H14        3.1086   12.2027    0.8075 H         1 RES1    0.0000
     31 C17        4.1978   12.4174    2.5105 C.ar      1 RES1    0.0000
     32 H15        3.6640   13.1069    2.8870 H         1 RES1    0.0000
     33 C18        5.2994   11.9450    3.1971 C.ar      1 RES1    0.0000
     34 H16        5.5251   12.3251    4.0373 H         1 RES1    0.0000
     35 C19        6.4415    5.8244    3.2672 C.ar      1 RES1    0.0000
     36 C20        5.5659    5.9446    2.1991 C.ar      1 RES1    0.0000
     37 H17        5.4349    6.7893    1.7852 H         1 RES1    0.0000
     38 C21        4.8803    4.8285    1.7350 C.ar      1 RES1    0.0000
     39 H18        4.2861    4.9190    1.0002 H         1 RES1    0.0000
     40 C22        5.0465    3.5945    2.3201 C.ar      1 RES1    0.0000
     41 H19        4.5759    2.8375    1.9921 H         1 RES1    0.0000
     42 C23        5.9084    3.4757    3.3912 C.ar      1 RES1    0.0000
     43 H20        6.0355    2.6273    3.7985 H         1 RES1    0.0000
     44 C24        6.5894    4.5762    3.8797 C.ar      1 RES1    0.0000
     45 H21        7.1593    4.4835    4.6344 H         1 RES1    0.0000
     46 C25       10.4597    4.2137    5.4811 C.ar      1 RES1    0.0000
     47 C26       10.0841    4.0291    6.8162 C.ar      1 RES1    0.0000
     48 H22        9.3673    4.5346    7.1821 H         1 RES1    0.0000
     49 C27       10.7561    3.1109    7.6021 C.ar      1 RES1    0.0000
     50 H23       10.4941    2.9847    8.5062 H         1 RES1    0.0000
     51 C28       11.8104    2.3708    7.0822 C.ar      1 RES1    0.0000
     52 H24       12.2484    1.7174    7.6148 H         1 RES1    0.0000
     53 C29       12.2149    2.5997    5.7760 C.ar      1 RES1    0.0000
     54 H25       12.9558    2.1187    5.4265 H         1 RES1    0.0000
     55 C30       11.5567    3.5173    4.9700 C.ar      1 RES1    0.0000
     56 H26       11.8494    3.6703    4.0787 H         1 RES1    0.0000
     57 C31       10.0664    7.0122    1.7308 C.ar      1 RES1    0.0000
     58 C32       11.4281    7.2914    1.8100 C.ar      1 RES1    0.0000
     59 H27       11.9287    7.0021    2.5631 H         1 RES1    0.0000
     60 C33       12.0538    7.9922    0.7880 C.ar      1 RES1    0.0000
     61 H28       12.9850    8.1700    0.8418 H         1 RES1    0.0000
     62 C34       11.3362    8.4323   -0.3050 C.ar      1 RES1    0.0000
     63 H29       11.7709    8.9116   -1.0002 H         1 RES1    0.0000
     64 C35        9.9784    8.1708   -0.3830 C.ar      1 RES1    0.0000
     65 H30        9.4776    8.4840   -1.1267 H         1 RES1    0.0000
     66 C36        9.3478    7.4531    0.6223 C.ar      1 RES1    0.0000
     67 H31        8.4200    7.2614    0.5545 H         1 RES1    0.0000
     68 N1         7.1159    6.9491    3.8306 N.3       1 RES1    0.0000
     69 N2         9.6351    5.0032    4.6625 N.3       1 RES1    0.0000
     70 O1         6.7367    8.1202    3.0353 O.3       1 RES1    0.0000
     71 O2        10.3438    5.4183    3.4689 O.3       1 RES1    0.0000
     72 O3         6.8593   10.3367    4.8844 O.3       1 RES1    0.0000
     73 H32        6.1814    9.8427    4.9394 H         1 RES1    0.0000
@<TRIPOS>BOND
     1    1    2 1
     2    2    3 1
     3    4    2 1
     4    5    2 1
     5    6    5 1
     6    7    1 1
     7    8    7 1
     8    9    7 1
     9   10    1 1
    10   11   10 1
    11   12    5 1
    12   13   12 1
    13   14   13 ar
    14   15   14 1
    15   16   14 ar
    16   17   16 1
    17   18   16 ar
    18   19   18 1
    19   20   18 ar
    20   21   20 1
    21   22   13 ar
    22   23   22 1
    23   24   12 1
    24   25   24 ar
    25   26   25 1
    26   27   25 ar
    27   28   27 1
    28   29   27 ar
    29   30   29 1
    30   31   29 ar
    31   32   31 1
    32   33   24 ar
    33   34   33 1
    34   35   36 ar
    35   36   37 1
    36   38   36 ar
    37   39   38 1
    38   40   38 ar
    39   41   40 1
    40   42   40 ar
    41   43   42 1
    42   44   35 ar
    43   45   44 1
    44   46   47 ar
    45   47   48 1
    46   49   47 ar
    47   50   49 1
    48   51   49 ar
    49   52   51 1
    50   53   51 ar
    51   54   53 1
    52   55   46 ar
    53   56   55 1
    54   57   10 1
    55   58   57 ar
    56   59   58 1
    57   60   58 ar
    58   61   60 1
    59   62   60 ar
    60   63   62 1
    61   64   62 ar
    62   65   64 1
    63   66   57 ar
    64   67   66 1
    65   68    1 1
    66   69    7 1
    67   70    5 1
    68   71   10 1
    69   72   12 1
    70   73   72 1
    71   20   22 ar
    72   31   33 ar
    73   35   68 1
    74   42   44 ar
    75   46   69 1
    76   53   55 ar
    77   64   66 ar
    78   68   70 1
    79   69   71 1
@<TRIPOS>SUBSTRUCTURE
     1 RES1 1

@<TRIPOS>CRYSIN
   9.6369   12.1697   12.3161  86.9140  73.8310  85.4940   2 1

