# MOL2 file generated by ConQuest
# Please check atom types

@<TRIPOS>MOLECULE
SEPYOE
    32    33     1
SMALL
NO_CHARGES
****
Generated from CSD

@<TRIPOS>ATOM
      1 O1         3.2442    5.6829    8.8800 O.2       1 RES1    0.0000
      2 O2         3.8054    3.6781    9.4688 O.2       1 RES1    0.0000
      3 O3        -0.5226   -0.1759    7.4978 O.2       1 RES1    0.0000
      4 O4        -1.5849   -0.5609    5.5529 O.3       1 RES1    0.0000
      5 N1         3.2125    4.4621    8.7324 N.pl3     1 RES1    0.0000
      6 N2         1.7836    0.6074    6.1737 N.3       1 RES1    0.0000
      7 C1         1.6943    1.9758    6.4206 C.ar      1 RES1    0.0000
      8 C2         2.4824    2.5477    7.4169 C.ar      1 RES1    0.0000
      9 H1         3.0578    2.0057    7.9440 H         1 RES1    0.0000
     10 C3         2.4187    3.9052    7.6291 C.ar      1 RES1    0.0000
     11 C4         1.6226    4.7470    6.8798 C.ar      1 RES1    0.0000
     12 H2         1.6037    5.6835    7.0371 H         1 RES1    0.0000
     13 C5         0.8542    4.1647    5.8894 C.ar      1 RES1    0.0000
     14 H3         0.2989    4.7219    5.3561 H         1 RES1    0.0000
     15 C6         0.8619    2.7991    5.6425 C.ar      1 RES1    0.0000
     16 C7        -0.0203    2.1927    4.5864 C.3       1 RES1    0.0000
     17 H4        -0.0151    2.7756    3.7867 H         1 RES1    0.0000
     18 H5        -0.9499    2.1511    4.9258 H         1 RES1    0.0000
     19 C8         0.4239    0.7997    4.1870 C.3       1 RES1    0.0000
     20 H6         1.2312    0.8614    3.6177 H         1 RES1    0.0000
     21 H7        -0.2915    0.3639    3.6589 H         1 RES1    0.0000
     22 C9         0.7340   -0.0478    5.4179 C.3       1 RES1    0.0000
     23 C10        1.2205   -1.4443    5.0219 C.3       1 RES1    0.0000
     24 H8         2.0013   -1.3638    4.4355 H         1 RES1    0.0000
     25 H9         0.5046   -1.9177    4.5496 H         1 RES1    0.0000
     26 H10        1.4670   -1.9454    5.8277 H         1 RES1    0.0000
     27 C11       -0.5125   -0.2446    6.2890 C.2       1 RES1    0.0000
     28 C12       -2.8011   -0.8255    6.2932 C.3       1 RES1    0.0000
     29 H11       -2.6530   -1.5747    6.9069 H         1 RES1    0.0000
     30 H12       -3.5214   -1.0519    5.6684 H         1 RES1    0.0000
     31 H13       -3.0520   -0.0281    6.8050 H         1 RES1    0.0000
     32 H14        2.1224    0.1523    6.8406 H         1 RES1    0.0000
@<TRIPOS>BOND
     1    1    5 2
     2    2    5 2
     3    3   27 2
     4    4   27 1
     5    5   10 1
     6    6    7 1
     7    7    8 ar
     8    8    9 1
     9   10    8 ar
    10   11   10 ar
    11   12   11 1
    12   13   11 ar
    13   14   13 1
    14   15    7 ar
    15   16   15 1
    16   17   16 1
    17   18   16 1
    18   19   16 1
    19   20   19 1
    20   21   19 1
    21   22    6 1
    22   23   22 1
    23   24   23 1
    24   25   23 1
    25   26   23 1
    26   27   22 1
    27   28    4 1
    28   29   28 1
    29   30   28 1
    30   31   28 1
    31   32    6 1
    32   13   15 ar
    33   19   22 1
@<TRIPOS>SUBSTRUCTURE
     1 RES1 1

@<TRIPOS>CRYSIN
   8.2280    9.0760    9.5790 116.9200 101.2500 100.9200   2 1

