# MOL2 file generated by ConQuest
# Please check atom types

@<TRIPOS>MOLECULE
SERVOA
    26    26     1
SMALL
NO_CHARGES
****
Generated from CSD

@<TRIPOS>ATOM
      1 O1         6.0138    7.9177    1.3977 O.3       1 RES1    0.0000
      2 O2         3.6864    6.7268    0.2564 O.3       1 RES1    0.0000
      3 O3         5.1332    7.5632   -1.2669 O.3       1 RES1    0.0000
      4 O4         2.7832    5.5943   -1.4268 O.2       1 RES1    0.0000
      5 O5         8.0614    8.8634    4.0160 O.2       1 RES1    0.0000
      6 O6         6.6429   10.0150    2.8139 O.2       1 RES1    0.0000
      7 O7         6.3364    6.2612   -2.5747 O.2       1 RES1    0.0000
      8 N1         7.2222    8.9946    3.1027 N.pl3     1 RES1    0.0000
      9 C1         5.9942    6.6722    0.8029 C.2       1 RES1    0.0000
     10 C2         4.9852    6.4978   -0.3040 C.3       1 RES1    0.0000
     11 C3         7.5268    6.5390    2.3890 C.2       1 RES1    0.0000
     12 C4         2.6158    6.2564   -0.4732 C.2       1 RES1    0.0000
     13 C5         6.9578    7.7999    2.3381 C.2       1 RES1    0.0000
     14 C6         5.7386    8.4849   -3.3188 C.3       1 RES1    0.0000
     15 C7         5.7830    7.3381   -2.4326 C.2       1 RES1    0.0000
     16 C8         1.3706    6.6550    0.1110 C.3       1 RES1    0.0000
     17 C9         6.8649    5.8396    1.3600 C.2       1 RES1    0.0000
     18 H1         8.6763    6.2756    2.9071 H         1 RES1    0.0000
     19 H2         6.9561    4.7349    0.9609 H         1 RES1    0.0000
     20 H3         5.2081    5.4583   -0.7494 H         1 RES1    0.0000
     21 H4         6.6586    8.8605   -3.1285 H         1 RES1    0.0000
     22 H5         4.8148    9.1087   -2.8317 H         1 RES1    0.0000
     23 H6         5.7799    8.4734   -4.3041 H         1 RES1    0.0000
     24 H7         1.2623    5.6720    0.0793 H         1 RES1    0.0000
     25 H8         0.7636    7.2461   -0.5181 H         1 RES1    0.0000
     26 H9         1.5914    7.3563    1.0474 H         1 RES1    0.0000
@<TRIPOS>BOND
     1    1    9 1
     2    2   10 1
     3    3   10 1
     4    4   12 2
     5    5    8 2
     6    6    8 2
     7    7   15 2
     8    8   13 1
     9    9   10 1
    10   10   20 1
    11   11   13 2
    12   12    2 1
    13   13    1 1
    14   14   15 1
    15   15    3 1
    16   16   12 1
    17   17    9 2
    18   18   11 1
    19   19   17 1
    20   21   14 1
    21   22   14 1
    22   23   14 1
    23   24   16 1
    24   25   16 1
    25   26   16 1
    26   11   17 1
@<TRIPOS>SUBSTRUCTURE
     1 RES1 1

@<TRIPOS>CRYSIN
   8.9260    9.5810    7.1530  90.0000 112.5000  90.0000   7 1

