# MOL2 file generated by ConQuest
# Please check atom types

@<TRIPOS>MOLECULE
SERXIX
    88    90     1
SMALL
NO_CHARGES
****
Generated from CSD

@<TRIPOS>ATOM
      1 C1        10.6956    2.1698    1.5921 C.2       1 RES1    0.0000
      2 N1        10.4238    1.4318    2.6864 N.am      1 RES1    0.0000
      3 O1        11.8106    2.2713    1.1037 O.2       1 RES1    0.0000
      4 C2         9.5240    2.8714    0.9646 C.ar      1 RES1    0.0000
      5 C3         9.3491    4.2434    1.1505 C.ar      1 RES1    0.0000
      6 C4         8.3462    4.9305    0.4822 C.ar      1 RES1    0.0000
      7 H1         8.2431    5.8546    0.6182 H         1 RES1    0.0000
      8 C5         7.4918    4.2575   -0.3892 C.ar      1 RES1    0.0000
      9 C6         7.6587    2.8758   -0.5483 C.ar      1 RES1    0.0000
     10 C7         8.6655    2.2019    0.1312 C.ar      1 RES1    0.0000
     11 H2         8.7604    1.2731    0.0185 H         1 RES1    0.0000
     12 C8         9.1239    1.3761    3.2761 C.ar      1 RES1    0.0000
     13 C9         8.3117    0.2562    3.0330 C.ar      1 RES1    0.0000
     14 C10        7.0666    0.1642    3.6315 C.ar      1 RES1    0.0000
     15 H3         6.5287   -0.5912    3.4785 H         1 RES1    0.0000
     16 C11        6.6066    1.1847    4.4567 C.ar      1 RES1    0.0000
     17 C12        7.3912    2.3331    4.6694 C.ar      1 RES1    0.0000
     18 C13        8.6529    2.3818    4.0738 C.ar      1 RES1    0.0000
     19 H4         9.1984    3.1320    4.2264 H         1 RES1    0.0000
     20 C14       11.9158    1.0671    4.6335 C.ar      1 RES1    0.0000
     21 C15       11.6219    0.3660    5.8054 C.ar      1 RES1    0.0000
     22 C16       12.1111    0.7956    7.0231 C.ar      1 RES1    0.0000
     23 H5        11.9043    0.3181    7.8060 H         1 RES1    0.0000
     24 C17       12.9064    1.9284    7.0954 C.ar      1 RES1    0.0000
     25 C18       13.2031    2.6479    5.9579 C.ar      1 RES1    0.0000
     26 H6        13.7357    3.4221    6.0012 H         1 RES1    0.0000
     27 C19       12.6961    2.2015    4.7501 C.ar      1 RES1    0.0000
     28 H7        12.8914    2.6929    3.9728 H         1 RES1    0.0000
     29 O2        10.2151    4.8127    2.0142 O.3       1 RES1    0.0000
     30 C20       10.0438    6.1916    2.3767 C.3       1 RES1    0.0000
     31 H8         9.1604    6.3268    2.7805 H         1 RES1    0.0000
     32 H9        10.1110    6.7597    1.5811 H         1 RES1    0.0000
     33 C21       11.1278    6.5496    3.3651 C.3       1 RES1    0.0000
     34 H10       12.0073    6.3761    2.9429 H         1 RES1    0.0000
     35 C22       11.0228    8.0320    3.6694 C.3       1 RES1    0.0000
     36 H11       10.1631    8.2173    4.0782 H         1 RES1    0.0000
     37 H12       11.1060    8.5383    2.8461 H         1 RES1    0.0000
     38 H13       11.7323    8.2871    4.2805 H         1 RES1    0.0000
     39 C23       11.0252    5.7097    4.6263 C.3       1 RES1    0.0000
     40 H14       10.1542    5.8405    5.0312 H         1 RES1    0.0000
     41 H15       11.7161    5.9804    5.2505 H         1 RES1    0.0000
     42 H16       11.1401    4.7735    4.4016 H         1 RES1    0.0000
     43 O3         6.5115    4.8672   -1.0686 O.3       1 RES1    0.0000
     44 C24        6.3745    6.2998   -0.9965 C.3       1 RES1    0.0000
     45 H17        7.2256    6.7280   -1.2250 H         1 RES1    0.0000
     46 H18        6.1315    6.5661   -0.0855 H         1 RES1    0.0000
     47 C25        5.3283    6.7291   -1.9401 C.3       1 RES1    0.0000
     48 C26        5.1143    8.2316   -1.8390 C.3       1 RES1    0.0000
     49 H19        5.9356    8.6908   -2.0740 H         1 RES1    0.0000
     50 H20        4.8621    8.4619   -0.9316 H         1 RES1    0.0000
     51 H21        4.4096    8.4990   -2.4486 H         1 RES1    0.0000
     52 C27        4.7932    6.0553   -2.8176 C.3       1 RES1    0.0000
     53 H22        5.3251    6.0984   -3.6281 H         1 RES1    0.0000
     54 H23        3.9047    6.4026   -2.9956 H         1 RES1    0.0000
     55 H24        4.7275    5.1333   -2.5227 H         1 RES1    0.0000
     56 N2         6.8173    2.0847   -1.4249 N.pl3     1 RES1    0.0000
     57 O4         6.8063    0.8869   -1.2777 O.2       1 RES1    0.0000
     58 O5         6.1629    2.6163   -2.2900 O.2       1 RES1    0.0000
     59 O6         8.8346   -0.6566    2.1882 O.3       1 RES1    0.0000
     60 C28        8.0251   -1.7593    1.8005 C.3       1 RES1    0.0000
     61 H25        7.8536   -2.3216    2.5726 H         1 RES1    0.0000
     62 H26        8.4845   -2.2754    1.1210 H         1 RES1    0.0000
     63 H27        7.1827   -1.4330    1.4458 H         1 RES1    0.0000
     64 O7         5.4119    1.1306    5.0857 O.3       1 RES1    0.0000
     65 C29        4.5696   -0.0001    4.8460 C.3       1 RES1    0.0000
     66 H28        4.3512   -0.0474    3.9016 H         1 RES1    0.0000
     67 H29        3.7533    0.0887    5.3631 H         1 RES1    0.0000
     68 H30        5.0328   -0.8107    5.1109 H         1 RES1    0.0000
     69 C30        6.9133    3.4716    5.4793 C.2       1 RES1    0.0000
     70 O8         5.9326    3.5324    6.1310 O.2       1 RES1    0.0000
     71 O9         7.7269    4.5135    5.3937 O.3       1 RES1    0.0000
     72 C31        7.3331    5.7071    6.0981 C.3       1 RES1    0.0000
     73 H31        6.8931    6.3156    5.4842 H         1 RES1    0.0000
     74 H32        8.1195    6.1368    6.4713 H         1 RES1    0.0000
     75 H33        6.7229    5.4737    6.8146 H         1 RES1    0.0000
     76 C32       11.4660    0.5841    3.2868 C.3       1 RES1    0.0000
     77 H34       12.2389    0.5553    2.6851 H         1 RES1    0.0000
     78 H35       11.1219   -0.3296    3.3745 H         1 RES1    0.0000
     79 O10       10.8373   -0.7457    5.6705 O.3       1 RES1    0.0000
     80 C33       10.8674   -1.6887    6.7438 C.3       1 RES1    0.0000
     81 H36       11.7874   -1.9337    6.9328 H         1 RES1    0.0000
     82 H37       10.3679   -2.4808    6.4927 H         1 RES1    0.0000
     83 H38       10.4690   -1.2923    7.5339 H         1 RES1    0.0000
     84 O11       13.3446    2.2437    8.3507 O.3       1 RES1    0.0000
     85 C34       14.3580    3.2418    8.4598 C.3       1 RES1    0.0000
     86 H39       15.1125    2.9989    7.9000 H         1 RES1    0.0000
     87 H40       14.6480    3.3090    9.3829 H         1 RES1    0.0000
     88 H41       14.0026    4.0967    8.1693 H         1 RES1    0.0000
@<TRIPOS>BOND
     1    1    2 1
     2    2   12 1
     3    3    1 2
     4    4    1 1
     5    5    4 ar
     6    6    5 ar
     7    7    6 1
     8    8    6 ar
     9    9    8 ar
    10   10    4 ar
    11   11   10 1
    12   12   13 ar
    13   13   14 ar
    14   14   15 1
    15   16   14 ar
    16   17   16 ar
    17   18   12 ar
    18   19   18 1
    19   20   21 ar
    20   21   22 ar
    21   22   23 1
    22   24   22 ar
    23   25   24 ar
    24   26   25 1
    25   27   20 ar
    26   28   27 1
    27   29    5 1
    28   30   29 1
    29   31   30 1
    30   32   30 1
    31   33   30 1
    32   34   33 1
    33   35   33 1
    34   36   35 1
    35   37   35 1
    36   38   35 1
    37   39   33 1
    38   40   39 1
    39   41   39 1
    40   42   39 1
    41   43    8 1
    42   44   43 1
    43   45   44 1
    44   46   44 1
    45   47   44 1
    46   48   47 1
    47   49   48 1
    48   50   48 1
    49   51   48 1
    50   52   47 1
    51   53   52 1
    52   54   52 1
    53   55   52 1
    54   56    9 1
    55   57   56 2
    56   58   56 2
    57   59   13 1
    58   60   59 1
    59   61   60 1
    60   62   60 1
    61   63   60 1
    62   64   16 1
    63   65   64 1
    64   66   65 1
    65   67   65 1
    66   68   65 1
    67   69   17 1
    68   70   69 2
    69   71   69 1
    70   72   71 1
    71   73   72 1
    72   74   72 1
    73   75   72 1
    74   76    2 1
    75   77   76 1
    76   78   76 1
    77   79   21 1
    78   80   79 1
    79   81   80 1
    80   82   80 1
    81   83   80 1
    82   84   24 1
    83   85   84 1
    84   86   85 1
    85   87   85 1
    86   88   85 1
    87    9   10 ar
    88   17   18 ar
    89   20   76 1
    90   25   27 ar
@<TRIPOS>SUBSTRUCTURE
     1 RES1 1

@<TRIPOS>CRYSIN
  10.9275   11.0354   14.5086  92.1930 100.3770  96.8500   2 1

