# MOL2 file generated by ConQuest
# Please check atom types

@<TRIPOS>MOLECULE
SERYOF
    40    45     1
SMALL
NO_CHARGES
****
Generated from CSD

@<TRIPOS>ATOM
      1 C1         5.9239    0.8270    2.0950 C.3       1 RES1    0.0000
      2 C2         5.1779    1.5120    0.8993 C.3       1 RES1    0.0000
      3 H1         5.4040    1.4038   -0.0485 H         1 RES1    0.0000
      4 C3         3.8051    1.1403    1.5496 C.3       1 RES1    0.0000
      5 H2         3.0366    0.7625    1.0724 H         1 RES1    0.0000
      6 C4         3.8035    2.4866    2.3337 C.3       1 RES1    0.0000
      7 C5         5.1871    2.8659    1.6827 C.3       1 RES1    0.0000
      8 H3         5.4126    3.7395    1.3001 H         1 RES1    0.0000
      9 C6         5.9337    2.1801    2.8764 C.3       1 RES1    0.0000
     10 H4         6.7041    2.5545    3.3520 H         1 RES1    0.0000
     11 C7         4.5626    1.8145    3.5272 C.3       1 RES1    0.0000
     12 H5         4.3381    1.9243    4.4743 H         1 RES1    0.0000
     13 C8         4.5470    0.4592    2.7453 C.3       1 RES1    0.0000
     14 H6         4.3189   -0.4124    3.1297 H         1 RES1    0.0000
     15 C9         7.1193   -0.0474    1.9600 C.3       1 RES1    0.0000
     16 H7         6.8954   -0.8589    1.4780 H         1 RES1    0.0000
     17 H8         7.8267    0.4135    1.4820 H         1 RES1    0.0000
     18 C10        2.7393    3.5094    2.4302 C.2       1 RES1    0.0000
     19 C11        0.7821    4.3700    1.4522 C.3       1 RES1    0.0000
     20 H9         0.1256    4.1484    0.7882 H         1 RES1    0.0000
     21 H10        1.2146    5.1929    1.2125 H         1 RES1    0.0000
     22 H11        0.3538    4.4700    2.3052 H         1 RES1    0.0000
     23 C12        8.6628   -1.0663    3.4338 C.2       1 RES1    0.0000
     24 C13        9.0116   -1.2803    4.8662 C.ar      1 RES1    0.0000
     25 C14        8.8920   -0.3062    5.8609 C.ar      1 RES1    0.0000
     26 C15        9.0824   -0.5856    7.1971 C.ar      1 RES1    0.0000
     27 H12        8.9770    0.0787    7.8398 H         1 RES1    0.0000
     28 C16        9.4319   -1.8709    7.5638 C.ar      1 RES1    0.0000
     29 H13        9.5542   -2.0784    8.4622 H         1 RES1    0.0000
     30 C17        9.6002   -2.8495    6.6042 C.ar      1 RES1    0.0000
     31 H14        9.8582   -3.7060    6.8563 H         1 RES1    0.0000
     32 C18        9.3856   -2.5574    5.2632 C.ar      1 RES1    0.0000
     33 H15        9.4939   -3.2241    4.6238 H         1 RES1    0.0000
     34 N1         8.6203    1.0889    5.4939 N.pl3     1 RES1    0.0000
     35 O1         7.5374   -0.3569    3.3150 O.3       1 RES1    0.0000
     36 O2         9.2903   -1.5150    2.5096 O.2       1 RES1    0.0000
     37 O3         9.1602    1.5369    4.4895 O.2       1 RES1    0.0000
     38 O4         7.8947    1.7452    6.2321 O.2       1 RES1    0.0000
     39 O5         2.7694    4.4554    3.1759 O.2       1 RES1    0.0000
     40 O6         1.7665    3.3118    1.5281 O.3       1 RES1    0.0000
@<TRIPOS>BOND
     1    1    2 1
     2    2    3 1
     3    4    2 1
     4    5    4 1
     5    6    4 1
     6    7    2 1
     7    8    7 1
     8    9    1 1
     9   10    9 1
    10   11    6 1
    11   12   11 1
    12   13    1 1
    13   14   13 1
    14   15    1 1
    15   16   15 1
    16   17   15 1
    17   18    6 1
    18   19   20 1
    19   21   19 1
    20   22   19 1
    21   23   24 1
    22   24   25 ar
    23   25   26 ar
    24   26   27 1
    25   28   26 ar
    26   29   28 1
    27   30   28 ar
    28   31   30 1
    29   32   24 ar
    30   33   32 1
    31   34   25 1
    32   35   15 1
    33   36   23 2
    34   37   34 2
    35   38   34 2
    36   39   18 2
    37   40   18 1
    38    4   13 1
    39    6    7 1
    40    7    9 1
    41    9   11 1
    42   11   13 1
    43   19   40 1
    44   23   35 1
    45   30   32 ar
@<TRIPOS>SUBSTRUCTURE
     1 RES1 1

@<TRIPOS>CRYSIN
   7.5474    8.4100   13.9152 102.7570  90.6820 115.3100   2 1

