# MOL2 file generated by ConQuest
# Please check atom types

@<TRIPOS>MOLECULE
SERZAS
    38    43     1
SMALL
NO_CHARGES
****
Generated from CSD

@<TRIPOS>ATOM
      1 C1         3.7530    8.9301    3.7716 C.3       1 RES1    0.0000
      2 C2         3.7522   10.4968    3.7898 C.3       1 RES1    0.0000
      3 H1         3.5904   11.0714    3.0132 H         1 RES1    0.0000
      4 C3         2.8901   10.4762    5.0909 C.3       1 RES1    0.0000
      5 H2         2.1072   11.0416    5.2609 H         1 RES1    0.0000
      6 C4         4.2115   10.4609    5.9598 C.3       1 RES1    0.0000
      7 C5         5.0599   10.4852    4.6480 C.3       1 RES1    0.0000
      8 H3         5.8442   11.0523    4.4923 H         1 RES1    0.0000
      9 C6         5.0598    8.9145    4.6330 C.3       1 RES1    0.0000
     10 H4         5.8423    8.3495    4.4644 H         1 RES1    0.0000
     11 C7         4.1949    8.8943    5.9375 C.3       1 RES1    0.0000
     12 H5         4.3535    8.3156    6.7121 H         1 RES1    0.0000
     13 C8         2.8894    8.9123    5.0778 C.3       1 RES1    0.0000
     14 H6         2.1045    8.3456    5.2289 H         1 RES1    0.0000
     15 C9         3.4968    8.0889    2.5675 C.3       1 RES1    0.0000
     16 H7         2.5890    8.2147    2.2507 H         1 RES1    0.0000
     17 H8         4.1105    8.3209    1.8534 H         1 RES1    0.0000
     18 C10        4.3793   11.3025    7.1709 C.2       1 RES1    0.0000
     19 C11        3.3768    5.7306    2.1308 C.ar      1 RES1    0.0000
     20 C12        3.5658    4.4366    2.6271 C.ar      1 RES1    0.0000
     21 H9         3.9198    4.3127    3.4783 H         1 RES1    0.0000
     22 C13        3.2290    3.3440    1.8567 C.ar      1 RES1    0.0000
     23 H10        3.3447    2.4801    2.1818 H         1 RES1    0.0000
     24 C14        2.7157    3.5576    0.5891 C.ar      1 RES1    0.0000
     25 C15        2.5408    4.8257    0.0714 C.ar      1 RES1    0.0000
     26 H11        2.2020    4.9418   -0.7865 H         1 RES1    0.0000
     27 C16        2.8772    5.9260    0.8485 C.ar      1 RES1    0.0000
     28 H12        2.7694    6.7873    0.5140 H         1 RES1    0.0000
     29 C17        5.1503   13.3780    8.0062 C.3       1 RES1    0.0000
     30 H13        5.6146   14.1647    7.7121 H         1 RES1    0.0000
     31 H14        5.6471   12.9587    8.7132 H         1 RES1    0.0000
     32 H15        4.2798   13.6223    8.3280 H         1 RES1    0.0000
     33 N1         2.2955    2.4083   -0.2035 N.pl3     1 RES1    0.0000
     34 O1         3.7021    6.7303    2.9878 O.3       1 RES1    0.0000
     35 O2         2.4129    1.2857    0.2856 O.2       1 RES1    0.0000
     36 O3         1.8395    2.6043   -1.3312 O.2       1 RES1    0.0000
     37 O4         3.9673   11.0187    8.2661 O.2       1 RES1    0.0000
     38 O5         5.0148   12.4538    6.8971 O.3       1 RES1    0.0000
@<TRIPOS>BOND
     1    1    2 1
     2    2    3 1
     3    4    2 1
     4    5    4 1
     5    6    4 1
     6    7    2 1
     7    8    7 1
     8    9    1 1
     9   10    9 1
    10   11    6 1
    11   12   11 1
    12   13    1 1
    13   14   13 1
    14   15    1 1
    15   16   15 1
    16   17   15 1
    17   18    6 1
    18   19   20 ar
    19   20   21 1
    20   22   20 ar
    21   23   22 1
    22   24   22 ar
    23   25   24 ar
    24   26   25 1
    25   27   19 ar
    26   28   27 1
    27   29   30 1
    28   31   29 1
    29   32   29 1
    30   33   24 1
    31   34   15 1
    32   35   33 2
    33   36   33 2
    34   37   18 2
    35   38   18 1
    36    4   13 1
    37    6    7 1
    38    7    9 1
    39    9   11 1
    40   11   13 1
    41   19   34 1
    42   25   27 ar
    43   29   38 1
@<TRIPOS>SUBSTRUCTURE
     1 RES1 1

@<TRIPOS>CRYSIN
   6.9852   10.5113   10.8498  68.4150  78.6500  80.1370   2 1

