# MOL2 file generated by ConQuest
# Please check atom types

@<TRIPOS>MOLECULE
SESFIH
    51    56     1
SMALL
NO_CHARGES
****
Generated from CSD

@<TRIPOS>ATOM
      1 O1         3.6662    5.5955    9.6916 O.2       1 RES1    0.0000
      2 O2         3.0543    0.9130    5.6300 O.3       1 RES1    0.0000
      3 O3         4.4414   -2.5751   -2.0998 O.3       1 RES1    0.0000
      4 H1         4.9568   -3.1545   -1.7788 H         1 RES1    0.0000
      5 N1         2.2277    4.0801    8.4910 N.am      1 RES1    0.0000
      6 N2         3.5401    0.4357    4.3455 N.2       1 RES1    0.0000
      7 C1        -0.5334    1.8431    8.6008 C.ar      1 RES1    0.0000
      8 H2        -0.9419    1.3072    7.9318 H         1 RES1    0.0000
      9 C2        -1.0142    1.8512    9.9302 C.ar      1 RES1    0.0000
     10 H3        -1.7424    1.2885   10.1652 H         1 RES1    0.0000
     11 C3        -0.4545    2.6512   10.8839 C.ar      1 RES1    0.0000
     12 H4        -0.8291    2.6728   11.7571 H         1 RES1    0.0000
     13 C4         0.6584    3.4370   10.5958 C.ar      1 RES1    0.0000
     14 H5         1.0762    3.9759   11.2579 H         1 RES1    0.0000
     15 C5         1.1334    3.3894    9.2612 C.ar      1 RES1    0.0000
     16 C6         0.4861    2.5957    8.3281 C.ar      1 RES1    0.0000
     17 C7         1.1605    2.7325    6.9695 C.2       1 RES1    0.0000
     18 C8         2.1058    3.5839    7.1582 C.2       1 RES1    0.0000
     19 C9         3.3415    4.9475    8.6540 C.2       1 RES1    0.0000
     20 C10        3.9271    5.0321    7.1685 C.ar      1 RES1    0.0000
     21 C11        4.9575    5.7568    6.7911 C.ar      1 RES1    0.0000
     22 H6         5.4256    6.2943    7.4189 H         1 RES1    0.0000
     23 C12        5.3614    5.7218    5.4171 C.ar      1 RES1    0.0000
     24 H7         6.1093    6.2318    5.1289 H         1 RES1    0.0000
     25 C13        4.6564    4.9414    4.5097 C.ar      1 RES1    0.0000
     26 H8         4.9193    4.9391    3.5971 H         1 RES1    0.0000
     27 C14        3.5845    4.1698    4.9042 C.ar      1 RES1    0.0000
     28 H9         3.1153    3.6256    4.2832 H         1 RES1    0.0000
     29 C15        3.2055    4.2190    6.2731 C.ar      1 RES1    0.0000
     30 C16        0.8801    1.9855    5.7636 C.3       1 RES1    0.0000
     31 H10        1.1541    2.5144    4.9728 H         1 RES1    0.0000
     32 H11       -0.0925    1.8139    5.6967 H         1 RES1    0.0000
     33 C17        1.6407    0.6503    5.7773 C.3       1 RES1    0.0000
     34 H12        1.4671    0.1626    6.6333 H         1 RES1    0.0000
     35 C18        1.2987   -0.2416    4.5834 C.3       1 RES1    0.0000
     36 H13        1.0833   -1.1634    4.8716 H         1 RES1    0.0000
     37 H14        0.5371    0.1251    4.0671 H         1 RES1    0.0000
     38 C19        2.5663   -0.2047    3.7806 C.2       1 RES1    0.0000
     39 C20        2.7651   -0.8169    2.4324 C.ar      1 RES1    0.0000
     40 C21        3.8975   -0.5986    1.6467 C.ar      1 RES1    0.0000
     41 H15        4.5839   -0.0292    1.9744 H         1 RES1    0.0000
     42 C22        4.0477   -1.1892    0.4031 C.ar      1 RES1    0.0000
     43 H16        4.8200   -1.0070   -0.1184 H         1 RES1    0.0000
     44 C23        3.0676   -2.0490   -0.0823 C.ar      1 RES1    0.0000
     45 C24        1.9384   -2.2890    0.6827 C.ar      1 RES1    0.0000
     46 H17        1.2580   -2.8626    0.3516 H         1 RES1    0.0000
     47 C25        1.7889   -1.6865    1.9538 C.ar      1 RES1    0.0000
     48 H18        1.0215   -1.8743    2.4821 H         1 RES1    0.0000
     49 C26        3.1680   -2.6937   -1.5027 C.3       1 RES1    0.0000
     50 H19        2.9381   -3.6548   -1.4340 H         1 RES1    0.0000
     51 H20        2.4987   -2.2663   -2.0944 H         1 RES1    0.0000
@<TRIPOS>BOND
     1    1   19 2
     2    2    6 1
     3    3    4 1
     4    5   15 1
     5    6   38 2
     6    7    8 1
     7    9    7 ar
     8   10    9 1
     9   11    9 ar
    10   12   11 1
    11   13   11 ar
    12   14   13 1
    13   15   13 ar
    14   16    7 ar
    15   17   16 1
    16   18    5 1
    17   19    5 1
    18   20   19 1
    19   21   20 ar
    20   22   21 1
    21   23   21 ar
    22   24   23 1
    23   25   23 ar
    24   26   25 1
    25   27   25 ar
    26   28   27 1
    27   29   18 1
    28   30   17 1
    29   31   30 1
    30   32   30 1
    31   33    2 1
    32   34   33 1
    33   35   33 1
    34   36   35 1
    35   37   35 1
    36   38   35 1
    37   39   38 1
    38   40   39 ar
    39   41   40 1
    40   42   40 ar
    41   43   42 1
    42   44   42 ar
    43   45   44 ar
    44   46   45 1
    45   47   39 ar
    46   48   47 1
    47   49    3 1
    48   50   49 1
    49   51   49 1
    50   15   16 ar
    51   17   18 2
    52   20   29 ar
    53   27   29 ar
    54   30   33 1
    55   44   49 1
    56   45   47 ar
@<TRIPOS>SUBSTRUCTURE
     1 RES1 1

@<TRIPOS>CRYSIN
   5.4793   20.8490   17.3610  90.0000  98.8660  90.0000  14 1

