# MOL2 file generated by ConQuest
# Please check atom types

@<TRIPOS>MOLECULE
SESSIT
    33    35     1
SMALL
NO_CHARGES
****
Generated from CSD

@<TRIPOS>ATOM
      1 O1         3.6564    0.8681    6.7186 O.3       1 RES1    0.0000
      2 O2        -0.8638    7.2010    7.5154 O.2       1 RES1    0.0000
      3 O3        -1.5543    5.8295    9.0467 O.2       1 RES1    0.0000
      4 N1        -0.9916    6.0647    7.9705 N.pl3     1 RES1    0.0000
      5 N2         1.2981    1.7708    5.2266 N.3       1 RES1    0.0000
      6 N3         1.9246    1.9519    3.9872 N.2       1 RES1    0.0000
      7 C1        -0.4655    4.9420    7.2168 C.ar      1 RES1    0.0000
      8 C2        -0.5206    3.6796    7.7631 C.ar      1 RES1    0.0000
      9 H1        -0.9351    3.5459    8.5859 H         1 RES1    0.0000
     10 C3         0.0349    2.6178    7.0959 C.ar      1 RES1    0.0000
     11 H2        -0.0186    1.7632    7.4578 H         1 RES1    0.0000
     12 C4         0.6898    2.8191    5.8574 C.ar      1 RES1    0.0000
     13 C5         0.6860    4.1026    5.2957 C.ar      1 RES1    0.0000
     14 H3         1.0650    4.2431    4.4586 H         1 RES1    0.0000
     15 C6         0.1207    5.1577    5.9803 C.ar      1 RES1    0.0000
     16 H4         0.1334    6.0122    5.6135 H         1 RES1    0.0000
     17 C7         2.3323    0.8097    3.5935 C.2       1 RES1    0.0000
     18 C8         3.0308    0.6253    2.2830 C.3       1 RES1    0.0000
     19 H5         3.1059    1.4730    1.8376 H         1 RES1    0.0000
     20 H6         2.5270    0.0195    1.7348 H         1 RES1    0.0000
     21 H7         3.9082    0.2657    2.4357 H         1 RES1    0.0000
     22 C9         2.0145   -0.3181    4.5162 C.3       1 RES1    0.0000
     23 H8         2.8078   -0.8368    4.7226 H         1 RES1    0.0000
     24 H9         1.3420   -0.9036    4.1360 H         1 RES1    0.0000
     25 C10        1.4823    0.4061    5.7633 C.3       1 RES1    0.0000
     26 H10        0.6141    0.0305    6.0187 H         1 RES1    0.0000
     27 C11        2.3992    0.3841    6.9298 C.2       1 RES1    0.0000
     28 C12        2.2796   -0.0516    8.1750 C.2       1 RES1    0.0000
     29 H11        1.5181   -0.4171    8.5638 H         1 RES1    0.0000
     30 C13        3.5461    0.1481    8.8048 C.2       1 RES1    0.0000
     31 H12        3.7773   -0.0719    9.6785 H         1 RES1    0.0000
     32 C14        4.3213    0.7056    7.8975 C.2       1 RES1    0.0000
     33 H13        5.2056    0.9561    8.0425 H         1 RES1    0.0000
@<TRIPOS>BOND
     1    1   27 1
     2    2    4 2
     3    3    4 2
     4    4    7 1
     5    5    6 1
     6    6   17 2
     7    7    8 ar
     8    8    9 1
     9   10    8 ar
    10   11   10 1
    11   12    5 1
    12   13   12 ar
    13   14   13 1
    14   15    7 ar
    15   16   15 1
    16   17   18 1
    17   18   19 1
    18   20   18 1
    19   21   18 1
    20   22   17 1
    21   23   22 1
    22   24   22 1
    23   25    5 1
    24   26   25 1
    25   27   25 1
    26   28   27 2
    27   29   28 1
    28   30   28 1
    29   31   30 1
    30   32    1 1
    31   33   32 1
    32   10   12 ar
    33   13   15 ar
    34   22   25 1
    35   30   32 2
@<TRIPOS>SUBSTRUCTURE
     1 RES1 1

@<TRIPOS>CRYSIN
   8.1504    8.4608    9.6959  90.0000  98.0360  90.0000   4 1

