# MOL2 file generated by ConQuest
# Please check atom types

@<TRIPOS>MOLECULE
SESSIV
    59    62     1
SMALL
NO_CHARGES
****
Generated from CSD

@<TRIPOS>ATOM
      1 O1         6.4263    3.4829    1.8122 O.3       1 RES1    0.0000
      2 H1         6.7356    3.8797    1.1395 H         1 RES1    0.0000
      3 O2         3.9495    1.4353    0.5774 O.2       1 RES1    0.0000
      4 O3         5.4795    0.6073    1.8642 O.2       1 RES1    0.0000
      5 O4         2.4554    3.5550    4.6610 O.2       1 RES1    0.0000
      6 O5         3.2201    3.3102    6.6633 O.2       1 RES1    0.0000
      7 N1         4.6255    1.4312    1.6094 N.pl3     1 RES1    0.0000
      8 N2         3.3755    3.4431    5.4583 N.pl3     1 RES1    0.0000
      9 C1         5.0423    3.8078    1.9621 C.3       1 RES1    0.0000
     10 H2         4.6482    3.9874    1.0606 H         1 RES1    0.0000
     11 C2         4.3652    2.5709    2.5693 C.3       1 RES1    0.0000
     12 H3         3.3799    2.7321    2.6257 H         1 RES1    0.0000
     13 C3         4.8916    2.2087    3.9547 C.3       1 RES1    0.0000
     14 H4         5.8658    2.0093    3.8510 H         1 RES1    0.0000
     15 C4         4.7814    3.4095    4.9249 C.3       1 RES1    0.0000
     16 H5         5.3783    3.2070    5.7012 H         1 RES1    0.0000
     17 C5         5.2911    4.7263    4.3059 C.3       1 RES1    0.0000
     18 H6         6.2719    4.5596    4.2027 H         1 RES1    0.0000
     19 C6         4.8371    5.0357    2.8527 C.3       1 RES1    0.0000
     20 H7         5.4852    5.7176    2.5139 H         1 RES1    0.0000
     21 C7         4.2480    0.9640    4.5640 C.ar      1 RES1    0.0000
     22 C8         3.0357    0.4481    4.1368 C.ar      1 RES1    0.0000
     23 H8         2.5799    0.8559    3.4099 H         1 RES1    0.0000
     24 C9         2.4774   -0.6684    4.7674 C.ar      1 RES1    0.0000
     25 H9         1.6518   -1.0231    4.4600 H         1 RES1    0.0000
     26 C10        3.1244   -1.2534    5.8338 C.ar      1 RES1    0.0000
     27 H10        2.7429   -2.0078    6.2664 H         1 RES1    0.0000
     28 C11        4.3188   -0.7428    6.2683 C.ar      1 RES1    0.0000
     29 H11        4.7585   -1.1411    7.0101 H         1 RES1    0.0000
     30 C12        4.8928    0.3524    5.6337 C.ar      1 RES1    0.0000
     31 H12        5.7311    0.6853    5.9325 H         1 RES1    0.0000
     32 C13        5.2482    5.9662    5.1840 C.ar      1 RES1    0.0000
     33 C14        4.2040    6.3220    6.0174 C.ar      1 RES1    0.0000
     34 H13        3.4638    5.7336    6.1120 H         1 RES1    0.0000
     35 C15        4.2150    7.5215    6.7201 C.ar      1 RES1    0.0000
     36 H14        3.4842    7.7445    7.2847 H         1 RES1    0.0000
     37 C16        5.2737    8.3849    6.6028 C.ar      1 RES1    0.0000
     38 H15        5.2832    9.2048    7.0821 H         1 RES1    0.0000
     39 C17        6.3196    8.0449    5.7824 C.ar      1 RES1    0.0000
     40 H16        7.0550    8.6386    5.6870 H         1 RES1    0.0000
     41 C18        6.3126    6.8467    5.0928 C.ar      1 RES1    0.0000
     42 H17        7.0550    6.6224    4.5442 H         1 RES1    0.0000
     43 C19        3.4509    5.6730    2.6749 C.3       1 RES1    0.0000
     44 H18        3.2173    6.1767    3.4945 H         1 RES1    0.0000
     45 H19        2.7771    4.9574    2.5556 H         1 RES1    0.0000
     46 C20        3.3969    6.6220    1.4674 C.3       1 RES1    0.0000
     47 H20        3.6571    6.1224    0.6534 H         1 RES1    0.0000
     48 H21        2.4659    6.9353    1.3454 H         1 RES1    0.0000
     49 C21        4.3020    7.8198    1.6182 C.ar      1 RES1    0.0000
     50 C22        4.0028    8.8339    2.5177 C.ar      1 RES1    0.0000
     51 H22        3.2125    8.7759    3.0413 H         1 RES1    0.0000
     52 C23        4.8383    9.9295    2.6642 C.ar      1 RES1    0.0000
     53 H23        4.6170   10.6157    3.2833 H         1 RES1    0.0000
     54 C24        5.9955   10.0270    1.9086 C.ar      1 RES1    0.0000
     55 H24        6.5668   10.7801    2.0042 H         1 RES1    0.0000
     56 C25        6.3126    9.0263    1.0189 C.ar      1 RES1    0.0000
     57 H25        7.1110    9.0817    0.5066 H         1 RES1    0.0000
     58 C26        5.4650    7.9335    0.8693 C.ar      1 RES1    0.0000
     59 H26        5.6855    7.2534    0.2436 H         1 RES1    0.0000
@<TRIPOS>BOND
     1    1    2 1
     2    3    7 2
     3    4    7 2
     4    5    8 2
     5    6    8 2
     6    7   11 1
     7    8   15 1
     8    9    1 1
     9   10    9 1
    10   11    9 1
    11   12   11 1
    12   13   11 1
    13   14   13 1
    14   15   13 1
    15   16   15 1
    16   17   15 1
    17   18   17 1
    18   19    9 1
    19   20   19 1
    20   21   13 1
    21   22   21 ar
    22   23   22 1
    23   24   22 ar
    24   25   24 1
    25   26   24 ar
    26   27   26 1
    27   28   26 ar
    28   29   28 1
    29   30   21 ar
    30   31   30 1
    31   32   17 1
    32   33   32 ar
    33   34   33 1
    34   35   33 ar
    35   36   35 1
    36   37   35 ar
    37   38   37 1
    38   39   37 ar
    39   40   39 1
    40   41   32 ar
    41   42   41 1
    42   43   19 1
    43   44   43 1
    44   45   43 1
    45   46   43 1
    46   47   46 1
    47   48   46 1
    48   49   46 1
    49   50   49 ar
    50   51   50 1
    51   52   50 ar
    52   53   52 1
    53   54   52 ar
    54   55   54 1
    55   56   54 ar
    56   57   56 1
    57   58   49 ar
    58   59   58 1
    59   17   19 1
    60   28   30 ar
    61   39   41 ar
    62   56   58 ar
@<TRIPOS>SUBSTRUCTURE
     1 RES1 1

@<TRIPOS>CRYSIN
   5.7978   12.8288   30.4065  90.0000  90.0000  90.0000  19 1

