# MOL2 file generated by ConQuest
# Please check atom types

@<TRIPOS>MOLECULE
SESVIW
    57    62     1
SMALL
NO_CHARGES
****
Generated from CSD

@<TRIPOS>ATOM
      1 O1        14.9442    8.0104    6.4872 O.2       1 RES1    0.0000
      2 O2        14.0212    5.4653    1.7331 O.2       1 RES1    0.0000
      3 O3        21.0721    8.3749    3.2787 O.2       1 RES1    0.0000
      4 O4        20.0740    8.8661    1.4383 O.2       1 RES1    0.0000
      5 N1        15.4618    3.3593    5.7319 N.3       1 RES1    0.0000
      6 N2        20.0780    8.3758    2.5595 N.pl3     1 RES1    0.0000
      7 C1        15.3764    4.4839    6.5710 C.2       1 RES1    0.0000
      8 C2        15.2265    5.7299    6.0575 C.2       1 RES1    0.0000
      9 C3        15.2328    6.0205    4.5685 C.3       1 RES1    0.0000
     10 H1        14.5030    6.6791    4.3843 H         1 RES1    0.0000
     11 C4        14.8833    4.7412    3.8682 C.2       1 RES1    0.0000
     12 C5        15.0442    3.5195    4.4282 C.2       1 RES1    0.0000
     13 C6        15.0132    6.8698    6.9430 C.2       1 RES1    0.0000
     14 C7        14.8567    6.6107    8.4127 C.3       1 RES1    0.0000
     15 H2        13.8998    6.4443    8.6076 H         1 RES1    0.0000
     16 H3        15.1260    7.4231    8.9110 H         1 RES1    0.0000
     17 C8        15.6725    5.4303    8.9196 C.3       1 RES1    0.0000
     18 C9        15.3348    4.2149    8.0531 C.3       1 RES1    0.0000
     19 H4        15.9731    3.4880    8.2622 H         1 RES1    0.0000
     20 H5        14.4295    3.8955    8.2924 H         1 RES1    0.0000
     21 C10       14.3380    4.5829    2.5279 C.2       1 RES1    0.0000
     22 C11       14.2130    3.1110    2.3060 C.ar      1 RES1    0.0000
     23 C12       13.7457    2.4273    1.2090 C.ar      1 RES1    0.0000
     24 H6        13.5209    2.8861    0.4074 H         1 RES1    0.0000
     25 C13       13.6101    1.0427    1.3035 C.ar      1 RES1    0.0000
     26 H7        13.2851    0.5470    0.5600 H         1 RES1    0.0000
     27 C14       13.9442    0.3923    2.4651 C.ar      1 RES1    0.0000
     28 H8        13.8134   -0.5470    2.5233 H         1 RES1    0.0000
     29 C15       14.4740    1.0796    3.5693 C.ar      1 RES1    0.0000
     30 H9        14.7278    0.6145    4.3574 H         1 RES1    0.0000
     31 C16       14.6158    2.4489    3.4761 C.ar      1 RES1    0.0000
     32 C17       16.5383    6.6152    4.0456 C.ar      1 RES1    0.0000
     33 C18       17.7044    6.6179    4.7989 C.ar      1 RES1    0.0000
     34 H10       17.7021    6.2265    5.6652 H         1 RES1    0.0000
     35 C19       18.8686    7.1802    4.3118 C.ar      1 RES1    0.0000
     36 H11       19.6647    7.1748    4.8319 H         1 RES1    0.0000
     37 C20       18.8530    7.7488    3.0571 C.ar      1 RES1    0.0000
     38 C21       17.7273    7.7425    2.2661 C.ar      1 RES1    0.0000
     39 H12       17.7430    8.1221    1.3949 H         1 RES1    0.0000
     40 C22       16.5776    7.1730    2.7680 C.ar      1 RES1    0.0000
     41 H13       15.7937    7.1604    2.2315 H         1 RES1    0.0000
     42 C23       17.1730    5.7317    8.8518 C.3       1 RES1    0.0000
     43 H14       17.4394    5.8613    7.9168 H         1 RES1    0.0000
     44 H15       17.6750    4.9805    9.2329 H         1 RES1    0.0000
     45 H16       17.3666    6.5459    9.3620 H         1 RES1    0.0000
     46 C24       15.2913    5.1281   10.3708 C.3       1 RES1    0.0000
     47 H17       15.4698    5.9153   10.9263 H         1 RES1    0.0000
     48 H18       15.8210    4.3714   10.6966 H         1 RES1    0.0000
     49 H19       14.3388    4.9049   10.4183 H         1 RES1    0.0000
     50 C25       15.8933    2.0584    6.2173 C.3       1 RES1    0.0000
     51 H20       15.1836    1.4637    6.5940 H         1 RES1    0.0000
     52 C26       17.0023    1.3855    5.4772 C.3       1 RES1    0.0000
     53 H21       17.3932    1.8605    4.7011 H         1 RES1    0.0000
     54 H22       16.9645    0.4003    5.3885 H         1 RES1    0.0000
     55 C27       17.2551    1.9523    6.8371 C.3       1 RES1    0.0000
     56 H23       17.7988    2.7764    6.8991 H         1 RES1    0.0000
     57 H24       17.3730    1.3171    7.5865 H         1 RES1    0.0000
@<TRIPOS>BOND
     1    1   13 2
     2    2   21 2
     3    3    6 2
     4    4    6 2
     5    5    7 1
     6    6   37 1
     7    7    8 2
     8    8    9 1
     9    9   10 1
    10   11    9 1
    11   12    5 1
    12   13    8 1
    13   14   13 1
    14   15   14 1
    15   16   14 1
    16   17   14 1
    17   18    7 1
    18   19   18 1
    19   20   18 1
    20   21   11 1
    21   22   21 1
    22   23   22 ar
    23   24   23 1
    24   25   23 ar
    25   26   25 1
    26   27   25 ar
    27   28   27 1
    28   29   27 ar
    29   30   29 1
    30   31   12 1
    31   32    9 1
    32   33   32 ar
    33   34   33 1
    34   35   33 ar
    35   36   35 1
    36   37   35 ar
    37   38   37 ar
    38   39   38 1
    39   40   32 ar
    40   41   40 1
    41   42   17 1
    42   43   42 1
    43   44   42 1
    44   45   42 1
    45   46   17 1
    46   47   46 1
    47   48   46 1
    48   49   46 1
    49   50    5 1
    50   51   50 1
    51   52   50 1
    52   53   52 1
    53   54   52 1
    54   55   50 1
    55   56   55 1
    56   57   55 1
    57   11   12 2
    58   17   18 1
    59   22   31 ar
    60   29   31 ar
    61   38   40 ar
    62   52   55 1
@<TRIPOS>SUBSTRUCTURE
     1 RES1 1

@<TRIPOS>CRYSIN
  28.7680    8.9966   17.7030  90.0000 108.7270  90.0000  15 1

