# MOL2 file generated by ConQuest
# Please check atom types

@<TRIPOS>MOLECULE
SETHEF
    55    58     1
SMALL
NO_CHARGES
****
Generated from CSD

@<TRIPOS>ATOM
      1 O1         1.1077   14.2364    4.2283 O.3       1 RES1    0.0000
      2 O2         3.9786   12.5027   -1.3787 O.3       1 RES1    0.0000
      3 O3         5.5454    8.7453   -0.9152 O.3       1 RES1    0.0000
      4 O4         6.1989    5.9746    1.1346 O.2       1 RES1    0.0000
      5 N1         3.3395   12.9358   -0.2095 N.2       1 RES1    0.0000
      6 N2         4.0559   10.8156    0.0335 N.2       1 RES1    0.0000
      7 N3         4.8904    7.8150    1.3597 N.am      1 RES1    0.0000
      8 H1         4.6787    8.5751    1.0169 H         1 RES1    0.0000
      9 C1         0.9384   15.3850    3.4162 C.3       1 RES1    0.0000
     10 H2         0.4885   16.0691    3.9194 H         1 RES1    0.0000
     11 H3         0.4142   15.1585    2.6451 H         1 RES1    0.0000
     12 H4         1.7980   15.7089    3.1353 H         1 RES1    0.0000
     13 C2         1.7468   13.1556    3.6854 C.ar      1 RES1    0.0000
     14 C3         1.9314   12.0807    4.5330 C.ar      1 RES1    0.0000
     15 H5         1.6233   12.1296    5.4100 H         1 RES1    0.0000
     16 C4         2.5603   10.9513    4.1004 C.ar      1 RES1    0.0000
     17 H6         2.6623   10.2269    4.6753 H         1 RES1    0.0000
     18 C5         3.0474   10.8800    2.8049 C.ar      1 RES1    0.0000
     19 H7         3.4924   10.1174    2.5146 H         1 RES1    0.0000
     20 C6         2.8715   11.9448    1.9526 C.ar      1 RES1    0.0000
     21 C7         2.2066   13.0892    2.3935 C.ar      1 RES1    0.0000
     22 H8         2.0769   13.8064    1.8151 H         1 RES1    0.0000
     23 C8         3.4157   11.9091    0.5819 C.2       1 RES1    0.0000
     24 C9         4.3694   11.2336   -1.1556 C.2       1 RES1    0.0000
     25 C10        5.0527   10.5807   -2.2642 C.ar      1 RES1    0.0000
     26 C11        5.1292   11.2125   -3.5056 C.ar      1 RES1    0.0000
     27 H9         4.7412   12.0501   -3.6161 H         1 RES1    0.0000
     28 C12        5.7655   10.6185   -4.5671 C.ar      1 RES1    0.0000
     29 H10        5.7983   11.0509   -5.3900 H         1 RES1    0.0000
     30 C13        6.3501    9.3948   -4.4155 C.ar      1 RES1    0.0000
     31 H11        6.7904    9.0028   -5.1349 H         1 RES1    0.0000
     32 C14        6.2963    8.7382   -3.2140 C.ar      1 RES1    0.0000
     33 H12        6.6930    7.9019   -3.1223 H         1 RES1    0.0000
     34 C15        5.6505    9.3212   -2.1372 C.ar      1 RES1    0.0000
     35 C16        6.2021    7.5226   -0.6524 C.3       1 RES1    0.0000
     36 H13        7.1632    7.6533   -0.6630 H         1 RES1    0.0000
     37 H14        5.9745    6.8706   -1.3331 H         1 RES1    0.0000
     38 C17        5.7630    7.0309    0.7030 C.2       1 RES1    0.0000
     39 C18        2.0525    7.3728    1.4354 C.3       1 RES1    0.0000
     40 H15        2.5907    7.6410    0.6865 H         1 RES1    0.0000
     41 H16        1.3867    8.0431    1.6070 H         1 RES1    0.0000
     42 H17        1.6217    6.5376    1.2367 H         1 RES1    0.0000
     43 C19        6.5953    7.6268    3.6901 C.3       1 RES1    0.0000
     44 H18        6.8426    7.8761    2.7967 H         1 RES1    0.0000
     45 H19        7.0883    6.8456    3.9523 H         1 RES1    0.0000
     46 H20        6.7944    8.3482    4.2909 H         1 RES1    0.0000
     47 C20        4.3022    7.4371    2.6063 C.ar      1 RES1    0.0000
     48 C21        5.1128    7.3264    3.7372 C.ar      1 RES1    0.0000
     49 C22        4.5153    6.9328    4.9210 C.ar      1 RES1    0.0000
     50 H21        5.0391    6.8319    5.6828 H         1 RES1    0.0000
     51 C23        3.1728    6.6928    4.9962 C.ar      1 RES1    0.0000
     52 H22        2.7925    6.4302    5.8027 H         1 RES1    0.0000
     53 C24        2.3837    6.8373    3.8771 C.ar      1 RES1    0.0000
     54 H23        1.4691    6.6834    3.9429 H         1 RES1    0.0000
     55 C25        2.9273    7.2097    2.6509 C.ar      1 RES1    0.0000
@<TRIPOS>BOND
     1    1    9 1
     2    2    5 1
     3    3   34 1
     4    4   38 2
     5    5   23 2
     6    6   23 1
     7    7    8 1
     8    9   10 1
     9   11    9 1
    10   12    9 1
    11   13    1 1
    12   14   13 ar
    13   15   14 1
    14   16   14 ar
    15   17   16 1
    16   18   16 ar
    17   19   18 1
    18   20   18 ar
    19   21   13 ar
    20   22   21 1
    21   23   20 1
    22   24    2 1
    23   25   24 1
    24   26   25 ar
    25   27   26 1
    26   28   26 ar
    27   29   28 1
    28   30   28 ar
    29   31   30 1
    30   32   30 ar
    31   33   32 1
    32   34   25 ar
    33   35    3 1
    34   36   35 1
    35   37   35 1
    36   38    7 1
    37   39   40 1
    38   41   39 1
    39   42   39 1
    40   43   44 1
    41   45   43 1
    42   46   43 1
    43   47    7 1
    44   48   43 1
    45   49   48 ar
    46   50   49 1
    47   51   49 ar
    48   52   51 1
    49   53   51 ar
    50   54   53 1
    51   55   39 1
    52    6   24 2
    53   20   21 ar
    54   32   34 ar
    55   35   38 1
    56   47   48 ar
    57   47   55 ar
    58   53   55 ar
@<TRIPOS>SUBSTRUCTURE
     1 RES1 1

@<TRIPOS>CRYSIN
   8.0360   11.6920   12.7800  66.9300  85.5600  81.1800   2 1

