# MOL2 file generated by ConQuest
# Please check atom types

@<TRIPOS>MOLECULE
SETPOW
    48    50     1
SMALL
NO_CHARGES
****
Generated from CSD

@<TRIPOS>ATOM
      1 O1         1.4945   -1.4341   11.4949 O.3       1 RES1    0.0000
      2 O2         2.4166   -4.3836    9.1945 O.2       1 RES1    0.0000
      3 O3         1.6813   -6.3698    8.8613 O.2       1 RES1    0.0000
      4 O4        -2.3797   -7.2732    6.7054 O.2       1 RES1    0.0000
      5 O5        -3.6675   -5.6675    6.0292 O.2       1 RES1    0.0000
      6 N1         0.6872   -0.9576    8.3811 N.2       1 RES1    0.0000
      7 N2         1.0390   -2.2979    8.4473 N.3       1 RES1    0.0000
      8 N3         1.5625   -5.1525    8.7608 N.pl3     1 RES1    0.0000
      9 N4        -2.6463   -6.0853    6.5633 N.pl3     1 RES1    0.0000
     10 C1         1.3631    1.8587   10.3092 C.3       1 RES1    0.0000
     11 C2         1.1162    1.3302    8.8833 C.3       1 RES1    0.0000
     12 C3         1.5347   -0.1197    8.8613 C.2       1 RES1    0.0000
     13 C4         2.8800   -0.4155    9.4860 C.3       1 RES1    0.0000
     14 C5         3.0028    0.2891   10.8433 C.3       1 RES1    0.0000
     15 C6         1.8265   -0.0700   11.7767 C.3       1 RES1    0.0000
     16 C7         0.7070    0.9180   11.3504 C.3       1 RES1    0.0000
     17 C8         2.8180    1.7909   10.6522 C.3       1 RES1    0.0000
     18 C9        -0.2977    1.5696    8.3909 C.3       1 RES1    0.0000
     19 C10        2.1988    0.0813   13.2466 C.3       1 RES1    0.0000
     20 C11        0.3664   -1.9738   12.1515 C.3       1 RES1    0.0000
     21 C12        0.1710   -3.2182    7.9891 C.ar      1 RES1    0.0000
     22 C13        0.3835   -4.6150    8.1043 C.ar      1 RES1    0.0000
     23 C14       -0.5287   -5.5410    7.6265 C.ar      1 RES1    0.0000
     24 C15       -1.6707   -5.0972    7.0435 C.ar      1 RES1    0.0000
     25 C16       -1.9480   -3.7354    6.8989 C.ar      1 RES1    0.0000
     26 C17       -1.0377   -2.8275    7.3521 C.ar      1 RES1    0.0000
     27 H1         0.9769    2.7665   10.3631 H         1 RES1    0.0000
     28 H2         1.8681   -2.5520    8.7951 H         1 RES1    0.0000
     29 H3         1.6569    1.8293    8.2562 H         1 RES1    0.0000
     30 H4         3.5843   -0.1016    8.8931 H         1 RES1    0.0000
     31 H5         2.9638   -1.3889    9.6281 H         1 RES1    0.0000
     32 H6         3.8682    0.0226   11.2205 H         1 RES1    0.0000
     33 H7        -0.0462    0.4404   10.9511 H         1 RES1    0.0000
     34 H8         0.3895    1.4341   12.1270 H         1 RES1    0.0000
     35 H9         3.0431    2.2923   11.4655 H         1 RES1    0.0000
     36 H10        3.3731    2.1229    9.8976 H         1 RES1    0.0000
     37 H11       -0.5017    2.5294    8.4277 H         1 RES1    0.0000
     38 H12       -0.3763    1.2647    7.4477 H         1 RES1    0.0000
     39 H13       -0.9373    1.0727    8.9421 H         1 RES1    0.0000
     40 H14        2.9110   -0.6098   13.4500 H         1 RES1    0.0000
     41 H15        2.5480    0.9598   13.4255 H         1 RES1    0.0000
     42 H16        1.4258   -0.1242   13.8174 H         1 RES1    0.0000
     43 H17        0.2574   -2.9020   11.8820 H         1 RES1    0.0000
     44 H18        0.5281   -1.9196   13.1315 H         1 RES1    0.0000
     45 H19       -0.4159   -1.4454   11.9310 H         1 RES1    0.0000
     46 H20       -0.3367   -6.4929    7.6927 H         1 RES1    0.0000
     47 H21       -2.7790   -3.4441    6.4677 H         1 RES1    0.0000
     48 H22       -1.2212   -1.8632    7.2272 H         1 RES1    0.0000
@<TRIPOS>BOND
     1    1   15 1
     2    2    8 2
     3    3    8 2
     4    4    9 2
     5    5    9 2
     6    6    7 1
     7    7   21 1
     8    8   22 1
     9    9   24 1
    10   10   11 1
    11   11   12 1
    12   12    6 2
    13   13   12 1
    14   14   13 1
    15   15   14 1
    16   16   10 1
    17   17   10 1
    18   18   11 1
    19   19   15 1
    20   20    1 1
    21   21   22 ar
    22   22   23 ar
    23   23   24 ar
    24   24   25 ar
    25   25   26 ar
    26   26   21 ar
    27   27   10 1
    28   28    7 1
    29   29   11 1
    30   30   13 1
    31   31   13 1
    32   32   14 1
    33   33   16 1
    34   34   16 1
    35   35   17 1
    36   36   17 1
    37   37   18 1
    38   38   18 1
    39   39   18 1
    40   40   19 1
    41   41   19 1
    42   42   19 1
    43   43   20 1
    44   44   20 1
    45   45   20 1
    46   46   23 1
    47   47   25 1
    48   48   26 1
    49   14   17 1
    50   15   16 1
@<TRIPOS>SUBSTRUCTURE
     1 RES1 1

@<TRIPOS>CRYSIN
   6.6010   11.2920   24.4990  90.0000  90.0000  90.0000  19 1

