# MOL2 file generated by ConQuest
# Please check atom types

@<TRIPOS>MOLECULE
SEVGOP
    31    33     1
SMALL
NO_CHARGES
****
Generated from CSD

@<TRIPOS>ATOM
      1 O1         0.7048    0.8947    2.8517 O.3       1 RES1    0.0000
      2 O2        -0.7332    1.9071    4.1225 O.2       1 RES1    0.0000
      3 O3         1.1121    1.2063    5.0376 O.2       1 RES1    0.0000
      4 O4         3.3042   -3.0072    2.9316 O.2       1 RES1    0.0000
      5 O5         4.0933   -1.2250    3.8067 O.2       1 RES1    0.0000
      6 N1         0.3439    1.3715    4.1301 N.pl3     1 RES1    0.0000
      7 N2         3.1791   -1.8842    3.3235 N.pl3     1 RES1    0.0000
      8 C1        -0.0360   -2.9024    2.9563 C.ar      1 RES1    0.0000
      9 C2        -0.9482   -3.5673    2.1440 C.ar      1 RES1    0.0000
     10 C3        -0.9501   -3.3217    0.7781 C.ar      1 RES1    0.0000
     11 C4        -0.0673   -2.4141    0.2245 C.ar      1 RES1    0.0000
     12 C5         0.8431   -1.7176    1.0235 C.ar      1 RES1    0.0000
     13 C6         1.7781   -0.7066    0.4661 C.ar      1 RES1    0.0000
     14 C7         2.0916   -0.6376   -0.8903 C.ar      1 RES1    0.0000
     15 C8         2.9679    0.3217   -1.3754 C.ar      1 RES1    0.0000
     16 C9         3.5514    1.2307   -0.5098 C.ar      1 RES1    0.0000
     17 C10        3.2454    1.1862    0.8428 C.ar      1 RES1    0.0000
     18 C11        2.3673    0.2269    1.3317 C.ar      1 RES1    0.0000
     19 C12        2.0092    0.2068    2.7927 C.3       1 RES1    0.0000
     20 C13        1.7923   -1.2178    3.2912 C.3       1 RES1    0.0000
     21 C14        0.8440   -1.9804    2.4008 C.ar      1 RES1    0.0000
     22 H1        -0.0142   -3.0790    3.8999 H         1 RES1    0.0000
     23 H2        -1.5716   -4.1905    2.5264 H         1 RES1    0.0000
     24 H3        -1.5716   -3.7884    0.2131 H         1 RES1    0.0000
     25 H4        -0.0796   -2.2604   -0.7229 H         1 RES1    0.0000
     26 H5         1.6938   -1.2638   -1.4991 H         1 RES1    0.0000
     27 H6         3.1706    0.3547   -2.3133 H         1 RES1    0.0000
     28 H7         4.1653    1.8899   -0.8428 H         1 RES1    0.0000
     29 H8         3.6414    1.8224    1.4439 H         1 RES1    0.0000
     30 H9         2.7017    0.6060    3.3235 H         1 RES1    0.0000
     31 H10        1.3887   -1.2149    4.1625 H         1 RES1    0.0000
@<TRIPOS>BOND
     1    1    6 1
     2    2    6 2
     3    3    6 2
     4    4    7 2
     5    5    7 2
     6    7   20 1
     7    8    9 ar
     8    9   10 ar
     9   10   11 ar
    10   11   12 ar
    11   12   13 1
    12   13   14 ar
    13   14   15 ar
    14   15   16 ar
    15   16   17 ar
    16   17   18 ar
    17   18   13 ar
    18   19    1 1
    19   20   19 1
    20   21    8 ar
    21   22    8 1
    22   23    9 1
    23   24   10 1
    24   25   11 1
    25   26   14 1
    26   27   15 1
    27   28   16 1
    28   29   17 1
    29   30   19 1
    30   31   20 1
    31   12   21 ar
    32   18   19 1
    33   20   21 1
@<TRIPOS>SUBSTRUCTURE
     1 RES1 1

@<TRIPOS>CRYSIN
   9.4730   14.3610   19.0240  90.0000  90.0000  90.0000  61 1

