# MOL2 file generated by ConQuest
# Please check atom types

@<TRIPOS>MOLECULE
SEVTIY
    34    35     1
SMALL
NO_CHARGES
****
Generated from CSD

@<TRIPOS>ATOM
      1 N1         1.6918    3.4184    8.2291 N.3       1 RES1    0.0000
      2 N2         2.0097    2.5475    9.1899 N.2       1 RES1    0.0000
      3 C1         3.1635    3.0056    9.6687 C.2       1 RES1    0.0000
      4 C2         3.6258    4.1573    9.0509 C.2       1 RES1    0.0000
      5 H1         4.4140    4.6581    9.2263 H         1 RES1    0.0000
      6 C3         2.6463    4.3805    8.1230 C.2       1 RES1    0.0000
      7 C4         0.4710    3.1701    7.4013 C.3       1 RES1    0.0000
      8 H2        -0.1339    3.9522    7.4590 H         1 RES1    0.0000
      9 H3         0.7306    3.0508    6.4541 H         1 RES1    0.0000
     10 N3        -0.2104    2.0034    7.8609 N.pl3     1 RES1    0.0000
     11 C5        -0.1766    0.7036    7.2268 C.3       1 RES1    0.0000
     12 H4         0.1980    0.8007    6.3155 H         1 RES1    0.0000
     13 H5        -1.1021    0.3653    7.1374 H         1 RES1    0.0000
     14 N4         0.6218   -0.2819    7.9688 N.pl3     1 RES1    0.0000
     15 N5        -0.0368   -1.2181    8.6734 N.2       1 RES1    0.0000
     16 C6         0.9298   -1.9155    9.2528 C.2       1 RES1    0.0000
     17 C7         2.2173   -1.4794    8.9660 C.2       1 RES1    0.0000
     18 H6         3.0497   -1.8206    9.2718 H         1 RES1    0.0000
     19 C8         1.9703   -0.4318    8.1283 C.2       1 RES1    0.0000
     20 N6         3.8147    2.2841   10.7425 N.pl3     1 RES1    0.0000
     21 O1         3.3337    1.2228   11.1083 O.2       1 RES1    0.0000
     22 O2         4.8200    2.8028   11.2064 O.2       1 RES1    0.0000
     23 N7         2.5676    5.4560    7.1743 N.pl3     1 RES1    0.0000
     24 O3         3.5023    6.2354    7.1341 O.2       1 RES1    0.0000
     25 O4         1.5595    5.5262    6.4832 O.2       1 RES1    0.0000
     26 N8        -0.9777    2.1427    9.0000 N.pl3     1 RES1    0.0000
     27 O5        -0.8975    3.2218    9.5802 O.2       1 RES1    0.0000
     28 O6        -1.6524    1.1922    9.3439 O.2       1 RES1    0.0000
     29 N9         0.5826   -3.0292   10.1099 N.pl3     1 RES1    0.0000
     30 O7        -0.5937   -3.2401   10.3680 O.2       1 RES1    0.0000
     31 O8         1.5246   -3.6890   10.5334 O.2       1 RES1    0.0000
     32 N10        2.9487    0.3841    7.4660 N.pl3     1 RES1    0.0000
     33 O9         4.1126    0.1684    7.7528 O.2       1 RES1    0.0000
     34 O10        2.5678    1.2342    6.6682 O.2       1 RES1    0.0000
@<TRIPOS>BOND
     1    1    2 1
     2    2    3 2
     3    3    4 1
     4    4    5 1
     5    6    1 1
     6    7    1 1
     7    8    7 1
     8    9    7 1
     9   10    7 1
    10   11   10 1
    11   12   11 1
    12   13   11 1
    13   14   11 1
    14   15   14 1
    15   16   15 2
    16   17   16 1
    17   18   17 1
    18   19   14 1
    19   20    3 1
    20   21   20 2
    21   22   20 2
    22   23    6 1
    23   24   23 2
    24   25   23 2
    25   26   10 1
    26   27   26 2
    27   28   26 2
    28   29   16 1
    29   30   29 2
    30   31   29 2
    31   32   19 1
    32   33   32 2
    33   34   32 2
    34    4    6 2
    35   17   19 2
@<TRIPOS>SUBSTRUCTURE
     1 RES1 1

@<TRIPOS>CRYSIN
  13.9710    9.8731   11.0431  90.0000 101.3000  90.0000  14 1

