# MOL2 file generated by ConQuest
# Please check atom types

@<TRIPOS>MOLECULE
SEYMIS
    45    47     1
SMALL
NO_CHARGES
****
Generated from CSD

@<TRIPOS>ATOM
      1 O1         0.6432    3.7156    6.4922 O.3       1 RES1    0.0000
      2 N1         2.0444    3.6199    6.3799 N.2       1 RES1    0.0000
      3 C1         2.3260    3.8971    5.1242 C.2       1 RES1    0.0000
      4 C2         1.1439    4.1550    4.3862 C.2       1 RES1    0.0000
      5 C3         0.9985    4.5393    2.9454 C.2       1 RES1    0.0000
      6 N2         1.7256    5.6045    2.5907 N.am      1 RES1    0.0000
      7 C4         1.7814    6.1538    1.2888 C.2       1 RES1    0.0000
      8 C5         1.2057    5.6773    0.1234 C.2       1 RES1    0.0000
      9 C6         2.5193    7.2983    0.9517 C.2       1 RES1    0.0000
     10 C7         0.1295    4.0299    5.2784 C.2       1 RES1    0.0000
     11 C8        -1.3444    4.1407    5.1881 C.3       1 RES1    0.0000
     12 C9         3.7406    3.8599    4.6770 C.ar      1 RES1    0.0000
     13 C10        6.0790    4.1064    5.1594 C.ar      1 RES1    0.0000
     14 O2         3.5413    9.4829   -0.5023 O.3       1 RES1    0.0000
     15 C11        1.0983    6.3167   -2.2603 C.3       1 RES1    0.0000
     16 N3         1.5424    6.5139   -0.8658 N.pl3     1 RES1    0.0000
     17 C12        2.3264    7.5133   -0.3679 C.2       1 RES1    0.0000
     18 C13        4.7633    4.1678    5.5582 C.ar      1 RES1    0.0000
     19 C14        6.4039    3.7120    3.8883 C.ar      1 RES1    0.0000
     20 C15        5.4047    3.3998    2.9983 C.ar      1 RES1    0.0000
     21 C16        4.0663    3.4484    3.3882 C.ar      1 RES1    0.0000
     22 C17        2.8653    8.5921   -1.2161 C.2       1 RES1    0.0000
     23 C18        4.0036   10.6567   -1.2557 C.3       1 RES1    0.0000
     24 C19        4.9547   11.0939   -0.9759 C.3       1 RES1    0.0000
     25 O3         2.7021    8.6871   -2.4123 O.2       1 RES1    0.0000
     26 O4         0.2487    3.9321    2.2030 O.2       1 RES1    0.0000
     27 H1         2.3318    6.2074    3.0269 H         1 RES1    0.0000
     28 H2         0.6837    4.8744    0.1762 H         1 RES1    0.0000
     29 H3         3.0113    7.7470    1.6434 H         1 RES1    0.0000
     30 H4        -1.5957    4.3507    4.2870 H         1 RES1    0.0000
     31 H5        -1.6498    4.8372    5.7741 H         1 RES1    0.0000
     32 H6        -1.7440    3.3070    5.4458 H         1 RES1    0.0000
     33 H7         6.7773    4.3414    5.7763 H         1 RES1    0.0000
     34 H8         1.4613    7.0133   -2.8132 H         1 RES1    0.0000
     35 H9         0.1398    6.3439   -2.2977 H         1 RES1    0.0000
     36 H10        1.4079    5.4644   -2.5753 H         1 RES1    0.0000
     37 H11        4.5526    4.4271    6.4592 H         1 RES1    0.0000
     38 H12        7.3215    3.6549    3.6217 H         1 RES1    0.0000
     39 H13        5.6303    3.1455    2.0995 H         1 RES1    0.0000
     40 H14        3.3725    3.1998    2.7714 H         1 RES1    0.0000
     41 H15        3.3717   11.3590   -1.0817 H         1 RES1    0.0000
     42 H16        3.9939   10.4438   -2.1920 H         1 RES1    0.0000
     43 H17        5.1844   11.8062   -1.5751 H         1 RES1    0.0000
     44 H18        5.5934   10.3838   -1.0596 H         1 RES1    0.0000
     45 H19        4.9576   11.4218   -0.0727 H         1 RES1    0.0000
@<TRIPOS>BOND
     1    1    2 1
     2    2    3 2
     3    3    4 1
     4    4    5 1
     5    5    6 1
     6    6    7 1
     7    7    8 2
     8    8   16 1
     9    9    7 1
    10   10    1 1
    11   11   10 1
    12   12    3 1
    13   13   18 ar
    14   14   22 1
    15   15   16 1
    16   16   17 1
    17   17    9 2
    18   18   12 ar
    19   19   13 ar
    20   20   19 ar
    21   21   12 ar
    22   22   17 1
    23   23   14 1
    24   24   23 1
    25   25   22 2
    26   26    5 2
    27   27    6 1
    28   28    8 1
    29   29    9 1
    30   30   11 1
    31   31   11 1
    32   32   11 1
    33   33   13 1
    34   34   15 1
    35   35   15 1
    36   36   15 1
    37   37   18 1
    38   38   19 1
    39   39   20 1
    40   40   21 1
    41   41   23 1
    42   42   23 1
    43   43   24 1
    44   44   24 1
    45   45   24 1
    46    4   10 2
    47   20   21 ar
@<TRIPOS>SUBSTRUCTURE
     1 RES1 1

@<TRIPOS>CRYSIN
  23.1040    7.1440   25.2990  90.0000 119.4500  90.0000  15 1

