# MOL2 file generated by ConQuest
# Please check atom types

@<TRIPOS>MOLECULE
SIBTUT
    50    52     1
SMALL
NO_CHARGES
****
Generated from CSD

@<TRIPOS>ATOM
      1 C1         5.3521    3.9866    6.1312 C.2       1 RES1    0.0000
      2 C2         6.5937    4.3493    5.3790 C.3       1 RES1    0.0000
      3 H1         6.9273    5.2819    5.4500 H         1 RES1    0.0000
      4 C3         7.3390    3.3807    6.3289 C.3       1 RES1    0.0000
      5 H2         7.9274    3.8571    6.8508 H         1 RES1    0.0000
      6 C4         7.9522    2.1286    5.7570 C.3       1 RES1    0.0000
      7 H3         7.2047    1.4824    5.3156 H         1 RES1    0.0000
      8 C5         9.1522    2.5186    4.8819 C.3       1 RES1    0.0000
      9 H4         8.8500    3.0209    4.1105 H         1 RES1    0.0000
     10 H5         9.7639    3.0756    5.3886 H         1 RES1    0.0000
     11 C6         6.7207    4.8789    3.0627 C.2       1 RES1    0.0000
     12 C7         6.6806    4.3277    1.6906 C.ar      1 RES1    0.0000
     13 C8         6.6872    2.9806    1.4316 C.ar      1 RES1    0.0000
     14 H6         6.6959    2.3718    2.1339 H         1 RES1    0.0000
     15 C9         6.6806    2.5316    0.1343 C.ar      1 RES1    0.0000
     16 H7         6.6689    1.6162   -0.0326 H         1 RES1    0.0000
     17 C10        6.6915    3.4008   -0.9154 C.ar      1 RES1    0.0000
     18 C11        6.6908    4.7522   -0.6525 C.ar      1 RES1    0.0000
     19 H8         6.6777    5.3553   -1.3606 H         1 RES1    0.0000
     20 C12        6.7091    5.2257    0.6256 C.ar      1 RES1    0.0000
     21 H9         6.7405    6.1411    0.7849 H         1 RES1    0.0000
     22 C13        6.7711    1.6666   -2.5715 C.3       1 RES1    0.0000
     23 H10        7.5660    1.2953   -2.1838 H         1 RES1    0.0000
     24 H11        6.8083    1.5745   -3.5271 H         1 RES1    0.0000
     25 H12        6.0025    1.2003   -2.2356 H         1 RES1    0.0000
     26 C14        5.6287    2.5013    8.1807 C.ar      1 RES1    0.0000
     27 C15        6.5879    2.2754    9.1805 C.ar      1 RES1    0.0000
     28 H13        7.4697    2.5517    9.0730 H         1 RES1    0.0000
     29 C16        6.1689    1.6205   10.3434 C.ar      1 RES1    0.0000
     30 H14        6.7886    1.4450   11.0151 H         1 RES1    0.0000
     31 C17        4.9068    1.2463   10.5104 C.ar      1 RES1    0.0000
     32 C18        3.9630    1.4464    9.5029 C.ar      1 RES1    0.0000
     33 H15        3.0870    1.1542    9.6104 H         1 RES1    0.0000
     34 C19        4.3593    2.0912    8.3323 C.ar      1 RES1    0.0000
     35 H16        3.7410    2.2380    7.6530 H         1 RES1    0.0000
     36 C20        5.3959    0.2792   12.6328 C.3       1 RES1    0.0000
     37 H17        6.0287   -0.3310   12.2471 H         1 RES1    0.0000
     38 H18        4.9710   -0.1367   13.3869 H         1 RES1    0.0000
     39 H19        5.8514    1.0736   12.9187 H         1 RES1    0.0000
     40 N1         6.0390    3.1835    6.9813 N.am      1 RES1    0.0000
     41 N2         9.8399    1.2852    4.4444 N.pl3     1 RES1    0.0000
     42 O1         4.1615    4.2903    6.0640 O.2       1 RES1    0.0000
     43 O2         6.5872    3.9305    4.0027 O.3       1 RES1    0.0000
     44 O3         6.6762    3.0468   -2.2301 O.3       1 RES1    0.0000
     45 O4         8.4551    1.3773    6.8604 O.3       1 RES1    0.0000
     46 H20        8.2967    0.5814    6.7434 H         1 RES1    0.0000
     47 O5         4.3944    0.6246   11.6445 O.3       1 RES1    0.0000
     48 O6         6.8463    6.0259    3.3583 O.2       1 RES1    0.0000
     49 O7        10.9231    1.0679    4.9242 O.2       1 RES1    0.0000
     50 O8         9.2909    0.5670    3.6595 O.2       1 RES1    0.0000
@<TRIPOS>BOND
     1    1    2 1
     2    2    3 1
     3    4    2 1
     4    5    4 1
     5    6    4 1
     6    7    6 1
     7    8    6 1
     8    9    8 1
     9   10    8 1
    10   11   12 1
    11   12   13 ar
    12   13   14 1
    13   15   13 ar
    14   16   15 1
    15   17   15 ar
    16   18   17 ar
    17   19   18 1
    18   20   12 ar
    19   21   20 1
    20   22   23 1
    21   24   22 1
    22   25   22 1
    23   26   27 ar
    24   27   28 1
    25   29   27 ar
    26   30   29 1
    27   31   29 ar
    28   32   31 ar
    29   33   32 1
    30   34   26 ar
    31   35   34 1
    32   36   37 1
    33   38   36 1
    34   39   36 1
    35   40    1 1
    36   41    8 1
    37   42    1 2
    38   43    2 1
    39   44   17 1
    40   45    6 1
    41   46   45 1
    42   47   31 1
    43   48   11 2
    44   49   41 2
    45   50   41 2
    46    4   40 1
    47   11   43 1
    48   18   20 ar
    49   22   44 1
    50   26   40 1
    51   32   34 ar
    52   36   47 1
@<TRIPOS>SUBSTRUCTURE
     1 RES1 1

@<TRIPOS>CRYSIN
   7.2996   14.3920   19.1900  90.0000  90.0000  90.0000  19 1

