# MOL2 file generated by ConQuest
# Please check atom types

@<TRIPOS>MOLECULE
SICBOY
    34    36     1
SMALL
NO_CHARGES
****
Generated from CSD

@<TRIPOS>ATOM
      1 O1         3.4559   -0.3269    1.7487 O.2       1 RES1    0.0000
      2 O2         1.4437   -0.6999    5.8810 O.3       1 RES1    0.0000
      3 O3         0.5622    2.6126    5.7703 O.3       1 RES1    0.0000
      4 H1         0.2650    3.1347    6.3270 H         1 RES1    0.0000
      5 C1         2.1254   -1.3339    4.8750 C.2       1 RES1    0.0000
      6 C2         3.1642   -1.0292    2.7135 C.2       1 RES1    0.0000
      7 C3         2.3316   -0.5574    3.7991 C.2       1 RES1    0.0000
      8 N1         0.7143    1.3644    6.3441 N.2       1 RES1    0.0000
      9 C4         0.4542    0.9296    3.0322 C.ar      1 RES1    0.0000
     10 C5         0.6193    1.6032    1.8318 C.ar      1 RES1    0.0000
     11 H2         1.4265    2.0264    1.6535 H         1 RES1    0.0000
     12 C6         1.2185    0.5846    5.4465 C.2       1 RES1    0.0000
     13 C7         2.5325   -2.7329    5.0802 C.3       1 RES1    0.0000
     14 H3         1.8154   -3.2294    5.5027 H         1 RES1    0.0000
     15 H4         3.3129   -2.7707    5.6553 H         1 RES1    0.0000
     16 C8         2.8566   -3.3389    3.7259 C.3       1 RES1    0.0000
     17 H5         2.0301   -3.5209    3.2508 H         1 RES1    0.0000
     18 H6         3.3181   -4.1820    3.8541 H         1 RES1    0.0000
     19 C9        -0.7598    0.3228    3.2936 C.ar      1 RES1    0.0000
     20 H7        -0.8841   -0.1350    4.0934 H         1 RES1    0.0000
     21 C10       -0.4131    1.6583    0.8829 C.ar      1 RES1    0.0000
     22 C11        1.6336    0.7666    3.9945 C.3       1 RES1    0.0000
     23 H8         2.2644    1.5109    3.9029 H         1 RES1    0.0000
     24 C12       -1.7902    0.3895    2.3752 C.ar      1 RES1    0.0000
     25 H9        -2.6070   -0.0132    2.5621 H         1 RES1    0.0000
     26 C13        3.7286   -2.4117    2.8832 C.3       1 RES1    0.0000
     27 H10        4.6018   -2.3434    3.2984 H         1 RES1    0.0000
     28 H11        3.8496   -2.8094    2.0064 H         1 RES1    0.0000
     29 C14       -1.6078    1.0474    1.1907 C.ar      1 RES1    0.0000
     30 H12       -2.3080    1.0828    0.5801 H         1 RES1    0.0000
     31 C15       -0.2014    2.3162   -0.4653 C.3       1 RES1    0.0000
     32 H13       -0.2431    1.6509   -1.1565 H         1 RES1    0.0000
     33 H14        0.6586    2.7419   -0.4824 H         1 RES1    0.0000
     34 H15       -0.8869    2.9725   -0.6118 H         1 RES1    0.0000
@<TRIPOS>BOND
     1    1    6 2
     2    2    5 1
     3    3    4 1
     4    5    7 2
     5    6    7 1
     6    7   22 1
     7    8    3 1
     8    9   10 ar
     9   10   11 1
    10   12    2 1
    11   13    5 1
    12   14   13 1
    13   15   13 1
    14   16   13 1
    15   17   16 1
    16   18   16 1
    17   19    9 ar
    18   20   19 1
    19   21   10 ar
    20   22    9 1
    21   23   22 1
    22   24   19 ar
    23   25   24 1
    24   26    6 1
    25   27   26 1
    26   28   26 1
    27   29   21 ar
    28   30   29 1
    29   31   21 1
    30   32   31 1
    31   33   31 1
    32   34   31 1
    33    8   12 2
    34   12   22 1
    35   16   26 1
    36   24   29 ar
@<TRIPOS>SUBSTRUCTURE
     1 RES1 1

@<TRIPOS>CRYSIN
  12.8360    8.2340   13.7900  90.0000 117.6790  90.0000  14 1

