# MOL2 file generated by ConQuest
# Please check atom types

@<TRIPOS>MOLECULE
SICNUN
    26    26     1
SMALL
NO_CHARGES
****
Generated from CSD

@<TRIPOS>ATOM
      1 C1        -2.6818    0.4002    7.4137 C.ar      1 RES1    0.0000
      2 C2        -3.9763    0.8296    7.0910 C.ar      1 RES1    0.0000
      3 C3        -4.7087    0.2277    6.0949 C.ar      1 RES1    0.0000
      4 C4        -4.1444   -0.8546    5.4525 C.ar      1 RES1    0.0000
      5 C5        -2.9069   -1.3567    5.7866 C.ar      1 RES1    0.0000
      6 C6        -2.1648   -0.7069    6.7631 C.ar      1 RES1    0.0000
      7 N1        -1.8551    1.0521    8.3706 N.3       1 RES1    0.0000
      8 N2        -4.6083    1.9399    7.8199 N.pl3     1 RES1    0.0000
      9 O1        -5.4045    2.6427    7.2178 O.2       1 RES1    0.0000
     10 O2        -4.3128    2.0844    8.9995 O.2       1 RES1    0.0000
     11 N3        -4.9108   -1.4908    4.3657 N.pl3     1 RES1    0.0000
     12 O3        -4.4441   -2.5044    3.8677 O.2       1 RES1    0.0000
     13 O4        -5.9452   -0.9679    4.0162 O.2       1 RES1    0.0000
     14 N4        -1.6096    2.3932    8.2107 N.pl3     1 RES1    0.0000
     15 O5        -1.9988    2.9109    7.1796 O.2       1 RES1    0.0000
     16 O6        -1.0095    2.9441    9.1202 O.2       1 RES1    0.0000
     17 C7        -1.5821    0.4772    9.6759 C.3       1 RES1    0.0000
     18 C8        -0.1164    0.2776    9.9358 C.2       1 RES1    0.0000
     19 O7         0.0947   -0.1559   11.1494 O.3       1 RES1    0.0000
     20 O8         0.7398    0.4969    9.1006 O.2       1 RES1    0.0000
     21 H1        -5.5348    0.5094    5.8567 H         1 RES1    0.0000
     22 H2        -2.5451   -2.1208    5.3618 H         1 RES1    0.0000
     23 H3        -1.2811   -0.9876    6.9600 H         1 RES1    0.0000
     24 H4        -2.0276   -0.3743    9.6718 H         1 RES1    0.0000
     25 H5        -1.9686    1.0708   10.3317 H         1 RES1    0.0000
     26 H6         0.9343   -0.2079   11.3319 H         1 RES1    0.0000
@<TRIPOS>BOND
     1    1    2 ar
     2    2    3 ar
     3    3    4 ar
     4    4    5 ar
     5    5    6 ar
     6    6    1 ar
     7    7    1 1
     8    8    2 1
     9    9    8 2
    10   10    8 2
    11   11    4 1
    12   12   11 2
    13   13   11 2
    14   14    7 1
    15   15   14 2
    16   16   14 2
    17   17    7 1
    18   18   17 1
    19   19   18 1
    20   20   18 2
    21   21    3 1
    22   22    5 1
    23   23    6 1
    24   24   17 1
    25   25   17 1
    26   26   19 1
@<TRIPOS>SUBSTRUCTURE
     1 RES1 1

@<TRIPOS>CRYSIN
  10.4170   10.3960   10.8800  90.0000 108.6100  90.0000 231 1

