# MOL2 file generated by ConQuest
# Please check atom types

@<TRIPOS>MOLECULE
SICYOU
    42    44     1
SMALL
NO_CHARGES
****
Generated from CSD

@<TRIPOS>ATOM
      1 O1         6.6728    9.0140   -0.8533 O.2       1 RES1    0.0000
      2 N1         7.2319    8.8814    0.2834 N.3       1 RES1    0.0000
      3 C1         8.6956    8.6484    0.3932 C.3       1 RES1    0.0000
      4 N2        10.0606   10.8103    2.8931 N.1       1 RES1    0.0000
      5 N3         6.8838    6.0076    2.9458 N.1       1 RES1    0.0000
      6 C2         8.9064    8.6623    1.9374 C.3       1 RES1    0.0000
      7 H1         9.4539    7.8678    2.1985 H         1 RES1    0.0000
      8 C3         7.4765    8.5264    2.5655 C.3       1 RES1    0.0000
      9 H2         7.4389    9.0224    3.4328 H         1 RES1    0.0000
     10 C4         6.5187    9.1860    1.5396 C.3       1 RES1    0.0000
     11 C5         9.0136    7.2701   -0.2056 C.3       1 RES1    0.0000
     12 H3         8.6002    6.5690    0.3578 H         1 RES1    0.0000
     13 H4         8.6122    7.2088   -1.1091 H         1 RES1    0.0000
     14 C6        10.5188    7.0079   -0.3071 C.3       1 RES1    0.0000
     15 H5        10.9043    6.9490    0.6030 H         1 RES1    0.0000
     16 H6        10.6715    6.1408   -0.7605 H         1 RES1    0.0000
     17 C7        11.2219    8.1137   -1.0828 C.3       1 RES1    0.0000
     18 H7        10.9043    8.1132   -2.0199 H         1 RES1    0.0000
     19 H8        12.1968    7.9448   -1.0887 H         1 RES1    0.0000
     20 C8        10.9465    9.4765   -0.4534 C.3       1 RES1    0.0000
     21 H9        11.3783   10.1842   -0.9958 H         1 RES1    0.0000
     22 H10       11.3395    9.5059    0.4547 H         1 RES1    0.0000
     23 C9         9.4460    9.7488   -0.3658 C.3       1 RES1    0.0000
     24 H11        9.0760    9.8210   -1.2805 H         1 RES1    0.0000
     25 H12        9.2996   10.6147    0.0909 H         1 RES1    0.0000
     26 C10        6.4368   10.7117    1.7395 C.3       1 RES1    0.0000
     27 H13        7.3530   11.0789    1.8149 H         1 RES1    0.0000
     28 H14        6.0088   11.1222    0.9463 H         1 RES1    0.0000
     29 C11        5.6405   11.0854    2.9893 C.3       1 RES1    0.0000
     30 H15        5.5533   12.0699    3.0407 H         1 RES1    0.0000
     31 H16        6.1298   10.7807    3.7939 H         1 RES1    0.0000
     32 C12        4.2478   10.4536    2.9721 C.3       1 RES1    0.0000
     33 H17        3.7878   10.6484    3.8269 H         1 RES1    0.0000
     34 H18        3.7148   10.8528    2.2393 H         1 RES1    0.0000
     35 C13        4.3322    8.9418    2.7744 C.3       1 RES1    0.0000
     36 H19        3.4183    8.5654    2.7138 H         1 RES1    0.0000
     37 H20        4.7819    8.5317    3.5554 H         1 RES1    0.0000
     38 C14        5.1081    8.6019    1.5032 C.3       1 RES1    0.0000
     39 H21        5.1625    7.6177    1.4057 H         1 RES1    0.0000
     40 H22        4.6239    8.9599    0.7177 H         1 RES1    0.0000
     41 C15        9.5559    9.8823    2.4515 C.1       1 RES1    0.0000
     42 C16        7.1507    7.1049    2.7868 C.1       1 RES1    0.0000
@<TRIPOS>BOND
     1    1    2 1
     2    2    3 1
     3    3    6 1
     4    4   41 3
     5    5   42 3
     6    6    7 1
     7    8    6 1
     8    9    8 1
     9   10    2 1
    10   11    3 1
    11   12   11 1
    12   13   11 1
    13   14   11 1
    14   15   14 1
    15   16   14 1
    16   17   14 1
    17   18   17 1
    18   19   17 1
    19   20   17 1
    20   21   20 1
    21   22   20 1
    22   23    3 1
    23   24   23 1
    24   25   23 1
    25   26   10 1
    26   27   26 1
    27   28   26 1
    28   29   26 1
    29   30   29 1
    30   31   29 1
    31   32   29 1
    32   33   32 1
    33   34   32 1
    34   35   32 1
    35   36   35 1
    36   37   35 1
    37   38   10 1
    38   39   38 1
    39   40   38 1
    40   41    6 1
    41   42    8 1
    42    8   10 1
    43   20   23 1
    44   35   38 1
@<TRIPOS>SUBSTRUCTURE
     1 RES1 1

@<TRIPOS>CRYSIN
   9.2386   24.0533    6.5901  90.0000  90.0000  90.0000  33 1

