# MOL2 file generated by ConQuest
# Please check atom types

@<TRIPOS>MOLECULE
SIDQEB
    34    36     1
SMALL
NO_CHARGES
****
Generated from CSD

@<TRIPOS>ATOM
      1 O1        11.3361    5.2228   -4.2353 O.2       1 RES1    0.0000
      2 O2        10.4032    4.2069   -5.8963 O.2       1 RES1    0.0000
      3 O3        14.0343    2.8882    0.6104 O.3       1 RES1    0.0000
      4 N1        10.8619    4.2290   -4.7590 N.pl3     1 RES1    0.0000
      5 N2        12.4205    1.6772   -0.9646 N.2       1 RES1    0.0000
      6 C1        10.8303    3.0100   -3.9920 C.ar      1 RES1    0.0000
      7 C2        11.6151    2.8903   -2.8510 C.ar      1 RES1    0.0000
      8 C3        11.5867    1.7159   -2.1080 C.ar      1 RES1    0.0000
      9 C4        10.7734    0.6612   -2.5061 C.ar      1 RES1    0.0000
     10 C5         9.9886    0.7808   -3.6471 C.ar      1 RES1    0.0000
     11 C6        10.0171    1.9552   -4.3900 C.ar      1 RES1    0.0000
     12 C7        12.5366    0.6355   -0.1777 C.2       1 RES1    0.0000
     13 C8        13.3519    0.6274    0.9732 C.ar      1 RES1    0.0000
     14 C9        13.4342   -0.5612    1.8462 C.ar      1 RES1    0.0000
     15 C10       12.7415   -1.7274    1.5428 C.ar      1 RES1    0.0000
     16 C11       12.7938   -2.8127    2.4095 C.ar      1 RES1    0.0000
     17 C12       13.5387   -2.7316    3.5803 C.ar      1 RES1    0.0000
     18 C13       14.2313   -1.5654    3.8842 C.ar      1 RES1    0.0000
     19 C14       14.1791   -0.4803    3.0175 C.ar      1 RES1    0.0000
     20 C15       14.9063    0.7253    3.3178 C.ar      1 RES1    0.0000
     21 C16       14.8652    1.7976    2.5235 C.ar      1 RES1    0.0000
     22 C17       14.0810    1.8054    1.3236 C.ar      1 RES1    0.0000
     23 H1        13.3831    2.6774   -0.2365 H         1 RES1    0.0000
     24 H2        12.1388    3.5809   -2.6200 H         1 RES1    0.0000
     25 H3        10.7996   -0.1340   -2.0139 H         1 RES1    0.0000
     26 H4         9.3953   -0.0032   -4.0260 H         1 RES1    0.0000
     27 H5         9.4505    2.0782   -5.1070 H         1 RES1    0.0000
     28 H6        12.0482   -0.2192   -0.3832 H         1 RES1    0.0000
     29 H7        12.2846   -1.8496    0.6977 H         1 RES1    0.0000
     30 H8        12.2280   -3.6645    2.1625 H         1 RES1    0.0000
     31 H9        13.5034   -3.4122    4.1566 H         1 RES1    0.0000
     32 H10       14.7732   -1.5800    4.6742 H         1 RES1    0.0000
     33 H11       15.3947    0.8089    4.1969 H         1 RES1    0.0000
     34 H12       15.3720    2.5891    2.6739 H         1 RES1    0.0000
@<TRIPOS>BOND
     1    1    4 2
     2    2    4 2
     3    3   22 1
     4    4    6 1
     5    5    8 1
     6    6    7 ar
     7    7    8 ar
     8    8    9 ar
     9    9   10 ar
    10   10   11 ar
    11   11    6 ar
    12   12    5 2
    13   13   12 1
    14   14   13 ar
    15   15   14 ar
    16   16   15 ar
    17   17   16 ar
    18   18   17 ar
    19   19   14 ar
    20   20   19 ar
    21   21   20 ar
    22   22   13 ar
    23   23    3 1
    24   24    7 1
    25   25    9 1
    26   26   10 1
    27   27   11 1
    28   28   12 1
    29   29   15 1
    30   30   16 1
    31   31   17 1
    32   32   18 1
    33   33   20 1
    34   34   21 1
    35   18   19 ar
    36   21   22 ar
@<TRIPOS>SUBSTRUCTURE
     1 RES1 1

@<TRIPOS>CRYSIN
  14.1560   15.7680    6.1910  90.0000  90.0000  90.0000  19 1

