# MOL2 file generated by ConQuest
# Please check atom types

@<TRIPOS>MOLECULE
SIFDIV
    44    45     1
SMALL
NO_CHARGES
****
Generated from CSD

@<TRIPOS>ATOM
      1 C1         2.0760   -2.1293    8.1551 C.3       1 RES1    0.0000
      2 C2         1.5223   -1.5734    6.8634 C.3       1 RES1    0.0000
      3 H1         0.8748   -2.1841    6.5033 H         1 RES1    0.0000
      4 H2         2.2367   -1.4569    6.2329 H         1 RES1    0.0000
      5 H3         1.1039   -0.7263    7.0334 H         1 RES1    0.0000
      6 C3         3.1030   -1.2060    8.7383 C.3       1 RES1    0.0000
      7 H4         3.4491   -1.5845    9.5506 H         1 RES1    0.0000
      8 H5         2.6995   -0.3563    8.9272 H         1 RES1    0.0000
      9 H6         3.8201   -1.0869    8.1102 H         1 RES1    0.0000
     10 C4         2.5885   -3.5305    7.9425 C.3       1 RES1    0.0000
     11 H7         2.9464   -3.8680    8.7667 H         1 RES1    0.0000
     12 H8         3.2772   -3.5220    7.2743 H         1 RES1    0.0000
     13 H9         1.8672   -4.0941    7.6521 H         1 RES1    0.0000
     14 O1         0.8743   -2.1319    9.0285 O.3       1 RES1    0.0000
     15 C5         0.9318   -2.6098   10.2921 C.2       1 RES1    0.0000
     16 O2         1.8579   -3.2487   10.7516 O.2       1 RES1    0.0000
     17 N1        -0.1825   -2.3023   10.9812 N.am      1 RES1    0.0000
     18 C6        -0.4015   -2.8642   12.3194 C.3       1 RES1    0.0000
     19 H10        0.3439   -2.6689   12.9085 H         1 RES1    0.0000
     20 H11       -0.5326   -3.8252   12.2792 H         1 RES1    0.0000
     21 C7        -1.6497   -2.1644   12.7716 C.3       1 RES1    0.0000
     22 H12       -2.1885   -2.7503   13.3265 H         1 RES1    0.0000
     23 H13       -1.4303   -1.3687   13.2816 H         1 RES1    0.0000
     24 C8        -2.3774   -1.8055   11.5330 C.3       1 RES1    0.0000
     25 H14       -2.9367   -1.0270   11.6782 H         1 RES1    0.0000
     26 H15       -2.9374   -2.5413   11.2402 H         1 RES1    0.0000
     27 C9        -1.2996   -1.5083   10.5011 C.3       1 RES1    0.0000
     28 H16       -1.5828   -1.8209    9.6168 H         1 RES1    0.0000
     29 N2        -0.9197   -0.0959   10.4396 N.am      1 RES1    0.0000
     30 H17       -0.5342    0.2698   11.1151 H         1 RES1    0.0000
     31 C10       -1.1629    0.6235    9.3558 C.2       1 RES1    0.0000
     32 O3        -1.7964    0.3452    8.3827 O.2       1 RES1    0.0000
     33 O4        -0.5378    1.8809    9.5051 O.3       1 RES1    0.0000
     34 N3        -0.7965    2.7100    8.4396 N.am      1 RES1    0.0000
     35 C11       -0.1697    2.5687    7.2199 C.2       1 RES1    0.0000
     36 O5         0.6580    1.7558    6.9649 O.2       1 RES1    0.0000
     37 C12       -0.7628    3.6427    6.3545 C.3       1 RES1    0.0000
     38 H18       -1.2674    3.2513    5.6248 H         1 RES1    0.0000
     39 H19       -0.0642    4.2038    5.9826 H         1 RES1    0.0000
     40 C13       -1.6689    4.4530    7.2471 C.3       1 RES1    0.0000
     41 H20       -1.3220    5.3523    7.3581 H         1 RES1    0.0000
     42 H21       -2.5596    4.5087    6.8669 H         1 RES1    0.0000
     43 C14       -1.7040    3.7498    8.5447 C.2       1 RES1    0.0000
     44 O6        -2.3329    3.9999    9.5329 O.2       1 RES1    0.0000
@<TRIPOS>BOND
     1    1    2 1
     2    2    3 1
     3    4    2 1
     4    5    2 1
     5    6    1 1
     6    7    6 1
     7    8    6 1
     8    9    6 1
     9   10    1 1
    10   11   10 1
    11   12   10 1
    12   13   10 1
    13   14    1 1
    14   15   14 1
    15   16   15 2
    16   17   15 1
    17   18   17 1
    18   19   18 1
    19   20   18 1
    20   21   18 1
    21   22   21 1
    22   23   21 1
    23   24   21 1
    24   25   24 1
    25   26   24 1
    26   27   17 1
    27   28   27 1
    28   29   27 1
    29   30   29 1
    30   31   29 1
    31   32   31 2
    32   33   31 1
    33   34   33 1
    34   35   34 1
    35   36   35 2
    36   37   35 1
    37   38   37 1
    38   39   37 1
    39   40   37 1
    40   41   40 1
    41   42   40 1
    42   43   34 1
    43   44   43 2
    44   24   27 1
    45   40   43 1
@<TRIPOS>SUBSTRUCTURE
     1 RES1 1

@<TRIPOS>CRYSIN
   8.2844    8.5651   12.2094  90.0000 104.7520  90.0000   4 1

