# MOL2 file generated by ConQuest
# Please check atom types

@<TRIPOS>MOLECULE
SIFFAP
    55    58     1
SMALL
NO_CHARGES
****
Generated from CSD

@<TRIPOS>ATOM
      1 O1         0.9316    5.6046    8.4741 O.3       1 RES1    0.0000
      2 O2         1.6049    2.9166    9.8543 O.3       1 RES1    0.0000
      3 N1         2.8201    2.8255    9.1097 N.3       1 RES1    0.0000
      4 O3         1.7523    6.5560    6.6143 O.2       1 RES1    0.0000
      5 O4         1.4779    3.4599    5.7630 O.2       1 RES1    0.0000
      6 C1         1.3136    6.6599    7.7295 C.2       1 RES1    0.0000
      7 C2         1.0993    7.9433    8.4408 C.ar      1 RES1    0.0000
      8 C3         3.0298    1.5301    8.5601 C.ar      1 RES1    0.0000
      9 C4         4.0800    1.3288    7.6721 C.ar      1 RES1    0.0000
     10 H1         4.5924    2.0497    7.3876 H         1 RES1    0.0000
     11 C5         0.7313   10.3407    9.6684 C.ar      1 RES1    0.0000
     12 C6         1.5662    9.1081    7.8545 C.ar      1 RES1    0.0000
     13 H2         1.9999    9.0687    7.0331 H         1 RES1    0.0000
     14 C7         2.2838    0.4375    8.9732 C.ar      1 RES1    0.0000
     15 H3         1.5780    0.5625    9.5652 H         1 RES1    0.0000
     16 C8         0.4324    7.9974    9.6570 C.ar      1 RES1    0.0000
     17 H4         0.1206    7.2176   10.0551 H         1 RES1    0.0000
     18 C9         2.8059    3.9914    8.1999 C.3       1 RES1    0.0000
     19 H5         3.1988    3.7269    7.3417 H         1 RES1    0.0000
     20 C10        1.2907    4.2957    7.9865 C.3       1 RES1    0.0000
     21 C11        2.5766   -0.8319    8.5188 C.ar      1 RES1    0.0000
     22 H6         2.0720   -1.5574    8.8068 H         1 RES1    0.0000
     23 C12        3.6060    5.1441    8.7678 C.ar      1 RES1    0.0000
     24 C13        0.8080    4.0934    6.5317 C.2       1 RES1    0.0000
     25 C14        0.5913    3.2706    8.9101 C.3       1 RES1    0.0000
     26 H7         0.3472    2.4789    8.3869 H         1 RES1    0.0000
     27 C15        3.6293   -1.0219    7.6262 C.ar      1 RES1    0.0000
     28 H8         3.8339   -1.8733    7.3141 H         1 RES1    0.0000
     29 C16        1.3970   10.3171    8.4729 C.ar      1 RES1    0.0000
     30 H9         1.7238   11.0994    8.0920 H         1 RES1    0.0000
     31 N2         0.5161   11.6423   10.3431 N.pl3     1 RES1    0.0000
     32 C17        0.2354    9.2245   10.2754 C.ar      1 RES1    0.0000
     33 H10       -0.2226    9.2845   11.0831 H         1 RES1    0.0000
     34 C18        4.3621    0.0606    7.2120 C.ar      1 RES1    0.0000
     35 H11        5.0607   -0.0618    6.6120 H         1 RES1    0.0000
     36 O5         1.0682   12.6194    9.8623 O.2       1 RES1    0.0000
     37 O6        -0.1507   11.6719   11.3343 O.2       1 RES1    0.0000
     38 C19        3.5010    5.5281   10.0918 C.ar      1 RES1    0.0000
     39 H12        2.9543    5.0407   10.6655 H         1 RES1    0.0000
     40 C20        4.4400    5.8696    7.9440 C.ar      1 RES1    0.0000
     41 H13        4.5424    5.6223    7.0526 H         1 RES1    0.0000
     42 C21       -0.5515    4.5817    6.1760 C.3       1 RES1    0.0000
     43 H14       -0.6352    4.6280    5.2214 H         1 RES1    0.0000
     44 H15       -0.6861    5.4544    6.5523 H         1 RES1    0.0000
     45 H16       -1.2099    3.9765    6.5259 H         1 RES1    0.0000
     46 C22        4.9856    7.3392    9.7545 C.ar      1 RES1    0.0000
     47 H17        5.4351    8.0856   10.0803 H         1 RES1    0.0000
     48 C23        4.1873    6.6144   10.5771 C.ar      1 RES1    0.0000
     49 H18        4.1041    6.8535   11.4720 H         1 RES1    0.0000
     50 C24       -0.6180    3.7471    9.6834 C.3       1 RES1    0.0000
     51 H19       -0.9188    3.0491   10.2685 H         1 RES1    0.0000
     52 H20       -1.3201    3.9753    9.0695 H         1 RES1    0.0000
     53 H21       -0.3821    4.5207   10.2008 H         1 RES1    0.0000
     54 C25        5.1304    6.9709    8.4420 C.ar      1 RES1    0.0000
     55 H22        5.6917    7.4585    7.8832 H         1 RES1    0.0000
@<TRIPOS>BOND
     1    1    6 1
     2    2    3 1
     3    3    8 1
     4    4    6 2
     5    5   24 2
     6    6    7 1
     7    7   12 ar
     8    8    9 ar
     9    9   10 1
    10   11   29 ar
    11   12   13 1
    12   14    8 ar
    13   15   14 1
    14   16    7 ar
    15   17   16 1
    16   18    3 1
    17   19   18 1
    18   20    1 1
    19   21   14 ar
    20   22   21 1
    21   23   18 1
    22   24   20 1
    23   25    2 1
    24   26   25 1
    25   27   21 ar
    26   28   27 1
    27   29   12 ar
    28   30   29 1
    29   31   11 1
    30   32   11 ar
    31   33   32 1
    32   34    9 ar
    33   35   34 1
    34   36   31 2
    35   37   31 2
    36   38   23 ar
    37   39   38 1
    38   40   23 ar
    39   41   40 1
    40   42   24 1
    41   43   42 1
    42   44   42 1
    43   45   42 1
    44   46   47 1
    45   48   38 ar
    46   49   48 1
    47   50   25 1
    48   51   50 1
    49   52   50 1
    50   53   50 1
    51   54   40 ar
    52   55   54 1
    53   16   32 ar
    54   18   20 1
    55   20   25 1
    56   27   34 ar
    57   46   48 ar
    58   46   54 ar
@<TRIPOS>SUBSTRUCTURE
     1 RES1 1

@<TRIPOS>CRYSIN
   8.0780   12.2879   12.4725  67.0570  87.9780  78.5080   2 1

