# MOL2 file generated by ConQuest
# Please check atom types

@<TRIPOS>MOLECULE
SIHCAO
    64    68     1
SMALL
NO_CHARGES
****
Generated from CSD

@<TRIPOS>ATOM
      1 C1         3.5617    1.8437    4.0283 C.3       1 RES1    0.0000
      2 H1         3.5365    2.0641    4.9827 H         1 RES1    0.0000
      3 C2         4.3237    2.9769    3.2196 C.3       1 RES1    0.0000
      4 H2         4.8144    3.5340    3.8580 H         1 RES1    0.0000
      5 C3         5.2845    1.9172    2.6647 C.3       1 RES1    0.0000
      6 H3         4.9853    1.6445    1.7726 H         1 RES1    0.0000
      7 C4         4.7509    0.8925    3.7240 C.3       1 RES1    0.0000
      8 H4         4.4598    0.0511    3.3143 H         1 RES1    0.0000
      9 C5         2.1759    1.5103    3.5288 C.ar      1 RES1    0.0000
     10 C6         1.9388    0.5560    2.5621 C.ar      1 RES1    0.0000
     11 H5         2.6392    0.0373    2.2374 H         1 RES1    0.0000
     12 C7         0.6423    0.3696    2.0707 C.ar      1 RES1    0.0000
     13 H6         0.4736   -0.2716    1.4196 H         1 RES1    0.0000
     14 C8        -0.3622    1.1343    2.5538 C.ar      1 RES1    0.0000
     15 C9        -0.1485    2.0950    3.4971 C.ar      1 RES1    0.0000
     16 H7        -0.8518    2.6265    3.7925 H         1 RES1    0.0000
     17 C10        1.1192    2.2729    4.0079 C.ar      1 RES1    0.0000
     18 H8         1.2670    2.9034    4.6743 H         1 RES1    0.0000
     19 C11        3.5441    3.8801    2.3057 C.ar      1 RES1    0.0000
     20 C12        3.0478    5.0762    2.8195 C.ar      1 RES1    0.0000
     21 H9         3.2346    5.3052    3.7016 H         1 RES1    0.0000
     22 C13        2.2876    5.9272    2.0512 C.ar      1 RES1    0.0000
     23 H10        1.9637    6.7239    2.4042 H         1 RES1    0.0000
     24 C14        2.0199    5.5800    0.7668 C.ar      1 RES1    0.0000
     25 C15        2.4775    4.4010    0.2126 C.ar      1 RES1    0.0000
     26 H11        2.2690    4.1773   -0.6658 H         1 RES1    0.0000
     27 C16        3.2493    3.5638    0.9889 C.ar      1 RES1    0.0000
     28 H12        3.5770    2.7746    0.6226 H         1 RES1    0.0000
     29 C17        6.7322    2.3379    2.5958 C.2       1 RES1    0.0000
     30 C18        7.8078    1.3665    2.2372 C.ar      1 RES1    0.0000
     31 C19        9.0912    1.8234    2.0906 C.ar      1 RES1    0.0000
     32 H13        9.2786    2.7202    2.2538 H         1 RES1    0.0000
     33 C20       10.1056    0.9831    1.7069 C.ar      1 RES1    0.0000
     34 H14       10.9765    1.2994    1.6356 H         1 RES1    0.0000
     35 C21        9.8230   -0.3099    1.4334 C.ar      1 RES1    0.0000
     36 C22        8.5726   -0.8350    1.5940 C.ar      1 RES1    0.0000
     37 H15        8.4075   -1.7372    1.4360 H         1 RES1    0.0000
     38 C23        7.5513    0.0192    2.0013 C.ar      1 RES1    0.0000
     39 H16        6.6905   -0.3142    2.1167 H         1 RES1    0.0000
     40 C24        5.6111    0.6721    4.9216 C.2       1 RES1    0.0000
     41 C25        5.0781   -0.1949    6.0232 C.ar      1 RES1    0.0000
     42 C26        5.6394   -0.0863    7.2874 C.ar      1 RES1    0.0000
     43 H17        6.3088    0.5421    7.4360 H         1 RES1    0.0000
     44 C27        5.2282   -0.8851    8.3197 C.ar      1 RES1    0.0000
     45 H18        5.6148   -0.8159    9.1625 H         1 RES1    0.0000
     46 C28        4.2294   -1.7925    8.0739 C.ar      1 RES1    0.0000
     47 C29        3.6348   -1.9161    6.8556 C.ar      1 RES1    0.0000
     48 H19        2.9643   -2.5466    6.7181 H         1 RES1    0.0000
     49 C30        4.0470   -1.0853    5.8236 C.ar      1 RES1    0.0000
     50 H20        3.6252   -1.1301    4.9961 H         1 RES1    0.0000
     51 N1        -1.7074    0.9618    2.0248 N.pl3     1 RES1    0.0000
     52 N2         1.2293    6.5045   -0.0781 N.pl3     1 RES1    0.0000
     53 N3        10.8992   -1.1812    0.9295 N.pl3     1 RES1    0.0000
     54 N4         3.8177   -2.6968    9.1626 N.pl3     1 RES1    0.0000
     55 O1        -2.5876    1.7079    2.3972 O.2       1 RES1    0.0000
     56 O2        -1.8855    0.0373    1.2121 O.2       1 RES1    0.0000
     57 O3         1.0080    6.1713   -1.2273 O.2       1 RES1    0.0000
     58 O4         0.8577    7.5445    0.4186 O.2       1 RES1    0.0000
     59 O5        12.0118   -0.7425    0.9112 O.2       1 RES1    0.0000
     60 O6        10.6335   -2.2818    0.5601 O.2       1 RES1    0.0000
     61 O7         7.0172    3.5086    2.7575 O.2       1 RES1    0.0000
     62 O8         4.3020   -2.6052   10.2296 O.2       1 RES1    0.0000
     63 O9         3.0134   -3.5306    8.9084 O.2       1 RES1    0.0000
     64 O10        6.7003    1.1893    5.0311 O.2       1 RES1    0.0000
@<TRIPOS>BOND
     1    1    2 1
     2    3    1 1
     3    4    3 1
     4    5    3 1
     5    6    5 1
     6    7    1 1
     7    8    7 1
     8    9    1 1
     9   10    9 ar
    10   11   10 1
    11   12   10 ar
    12   13   12 1
    13   14   12 ar
    14   15   14 ar
    15   16   15 1
    16   17    9 ar
    17   18   17 1
    18   19    3 1
    19   20   19 ar
    20   21   20 1
    21   22   20 ar
    22   23   22 1
    23   24   22 ar
    24   25   24 ar
    25   26   25 1
    26   27   19 ar
    27   28   27 1
    28   29    5 1
    29   30   29 1
    30   31   30 ar
    31   32   31 1
    32   33   31 ar
    33   34   33 1
    34   35   33 ar
    35   36   35 ar
    36   37   36 1
    37   38   30 ar
    38   39   38 1
    39   40    7 1
    40   41   40 1
    41   42   41 ar
    42   43   42 1
    43   44   42 ar
    44   45   44 1
    45   46   44 ar
    46   47   46 ar
    47   48   47 1
    48   49   41 ar
    49   50   49 1
    50   51   14 1
    51   52   24 1
    52   53   35 1
    53   54   46 1
    54   55   51 2
    55   56   51 2
    56   57   52 2
    57   58   52 2
    58   59   53 2
    59   60   53 2
    60   61   29 2
    61   62   54 2
    62   63   54 2
    63   64   40 2
    64    5    7 1
    65   15   17 ar
    66   25   27 ar
    67   36   38 ar
    68   47   49 ar
@<TRIPOS>SUBSTRUCTURE
     1 RES1 1

@<TRIPOS>CRYSIN
  17.1005   10.6509   15.0484  90.0000  98.1630  90.0000  14 1

