# MOL2 file generated by ConQuest
# Please check atom types

@<TRIPOS>MOLECULE
SIHCIW
    30    30     1
SMALL
NO_CHARGES
****
Generated from CSD

@<TRIPOS>ATOM
      1 O1         5.1671   -0.2853    5.7513 O.3       1 RES1    0.0000
      2 O2         5.8059    2.6686    3.2319 O.2       1 RES1    0.0000
      3 O3         4.7808    0.7955    3.4154 O.2       1 RES1    0.0000
      4 O4         5.0577    5.9870    6.8152 O.2       1 RES1    0.0000
      5 O5         4.8526    5.1416    8.8618 O.3       1 RES1    0.0000
      6 N1         5.2404    1.8041    3.8970 N.pl3     1 RES1    0.0000
      7 C1         4.3841   -2.8694    4.8144 C.3       1 RES1    0.0000
      8 H1         4.6086   -3.6723    4.3368 H         1 RES1    0.0000
      9 H2         4.4022   -2.1231    4.2123 H         1 RES1    0.0000
     10 H3         3.5047   -2.9568    5.1908 H         1 RES1    0.0000
     11 C2         5.3631   -2.6514    5.8983 C.3       1 RES1    0.0000
     12 H4         6.2529   -2.6194    5.5137 H         1 RES1    0.0000
     13 H5         5.3317   -3.4075    6.5059 H         1 RES1    0.0000
     14 C3         5.1281   -1.3793    6.6920 C.3       1 RES1    0.0000
     15 H6         4.2655   -1.4125    7.1354 H         1 RES1    0.0000
     16 H7         5.8170   -1.2697    7.3653 H         1 RES1    0.0000
     17 C4         5.0674    0.9618    6.2254 C.ar      1 RES1    0.0000
     18 C5         5.1148    2.0270    5.3345 C.ar      1 RES1    0.0000
     19 C6         5.0751    3.3447    5.7655 C.ar      1 RES1    0.0000
     20 H8         5.1246    4.0368    5.1456 H         1 RES1    0.0000
     21 C7         4.9642    3.6292    7.1039 C.ar      1 RES1    0.0000
     22 C8         4.9001    2.5750    7.9976 C.ar      1 RES1    0.0000
     23 H9         4.8206    2.7548    8.9076 H         1 RES1    0.0000
     24 C9         4.9503    1.2721    7.5788 C.ar      1 RES1    0.0000
     25 H10        4.9056    0.5850    8.2056 H         1 RES1    0.0000
     26 C10        4.9740    5.0454    7.5391 C.2       1 RES1    0.0000
     27 C11        4.9091    6.4629    9.4509 C.3       1 RES1    0.0000
     28 H11        4.7990    6.3939   10.4020 H         1 RES1    0.0000
     29 H12        4.2062    7.0059    9.0855 H         1 RES1    0.0000
     30 H13        5.7585    6.8643    9.2552 H         1 RES1    0.0000
@<TRIPOS>BOND
     1    1   14 1
     2    2    6 2
     3    3    6 2
     4    4   26 2
     5    5   26 1
     6    6   18 1
     7    7    8 1
     8    9    7 1
     9   10    7 1
    10   11    7 1
    11   12   11 1
    12   13   11 1
    13   14   11 1
    14   15   14 1
    15   16   14 1
    16   17    1 1
    17   18   17 ar
    18   19   18 ar
    19   20   19 1
    20   21   19 ar
    21   22   21 ar
    22   23   22 1
    23   24   17 ar
    24   25   24 1
    25   26   21 1
    26   27    5 1
    27   28   27 1
    28   29   27 1
    29   30   27 1
    30   22   24 ar
@<TRIPOS>SUBSTRUCTURE
     1 RES1 1

@<TRIPOS>CRYSIN
   6.9732   12.3149   13.6851  90.0000  90.0000  90.0000  19 1

