# MOL2 file generated by ConQuest
# Please check atom types

@<TRIPOS>MOLECULE
SIHDIX
    26    26     1
SMALL
NO_CHARGES
****
Generated from CSD

@<TRIPOS>ATOM
      1 N1         8.7122    4.0855    9.0883 N.2       1 RES1    0.0000
      2 O1         8.9288    7.6506    4.3882 O.3       1 RES1    0.0000
      3 C1        10.0974    7.0700    3.7931 C.3       1 RES1    0.0000
      4 H1        10.2480    7.4657    2.9312 H         1 RES1    0.0000
      5 H2         9.9686    6.1240    3.6920 H         1 RES1    0.0000
      6 H3        10.8569    7.2308    4.3564 H         1 RES1    0.0000
      7 O2         5.7130    7.8871    7.8952 O.3       1 RES1    0.0000
      8 C2         8.5424    7.2126    5.6265 C.ar      1 RES1    0.0000
      9 N2        10.7991    4.9071    8.4470 N.pl3     1 RES1    0.0000
     10 H4        11.2264    4.3208    8.9083 H         1 RES1    0.0000
     11 H5        11.2318    5.4921    7.9886 H         1 RES1    0.0000
     12 O3         9.4988    3.1988    9.8741 O.3       1 RES1    0.0000
     13 H6         9.0057    2.6820   10.2785 H         1 RES1    0.0000
     14 C3         9.2370    6.2791    6.3718 C.ar      1 RES1    0.0000
     15 H7        10.0204    5.8982    6.0454 H         1 RES1    0.0000
     16 C4         8.7392    5.9186    7.6295 C.ar      1 RES1    0.0000
     17 C5         7.5694    6.4883    8.1186 C.ar      1 RES1    0.0000
     18 H8         7.2472    6.2514    8.9583 H         1 RES1    0.0000
     19 C6         6.8893    7.4097    7.3444 C.ar      1 RES1    0.0000
     20 C7         7.3773    7.7838    6.1032 C.ar      1 RES1    0.0000
     21 H9         6.9236    8.4160    5.5938 H         1 RES1    0.0000
     22 C8         5.0478    8.9435    7.2231 C.3       1 RES1    0.0000
     23 H10        4.2529    9.1803    7.7075 H         1 RES1    0.0000
     24 H11        4.8103    8.6604    6.3372 H         1 RES1    0.0000
     25 H12        5.6289    9.7061    7.1711 H         1 RES1    0.0000
     26 C9         9.4513    4.9098    8.4432 C.2       1 RES1    0.0000
@<TRIPOS>BOND
     1    1   12 1
     2    2    3 1
     3    3    4 1
     4    5    3 1
     5    6    3 1
     6    7   19 1
     7    8    2 1
     8    9   10 1
     9   11    9 1
    10   12   13 1
    11   14    8 ar
    12   15   14 1
    13   16   14 ar
    14   17   16 ar
    15   18   17 1
    16   19   17 ar
    17   20    8 ar
    18   21   20 1
    19   22    7 1
    20   23   22 1
    21   24   22 1
    22   25   22 1
    23   26    1 2
    24    9   26 1
    25   16   26 1
    26   19   20 ar
@<TRIPOS>SUBSTRUCTURE
     1 RES1 1

@<TRIPOS>CRYSIN
   6.4390    8.0840   10.1880  71.2900  81.6000  74.2100   2 1

