# MOL2 file generated by ConQuest
# Please check atom types

@<TRIPOS>MOLECULE
SIHXOY
    67    71     1
SMALL
NO_CHARGES
****
Generated from CSD

@<TRIPOS>ATOM
      1 O1         2.3791   -0.0941   20.8852 O.2       1 RES1    0.0000
      2 O2         2.2557   -2.1022   21.6848 O.2       1 RES1    0.0000
      3 O3        -1.7224   -3.6683   23.7660 O.2       1 RES1    0.0000
      4 O4        -3.0496   -2.2419   24.7122 O.2       1 RES1    0.0000
      5 N1        -0.0338    2.9273   21.4127 N.2       1 RES1    0.0000
      6 N2         0.6065    1.7029   21.4992 N.pl3     1 RES1    0.0000
      7 H1         1.3926    1.5870   21.1227 H         1 RES1    0.0000
      8 N3         1.8031   -0.9657   21.5587 N.pl3     1 RES1    0.0000
      9 N4        -2.0755   -2.5185   24.0109 N.pl3     1 RES1    0.0000
     10 C1         1.1185    7.6993   15.1163 C.3       1 RES1    0.0000
     11 H2         0.3494    8.1842   15.5084 H         1 RES1    0.0000
     12 H3         1.9413    8.1900   15.3643 H         1 RES1    0.0000
     13 C2         0.9834    7.7081   13.5917 C.3       1 RES1    0.0000
     14 H4         0.0947    7.3491   13.3414 H         1 RES1    0.0000
     15 H5         1.0363    8.6414   13.2677 H         1 RES1    0.0000
     16 C3         2.0658    6.8791   12.9099 C.3       1 RES1    0.0000
     17 H6         2.9409    7.3293   13.0181 H         1 RES1    0.0000
     18 H7         1.8709    6.8182   11.9426 H         1 RES1    0.0000
     19 C4         2.1437    5.4738   13.5001 C.3       1 RES1    0.0000
     20 H8         2.9072    4.9891   13.0981 H         1 RES1    0.0000
     21 H9         1.3160    4.9786   13.2773 H         1 RES1    0.0000
     22 C5         2.3164    5.5209   15.0186 C.3       1 RES1    0.0000
     23 H10        3.1526    6.0416   15.1883 H         1 RES1    0.0000
     24 C6         2.5473    4.1328   15.6188 C.3       1 RES1    0.0000
     25 H11        1.7482    3.5705   15.4603 H         1 RES1    0.0000
     26 H12        3.3170    3.7038   15.1659 H         1 RES1    0.0000
     27 C7         2.8200    4.2114   17.1171 C.3       1 RES1    0.0000
     28 H13        3.7001    4.6417   17.2625 H         1 RES1    0.0000
     29 H14        2.8711    3.2933   17.4833 H         1 RES1    0.0000
     30 C8         1.7534    4.9933   17.8869 C.3       1 RES1    0.0000
     31 H15        0.8931    4.4874   17.8226 H         1 RES1    0.0000
     32 C9         1.5381    6.3808   17.2493 C.3       1 RES1    0.0000
     33 H16        2.4152    6.8579   17.3041 H         1 RES1    0.0000
     34 C10        1.1788    6.2835   15.7318 C.3       1 RES1    0.0000
     35 C11        0.5431    7.2013   18.0780 C.3       1 RES1    0.0000
     36 H17        0.4360    8.0953   17.6690 H         1 RES1    0.0000
     37 H18       -0.3400    6.7527   18.0659 H         1 RES1    0.0000
     38 C12        1.0027    7.3632   19.5204 C.3       1 RES1    0.0000
     39 H19        0.3120    7.8602   20.0280 H         1 RES1    0.0000
     40 H20        1.8348    7.9000   19.5351 H         1 RES1    0.0000
     41 C13        1.2587    6.0247   20.2060 C.3       1 RES1    0.0000
     42 H21        1.7270    6.2065   21.0715 H         1 RES1    0.0000
     43 C14        2.1462    5.0747   19.3750 C.3       1 RES1    0.0000
     44 H22        3.1015    5.3586   19.4519 H         1 RES1    0.0000
     45 C15        1.9550    3.7111   20.0824 C.3       1 RES1    0.0000
     46 H23        1.9780    2.9682   19.4295 H         1 RES1    0.0000
     47 H24        2.6606    3.5635   20.7610 H         1 RES1    0.0000
     48 C16        0.5929    3.8140   20.7348 C.2       1 RES1    0.0000
     49 C17        0.0031    5.1890   20.5149 C.3       1 RES1    0.0000
     50 H25       -0.5568    5.1552   19.6855 H         1 RES1    0.0000
     51 C18       -0.1883    5.6055   15.5372 C.3       1 RES1    0.0000
     52 H26       -0.8881    6.1598   15.9405 H         1 RES1    0.0000
     53 H27       -0.1806    4.7248   15.9661 H         1 RES1    0.0000
     54 H28       -0.3675    5.5002   14.5801 H         1 RES1    0.0000
     55 C19       -0.8676    5.7103   21.6493 C.3       1 RES1    0.0000
     56 H29       -0.3226    5.8159   22.4575 H         1 RES1    0.0000
     57 H30       -1.5919    5.0733   21.8237 H         1 RES1    0.0000
     58 H31       -1.2487    6.5773   21.3980 H         1 RES1    0.0000
     59 C20        0.0174    0.6857   22.1669 C.ar      1 RES1    0.0000
     60 C21        0.5574   -0.6272   22.2158 C.ar      1 RES1    0.0000
     61 C22       -0.1196   -1.6737   22.8298 C.ar      1 RES1    0.0000
     62 H32        0.2460   -2.5507   22.8352 H         1 RES1    0.0000
     63 C23       -1.3266   -1.4156   23.4296 C.ar      1 RES1    0.0000
     64 C24       -1.8640   -0.1215   23.4732 C.ar      1 RES1    0.0000
     65 H33       -2.6793    0.0433   23.9331 H         1 RES1    0.0000
     66 C25       -1.2045    0.9016   22.8506 C.ar      1 RES1    0.0000
     67 H34       -1.5744    1.7765   22.8768 H         1 RES1    0.0000
@<TRIPOS>BOND
     1    1    8 2
     2    2    8 2
     3    3    9 2
     4    4    9 2
     5    5    6 1
     6    6    7 1
     7    8   60 1
     8    9   63 1
     9   10   11 1
    10   12   10 1
    11   13   10 1
    12   14   13 1
    13   15   13 1
    14   16   13 1
    15   17   16 1
    16   18   16 1
    17   19   16 1
    18   20   19 1
    19   21   19 1
    20   22   19 1
    21   23   22 1
    22   24   22 1
    23   25   24 1
    24   26   24 1
    25   27   24 1
    26   28   27 1
    27   29   27 1
    28   30   27 1
    29   31   30 1
    30   32   30 1
    31   33   32 1
    32   34   10 1
    33   35   32 1
    34   36   35 1
    35   37   35 1
    36   38   35 1
    37   39   38 1
    38   40   38 1
    39   41   38 1
    40   42   41 1
    41   43   30 1
    42   44   43 1
    43   45   43 1
    44   46   45 1
    45   47   45 1
    46   48    5 2
    47   49   41 1
    48   50   49 1
    49   51   34 1
    50   52   51 1
    51   53   51 1
    52   54   51 1
    53   55   49 1
    54   56   55 1
    55   57   55 1
    56   58   55 1
    57   59    6 1
    58   60   59 ar
    59   61   60 ar
    60   62   61 1
    61   63   61 ar
    62   64   63 ar
    63   65   64 1
    64   66   59 ar
    65   67   66 1
    66   22   34 1
    67   32   34 1
    68   41   43 1
    69   45   48 1
    70   48   49 1
    71   64   66 ar
@<TRIPOS>SUBSTRUCTURE
     1 RES1 1

@<TRIPOS>CRYSIN
   6.2280   11.6950   32.0090  90.0000  90.0000  90.0000  19 1

