# MOL2 file generated by ConQuest
# Please check atom types

@<TRIPOS>MOLECULE
SIKCAT
    44    46     1
SMALL
NO_CHARGES
****
Generated from CSD

@<TRIPOS>ATOM
      1 O1         9.8158    2.7138   10.1528 O.3       1 RES1    0.0000
      2 O2         9.1778   -0.6444   11.2590 O.3       1 RES1    0.0000
      3 O3        10.2664    0.4872   13.4853 O.2       1 RES1    0.0000
      4 O4         8.4098   -0.4306    6.6758 O.3       1 RES1    0.0000
      5 O5         8.5253   -2.4878    7.5503 O.2       1 RES1    0.0000
      6 C1        10.4652    2.5583   12.4000 C.2       1 RES1    0.0000
      7 H1        10.8016    2.9810   13.1571 H         1 RES1    0.0000
      8 C2         8.7932   -0.5589    8.9237 C.2       1 RES1    0.0000
      9 C3         8.8504    0.9425    8.8784 C.3       1 RES1    0.0000
     10 H2         9.4603    1.1988    8.1552 H         1 RES1    0.0000
     11 C4         9.5712    0.6747   11.2374 C.2       1 RES1    0.0000
     12 N1         8.7805   -2.5594   10.2539 N.pl3     1 RES1    0.0000
     13 H3         8.6067   -3.0679    9.5821 H         1 RES1    0.0000
     14 H4         8.8726   -2.8985   11.0378 H         1 RES1    0.0000
     15 C5         9.4354    1.4102   10.1562 C.2       1 RES1    0.0000
     16 C6        10.1144    1.1843   12.4720 C.2       1 RES1    0.0000
     17 C7         8.9052   -1.2480   10.0780 C.2       1 RES1    0.0000
     18 C8         7.5171    1.6259    8.6325 C.ar      1 RES1    0.0000
     19 C9        10.3238    3.2547   11.2806 C.2       1 RES1    0.0000
     20 C10        7.4756    2.8536    8.0410 C.ar      1 RES1    0.0000
     21 H5         8.2637    3.2633    7.7653 H         1 RES1    0.0000
     22 C11       10.6913    4.6735   11.1006 C.3       1 RES1    0.0000
     23 H6        11.2038    4.7850   10.2848 H         1 RES1    0.0000
     24 H7         9.8929    5.2208   11.0378 H         1 RES1    0.0000
     25 C12        8.5657   -1.2784    7.6850 C.2       1 RES1    0.0000
     26 O6        11.4486    5.0611   12.1952 O.3       1 RES1    0.0000
     27 H8        11.5051    5.8795   12.2127 H         1 RES1    0.0000
     28 C13        6.2797    3.4820    7.8527 C.ar      1 RES1    0.0000
     29 O7         7.2915    5.3076    6.9083 O.2       1 RES1    0.0000
     30 C14        5.1048    2.9318    8.2272 C.ar      1 RES1    0.0000
     31 H9         4.3017    3.3806    8.0945 H         1 RES1    0.0000
     32 C15        5.1308    1.7012    8.8044 C.ar      1 RES1    0.0000
     33 H10        4.3356    1.2943    9.0626 H         1 RES1    0.0000
     34 C16        6.3245    1.0554    9.0081 C.ar      1 RES1    0.0000
     35 H11        6.3258    0.2157    9.4093 H         1 RES1    0.0000
     36 N2         6.2548    4.7922    7.2241 N.pl3     1 RES1    0.0000
     37 O8         5.2091    5.3294    7.0585 O.2       1 RES1    0.0000
     38 C17        8.0868   -0.9860    5.3857 C.3       1 RES1    0.0000
     39 H12        8.8696   -1.4058    4.9968 H         1 RES1    0.0000
     40 H13        7.3912   -1.6563    5.4752 H         1 RES1    0.0000
     41 C18        7.6388    0.0753    4.5565 C.3       1 RES1    0.0000
     42 H14        6.8629    0.4821    4.9485 H         1 RES1    0.0000
     43 H15        7.4147   -0.2693    3.6882 H         1 RES1    0.0000
     44 H16        8.3354    0.7297    4.4701 H         1 RES1    0.0000
@<TRIPOS>BOND
     1    1   15 1
     2    2   11 1
     3    3   16 2
     4    4   25 1
     5    5   25 2
     6    6    7 1
     7    8    9 1
     8    9   10 1
     9   11   15 2
    10   12   13 1
    11   14   12 1
    12   15    9 1
    13   16    6 1
    14   17    2 1
    15   18    9 1
    16   19    1 1
    17   20   18 ar
    18   21   20 1
    19   22   19 1
    20   23   22 1
    21   24   22 1
    22   25    8 1
    23   26   22 1
    24   27   26 1
    25   28   20 ar
    26   29   36 2
    27   30   28 ar
    28   31   30 1
    29   32   30 ar
    30   33   32 1
    31   34   18 ar
    32   35   34 1
    33   36   28 1
    34   37   36 2
    35   38    4 1
    36   39   38 1
    37   40   38 1
    38   41   38 1
    39   42   41 1
    40   43   41 1
    41   44   41 1
    42    6   19 2
    43    8   17 2
    44   11   16 1
    45   12   17 1
    46   32   34 ar
@<TRIPOS>SUBSTRUCTURE
     1 RES1 1

@<TRIPOS>CRYSIN
  11.7680   14.4780   10.3110  90.0000  93.8390  90.0000  14 1

