# MOL2 file generated by ConQuest
# Please check atom types

@<TRIPOS>MOLECULE
SIKTEL
    46    48     1
SMALL
NO_CHARGES
****
Generated from CSD

@<TRIPOS>ATOM
      1 N1        -0.2236    3.3647    8.1098 N.am      1 RES1    0.0000
      2 N2        -2.9260    0.3088   11.9788 N.pl3     1 RES1    0.0000
      3 O1         0.9348    4.8283    9.4633 O.2       1 RES1    0.0000
      4 O2         0.0770    5.0733    5.5894 O.3       1 RES1    0.0000
      5 O3        -1.5392    3.1752    6.1914 O.3       1 RES1    0.0000
      6 O4        -2.4380    0.2136   13.0915 O.2       1 RES1    0.0000
      7 O5        -3.9586   -0.2599   11.6584 O.2       1 RES1    0.0000
      8 C1         0.7774    4.2814    8.3909 C.2       1 RES1    0.0000
      9 C2         1.6893    4.3884    7.1893 C.3       1 RES1    0.0000
     10 C3         0.7760    3.9191    6.0284 C.3       1 RES1    0.0000
     11 C4        -0.2463    2.9663    6.7100 C.3       1 RES1    0.0000
     12 C5        -0.9236    2.6302    9.1007 C.ar      1 RES1    0.0000
     13 C6        -0.3483    2.4135   10.3460 C.ar      1 RES1    0.0000
     14 C7        -1.0138    1.6621   11.2977 C.ar      1 RES1    0.0000
     15 C8        -2.2388    1.1267   10.9840 C.ar      1 RES1    0.0000
     16 C9        -2.8224    1.3180    9.7663 C.ar      1 RES1    0.0000
     17 C10       -2.1657    2.0787    8.8220 C.ar      1 RES1    0.0000
     18 C11        2.2492    5.7895    7.0116 C.3       1 RES1    0.0000
     19 C12        2.8392    3.4163    7.4965 C.3       1 RES1    0.0000
     20 C13        1.5413    3.2927    4.8686 C.ar      1 RES1    0.0000
     21 C14        1.8835    1.9400    4.8188 C.ar      1 RES1    0.0000
     22 C15        2.6388    1.4393    3.7687 C.ar      1 RES1    0.0000
     23 C16        3.0629    2.2690    2.7608 C.ar      1 RES1    0.0000
     24 C17        2.7408    3.6072    2.7956 C.ar      1 RES1    0.0000
     25 C18        1.9875    4.1174    3.8426 C.ar      1 RES1    0.0000
     26 C19       -1.8821    2.2963    5.1281 C.3       1 RES1    0.0000
     27 H1        -0.7965    4.8249    5.2763 H         1 RES1    0.0000
     28 H2        -0.0101    1.9510    6.6779 H         1 RES1    0.0000
     29 H3         0.5623    2.7901   10.5527 H         1 RES1    0.0000
     30 H4        -0.6080    1.5104   12.2221 H         1 RES1    0.0000
     31 H5        -3.7250    0.9230    9.5634 H         1 RES1    0.0000
     32 H6        -2.5888    2.2237    7.9145 H         1 RES1    0.0000
     33 H7         2.7711    6.0626    7.8321 H         1 RES1    0.0000
     34 H8         1.4924    6.4402    6.8840 H         1 RES1    0.0000
     35 H9         2.8628    5.8738    6.2141 H         1 RES1    0.0000
     36 H10        2.5045    2.4754    7.6053 H         1 RES1    0.0000
     37 H11        3.3314    3.6712    8.3370 H         1 RES1    0.0000
     38 H12        3.4562    3.4823    6.7088 H         1 RES1    0.0000
     39 H13        1.5643    1.3216    5.5546 H         1 RES1    0.0000
     40 H14        2.8837    0.4615    3.7511 H         1 RES1    0.0000
     41 H15        3.6132    1.8880    1.9992 H         1 RES1    0.0000
     42 H16        3.0554    4.2166    2.0508 H         1 RES1    0.0000
     43 H17        1.7591    5.1186    3.8645 H         1 RES1    0.0000
     44 H18       -1.8319    1.3426    5.4618 H         1 RES1    0.0000
     45 H19       -1.2229    2.3915    4.3798 H         1 RES1    0.0000
     46 H20       -2.8050    2.4334    4.7508 H         1 RES1    0.0000
@<TRIPOS>BOND
     1    1    8 1
     2    2    6 2
     3    3    8 2
     4    4   10 1
     5    5   11 1
     6    7    2 2
     7    8    9 1
     8    9   10 1
     9   10   11 1
    10   11    1 1
    11   12    1 1
    12   13   12 ar
    13   14   13 ar
    14   15    2 1
    15   16   15 ar
    16   17   12 ar
    17   18    9 1
    18   19    9 1
    19   20   10 1
    20   21   20 ar
    21   22   21 ar
    22   23   22 ar
    23   24   23 ar
    24   25   20 ar
    25   26    5 1
    26   27    4 1
    27   28   11 1
    28   29   13 1
    29   30   14 1
    30   31   16 1
    31   32   17 1
    32   33   18 1
    33   34   18 1
    34   35   18 1
    35   36   19 1
    36   37   19 1
    37   38   19 1
    38   39   21 1
    39   40   22 1
    40   41   23 1
    41   42   24 1
    42   43   25 1
    43   44   26 1
    44   45   26 1
    45   46   26 1
    46   14   15 ar
    47   16   17 ar
    48   24   25 ar
@<TRIPOS>SUBSTRUCTURE
     1 RES1 1

@<TRIPOS>CRYSIN
   8.0120   20.9780   10.3530  90.0000  95.5000  90.0000 231 1

