# MOL2 file generated by ConQuest
# Please check atom types

@<TRIPOS>MOLECULE
SILGUQ
    18    18     1
SMALL
USER_CHARGES
****
Generated from CSD

@<TRIPOS>ATOM
      1 N1         2.5592    1.8278   10.2593 N.pl3     1 RES1    1.0000
      2 O1         1.9833    2.7339   11.0343 O.2       1 RES1   -1.0000
      3 O2         1.1062    0.9412   12.4567 O.3       1 RES1    0.0000
      4 H1         1.2581    1.6806   12.1352 H         1 RES1    0.0000
      5 O3         1.7986   -1.1405   12.0741 O.2       1 RES1    0.0000
      6 O4         5.1371   -0.5156    6.7373 O.3       1 RES1    0.0000
      7 H2         5.5145   -1.1805    6.3299 H         1 RES1    0.0000
      8 O5         4.5480   -2.1831    8.1046 O.2       1 RES1    0.0000
      9 C1         2.5054    0.5009   10.5666 C.ar      1 RES1    0.0000
     10 C2         3.1514   -0.4044    9.7541 C.ar      1 RES1    0.0000
     11 H3         3.1080   -1.3118    9.9520 H         1 RES1    0.0000
     12 C3         3.8661    0.0203    8.6438 C.ar      1 RES1    0.0000
     13 C4         3.8989    1.3784    8.3545 C.ar      1 RES1    0.0000
     14 H4         4.3724    1.6876    7.6156 H         1 RES1    0.0000
     15 C5         3.2284    2.2639    9.1649 C.ar      1 RES1    0.0000
     16 H5         3.2341    3.1712    8.9598 H         1 RES1    0.0000
     17 C6         1.7582    0.0388   11.7917 C.2       1 RES1    0.0000
     18 C7         4.5542   -1.0135    7.8084 C.2       1 RES1    0.0000
@<TRIPOS>BOND
     1    1    2 1
     2    3    4 1
     3    5   17 2
     4    6    7 1
     5    8   18 2
     6    9    1 ar
     7   10    9 ar
     8   11   10 1
     9   12   10 ar
    10   13   12 ar
    11   14   13 1
    12   15    1 ar
    13   16   15 1
    14   17    3 1
    15   18    6 1
    16    9   17 1
    17   12   18 1
    18   13   15 ar
@<TRIPOS>SUBSTRUCTURE
     1 RES1 1

@<TRIPOS>CRYSIN
   7.3230    6.9850   13.9820  90.0000  95.6140  90.0000 231 1

