# MOL2 file generated by ConQuest
# Please check atom types

@<TRIPOS>MOLECULE
SILRUB
    28    29     1
SMALL
NO_CHARGES
****
Generated from CSD

@<TRIPOS>ATOM
      1 O1        -1.1939    2.2257    3.0085 O.2       1 RES1    0.0000
      2 O2        -1.2266    0.2832    2.0949 O.2       1 RES1    0.0000
      3 O3         4.9102    1.4860    2.1307 O.3       1 RES1    0.0000
      4 N1        -0.6325    1.2668    2.5019 N.pl3     1 RES1    0.0000
      5 C1         0.8301    1.2986    2.3800 C.ar      1 RES1    0.0000
      6 C2         1.5065    2.4190    2.8020 C.ar      1 RES1    0.0000
      7 C3         2.8777    2.4372    2.7017 C.ar      1 RES1    0.0000
      8 C4         3.5599    1.3515    2.1742 C.ar      1 RES1    0.0000
      9 C5         2.8603    0.2325    1.7485 C.ar      1 RES1    0.0000
     10 C6         1.4817    0.2123    1.8533 C.ar      1 RES1    0.0000
     11 C7         5.6822    0.4055    1.5817 C.3       1 RES1    0.0000
     12 C8         7.1180    0.8304    1.5300 C.ar      1 RES1    0.0000
     13 C9         7.4872    1.9529    0.8065 C.ar      1 RES1    0.0000
     14 C10        8.8088    2.3329    0.7295 C.ar      1 RES1    0.0000
     15 C11        9.7831    1.5962    1.3707 C.ar      1 RES1    0.0000
     16 C12        9.4335    0.4686    2.0792 C.ar      1 RES1    0.0000
     17 C13        8.1061    0.0902    2.1563 C.ar      1 RES1    0.0000
     18 H1         1.0456    3.1495    3.1484 H         1 RES1    0.0000
     19 H2         3.3517    3.1840    2.9898 H         1 RES1    0.0000
     20 H3         3.3146   -0.4984    1.3946 H         1 RES1    0.0000
     21 H4         1.0000   -0.5307    1.5689 H         1 RES1    0.0000
     22 H5         5.3670    0.1916    0.6891 H         1 RES1    0.0000
     23 H6         5.5889   -0.3843    2.1361 H         1 RES1    0.0000
     24 H7         6.8371    2.4542    0.3704 H         1 RES1    0.0000
     25 H8         9.0459    3.0893    0.2432 H         1 RES1    0.0000
     26 H9        10.6734    1.8600    1.3235 H         1 RES1    0.0000
     27 H10       10.0886   -0.0366    2.5042 H         1 RES1    0.0000
     28 H11        7.8734   -0.6717    2.6359 H         1 RES1    0.0000
@<TRIPOS>BOND
     1    1    4 2
     2    2    4 2
     3    3    8 1
     4    4    5 1
     5    5    6 ar
     6    6    7 ar
     7    7    8 ar
     8    8    9 ar
     9    9   10 ar
    10   10    5 ar
    11   11    3 1
    12   12   11 1
    13   13   12 ar
    14   14   13 ar
    15   15   14 ar
    16   16   15 ar
    17   17   12 ar
    18   18    6 1
    19   19    7 1
    20   20    9 1
    21   21   10 1
    22   22   11 1
    23   23   11 1
    24   24   13 1
    25   25   14 1
    26   26   15 1
    27   27   16 1
    28   28   17 1
    29   16   17 ar
@<TRIPOS>SUBSTRUCTURE
     1 RES1 1

@<TRIPOS>CRYSIN
  14.0913   10.7640    7.6056  90.0000 100.3490  90.0000  14 1

