# MOL2 file generated by ConQuest
# Please check atom types

@<TRIPOS>MOLECULE
SILTOW12
    32    33     1
SMALL
NO_CHARGES
****
Generated from CSD

@<TRIPOS>ATOM
      1 C1        -2.3563    7.0287   11.9374 C.ar      1 RES1    0.0000
      2 C2        -1.4355    6.0298   11.6671 C.ar      1 RES1    0.0000
      3 H1        -1.4721    5.5379   10.8544 H         1 RES1    0.0000
      4 C3        -0.4591    5.7685   12.6169 C.ar      1 RES1    0.0000
      5 C4        -0.3749    6.4269   13.8282 C.ar      1 RES1    0.0000
      6 H2         0.3065    6.2175   14.4559 H         1 RES1    0.0000
      7 C5        -1.3209    7.4046   14.0923 C.ar      1 RES1    0.0000
      8 H3        -1.2978    7.8696   14.9200 H         1 RES1    0.0000
      9 C6        -2.3002    7.7102   13.1595 C.ar      1 RES1    0.0000
     10 H4        -2.9386    8.3870   13.3514 H         1 RES1    0.0000
     11 C7        -3.8619    6.7075   10.0041 C.2       1 RES1    0.0000
     12 N1        -3.2889    7.4706   10.9839 N.am      1 RES1    0.0000
     13 N2         0.5498    4.7432   12.3036 N.pl3     1 RES1    0.0000
     14 O1        -3.8619    5.4907   10.0041 O.2       1 RES1    0.0000
     15 O2         0.3995    4.0621   11.2976 O.2       1 RES1    0.0000
     16 O3         1.5100    4.6361   13.0703 O.2       1 RES1    0.0000
     17 H5        -3.4814    8.3007   10.9684 H         1 RES1    0.0000
     18 C1A       -5.3674    7.0287    8.0707 C.ar      1 RES1    0.0000
     19 C2A       -6.2883    6.0298    8.3410 C.ar      1 RES1    0.0000
     20 H1A       -6.2516    5.5379    9.1537 H         1 RES1    0.0000
     21 C3A       -7.2647    5.7685    7.3912 C.ar      1 RES1    0.0000
     22 C4A       -7.3489    6.4269    6.1799 C.ar      1 RES1    0.0000
     23 H2A       -8.0303    6.2175    5.5523 H         1 RES1    0.0000
     24 C5A       -6.4028    7.4046    5.9158 C.ar      1 RES1    0.0000
     25 H3A       -6.4260    7.8696    5.0881 H         1 RES1    0.0000
     26 C6A       -5.4236    7.7102    6.8486 C.ar      1 RES1    0.0000
     27 H4A       -4.7852    8.3870    6.6567 H         1 RES1    0.0000
     28 N1A       -4.4349    7.4706    9.0243 N.am      1 RES1    0.0000
     29 N2A       -8.2736    4.7432    7.7045 N.pl3     1 RES1    0.0000
     30 O2A       -8.1233    4.0621    8.7105 O.2       1 RES1    0.0000
     31 O3A       -9.2337    4.6361    6.9378 O.2       1 RES1    0.0000
     32 H5A       -4.2424    8.3007    9.0397 H         1 RES1    0.0000
@<TRIPOS>BOND
     1    1    2 ar
     2    2    3 1
     3    4    2 ar
     4    5    4 ar
     5    6    5 1
     6    7    5 ar
     7    8    7 1
     8    9    1 ar
     9   10    9 1
    10   11   12 1
    11   12    1 1
    12   13    4 1
    13   14   11 2
    14   15   13 2
    15   16   13 2
    16   17   12 1
    17   18   19 ar
    18   19   20 1
    19   21   19 ar
    20   22   21 ar
    21   23   22 1
    22   24   22 ar
    23   25   24 1
    24   26   18 ar
    25   27   26 1
    26   28   11 1
    27   29   21 1
    28   30   29 2
    29   31   29 2
    30   32   28 1
    31    7    9 ar
    32   18   28 1
    33   24   26 ar
@<TRIPOS>SUBSTRUCTURE
     1 RES1 1

