# MOL2 file generated by ConQuest
# Please check atom types

@<TRIPOS>MOLECULE
SILTOW11
    32    33     1
SMALL
NO_CHARGES
****
Generated from CSD

@<TRIPOS>ATOM
      1 O1         1.3294    5.9730   12.0602 O.2       1 RES1    0.0000
      2 O2         0.6252    7.9084   12.7327 O.2       1 RES1    0.0000
      3 O3         3.5391   11.8916    8.0342 O.2       1 RES1    0.0000
      4 O4         4.8650   14.2441    4.4287 O.2       1 RES1    0.0000
      5 O5         4.2079   16.1914    3.7580 O.2       1 RES1    0.0000
      6 N1         1.6907   11.0001    9.0605 N.am      1 RES1    0.0000
      7 H1         0.9071   11.2090    9.3763 H         1 RES1    0.0000
      8 N2         1.2576    7.1925   11.9582 N.pl3     1 RES1    0.0000
      9 N3         1.5422   13.0158    8.0236 N.am      1 RES1    0.0000
     10 H2         0.7155   12.9596    8.2341 H         1 RES1    0.0000
     11 N4         4.1486   15.2298    4.5257 N.pl3     1 RES1    0.0000
     12 C1         2.1940    9.7504    9.4351 C.ar      1 RES1    0.0000
     13 C2         1.5683    9.1146   10.5100 C.ar      1 RES1    0.0000
     14 C3         1.9624    7.8388   10.8451 C.ar      1 RES1    0.0000
     15 C4         2.9627    7.1450   10.1847 C.ar      1 RES1    0.0000
     16 C5         3.5901    7.8008    9.1336 C.ar      1 RES1    0.0000
     17 C6         3.2147    9.0857    8.7515 C.ar      1 RES1    0.0000
     18 H3         3.6446    9.5027    8.0398 H         1 RES1    0.0000
     19 C7         2.3517   11.9647    8.3436 C.2       1 RES1    0.0000
     20 C8         1.9268   14.1525    7.2968 C.ar      1 RES1    0.0000
     21 C9         2.8996   14.1118    6.2994 C.ar      1 RES1    0.0000
     22 H4         3.3587   13.3263    6.1071 H         1 RES1    0.0000
     23 C10        3.1578   15.2836    5.6055 C.ar      1 RES1    0.0000
     24 C11        2.5201   16.4870    5.8573 C.ar      1 RES1    0.0000
     25 H5         2.7323   17.2567    5.3785 H         1 RES1    0.0000
     26 C12        1.5520   16.5008    6.8509 C.ar      1 RES1    0.0000
     27 H6         1.0999   17.2917    7.0433 H         1 RES1    0.0000
     28 C13        1.2510   15.3484    7.5613 C.ar      1 RES1    0.0000
     29 H7         0.5943   15.3716    8.2194 H         1 RES1    0.0000
     30 H8         0.8787    9.5506   11.0161 H         1 RES1    0.0000
     31 H9         4.2690    7.3505    8.6683 H         1 RES1    0.0000
     32 H10        3.2128    6.2780   10.4774 H         1 RES1    0.0000
@<TRIPOS>BOND
     1    1    8 2
     2    2    8 2
     3    3   19 2
     4    4   11 2
     5    5   11 2
     6    6    7 1
     7    8   14 1
     8    9   10 1
     9   11   23 1
    10   12    6 1
    11   13   12 ar
    12   14   13 ar
    13   15   14 ar
    14   16   15 ar
    15   17   12 ar
    16   18   17 1
    17   19    6 1
    18   20    9 1
    19   21   20 ar
    20   22   21 1
    21   23   21 ar
    22   24   23 ar
    23   25   24 1
    24   26   24 ar
    25   27   26 1
    26   28   20 ar
    27   29   28 1
    28   30   13 1
    29   31   16 1
    30   32   15 1
    31    9   19 1
    32   16   17 ar
    33   26   28 ar
@<TRIPOS>SUBSTRUCTURE
     1 RES1 1

@<TRIPOS>CRYSIN
   4.6868   18.4268   14.7201  90.0000  90.5000  90.0000  14 1

