# MOL2 file generated by ConQuest
# Please check atom types

@<TRIPOS>MOLECULE
SIMJII
    59    62     1
SMALL
NO_CHARGES
****
Generated from CSD

@<TRIPOS>ATOM
      1 O1         1.5528   -3.8151    9.0169 O.3       1 RES1    0.0000
      2 O2         2.5442    0.4746   10.4703 O.3       1 RES1    0.0000
      3 O3        -0.0830    1.1751    4.4378 O.3       1 RES1    0.0000
      4 O4        -0.7483    1.7317    2.0045 O.3       1 RES1    0.0000
      5 O5        -0.3624    4.9419    0.6822 O.2       1 RES1    0.0000
      6 N1         0.4405    1.1648    5.7665 N.2       1 RES1    0.0000
      7 N2        -0.0021   -0.9327    5.0602 N.2       1 RES1    0.0000
      8 N3         0.5941    3.8977    2.4194 N.am      1 RES1    0.0000
      9 H1         0.7067    3.1326    2.7961 H         1 RES1    0.0000
     10 C1         1.0726   -4.7258    8.0395 C.3       1 RES1    0.0000
     11 H2         1.1732   -5.6243    8.3628 H         1 RES1    0.0000
     12 H3         1.5738   -4.6193    7.2288 H         1 RES1    0.0000
     13 H4         0.1443   -4.5495    7.8677 H         1 RES1    0.0000
     14 C2         2.5809    1.8804   10.2896 C.3       1 RES1    0.0000
     15 H5         2.9853    2.2912   11.0570 H         1 RES1    0.0000
     16 H6         1.6871    2.2129   10.1827 H         1 RES1    0.0000
     17 H7         3.0959    2.0883    9.5069 H         1 RES1    0.0000
     18 C3         2.0199   -0.2761    9.4573 C.ar      1 RES1    0.0000
     19 C4         2.0183   -1.6358    9.6507 C.ar      1 RES1    0.0000
     20 H8         2.3709   -1.9878   10.4360 H         1 RES1    0.0000
     21 C5         1.5072   -2.4776    8.7064 C.ar      1 RES1    0.0000
     22 C6         0.9698   -1.9793    7.5266 C.ar      1 RES1    0.0000
     23 H9         0.6051   -2.5518    6.8903 H         1 RES1    0.0000
     24 C7         0.9906   -0.6255    7.3230 C.ar      1 RES1    0.0000
     25 C8         1.5047    0.2489    8.2712 C.ar      1 RES1    0.0000
     26 H10        1.5052    1.1665    8.1197 H         1 RES1    0.0000
     27 C9         0.4592   -0.0974    6.0491 C.2       1 RES1    0.0000
     28 C10       -0.3237   -0.0957    4.1171 C.2       1 RES1    0.0000
     29 C11       -0.8826   -0.4589    2.8063 C.ar      1 RES1    0.0000
     30 C12       -1.1798   -1.7939    2.5963 C.ar      1 RES1    0.0000
     31 H11       -0.9769   -2.4153    3.2581 H         1 RES1    0.0000
     32 C13       -1.7677   -2.2211    1.4292 C.ar      1 RES1    0.0000
     33 H12       -1.9625   -3.1203    1.2956 H         1 RES1    0.0000
     34 C14       -2.0623   -1.2878    0.4658 C.ar      1 RES1    0.0000
     35 H13       -2.4931   -1.5594   -0.3131 H         1 RES1    0.0000
     36 C15       -1.7410    0.0136    0.6198 C.ar      1 RES1    0.0000
     37 H14       -1.9380    0.6244   -0.0535 H         1 RES1    0.0000
     38 C16       -1.1214    0.4374    1.7767 C.ar      1 RES1    0.0000
     39 C17       -0.9565    2.7134    1.0041 C.3       1 RES1    0.0000
     40 H15       -1.9049    2.8982    0.9163 H         1 RES1    0.0000
     41 H16       -0.6300    2.3877    0.1502 H         1 RES1    0.0000
     42 C18       -0.2342    3.9530    1.3796 C.2       1 RES1    0.0000
     43 C19        1.3116    5.0053    2.9577 C.ar      1 RES1    0.0000
     44 C20        0.8659    5.5804    4.1298 C.ar      1 RES1    0.0000
     45 C21        1.6342    6.6000    4.6822 C.ar      1 RES1    0.0000
     46 H17        1.3719    6.9936    5.4827 H         1 RES1    0.0000
     47 C22        2.7532    7.0190    4.0688 C.ar      1 RES1    0.0000
     48 H18        3.2249    7.7249    4.4480 H         1 RES1    0.0000
     49 C23        3.2495    6.4470    2.8839 C.ar      1 RES1    0.0000
     50 H19        4.0409    6.7400    2.4932 H         1 RES1    0.0000
     51 C24        2.4927    5.4175    2.3239 C.ar      1 RES1    0.0000
     52 C25        2.9863    4.8054    1.0691 C.3       1 RES1    0.0000
     53 H20        3.7922    5.2474    0.7929 H         1 RES1    0.0000
     54 H21        2.3195    4.8983    0.3843 H         1 RES1    0.0000
     55 H22        3.1667    3.8738    1.2154 H         1 RES1    0.0000
     56 C26       -0.4626    5.1380    4.7522 C.3       1 RES1    0.0000
     57 H23       -0.8304    4.4132    4.2418 H         1 RES1    0.0000
     58 H24       -1.0779    5.8739    4.7509 H         1 RES1    0.0000
     59 H25       -0.3121    4.8484    5.6558 H         1 RES1    0.0000
@<TRIPOS>BOND
     1    1   10 1
     2    2   14 1
     3    3    6 1
     4    4   38 1
     5    5   42 2
     6    6   27 2
     7    7   27 1
     8    8    9 1
     9   10   11 1
    10   12   10 1
    11   13   10 1
    12   14   15 1
    13   16   14 1
    14   17   14 1
    15   18    2 1
    16   19   18 ar
    17   20   19 1
    18   21    1 1
    19   22   21 ar
    20   23   22 1
    21   24   22 ar
    22   25   18 ar
    23   26   25 1
    24   27   24 1
    25   28    3 1
    26   29   28 1
    27   30   29 ar
    28   31   30 1
    29   32   30 ar
    30   33   32 1
    31   34   32 ar
    32   35   34 1
    33   36   34 ar
    34   37   36 1
    35   38   29 ar
    36   39    4 1
    37   40   39 1
    38   41   39 1
    39   42    8 1
    40   43    8 1
    41   44   43 ar
    42   45   44 ar
    43   46   45 1
    44   47   45 ar
    45   48   47 1
    46   49   47 ar
    47   50   49 1
    48   51   43 ar
    49   52   51 1
    50   53   52 1
    51   54   52 1
    52   55   52 1
    53   56   44 1
    54   57   56 1
    55   58   56 1
    56   59   56 1
    57    7   28 2
    58   19   21 ar
    59   24   25 ar
    60   36   38 ar
    61   39   42 1
    62   49   51 ar
@<TRIPOS>SUBSTRUCTURE
     1 RES1 1

@<TRIPOS>CRYSIN
   7.3200   12.6300   13.1060  95.3700 101.0600 103.4800   2 1

