# MOL2 file generated by ConQuest
# Please check atom types

@<TRIPOS>MOLECULE
SIMJOQ
    45    46     1
SMALL
NO_CHARGES
****
Generated from CSD

@<TRIPOS>ATOM
      1 O1         3.6507    4.7517    7.9779 O.2       1 RES1    0.0000
      2 O2         2.3618    3.6017   11.6239 O.3       1 RES1    0.0000
      3 O3         4.4407    2.9561   12.1186 O.2       1 RES1    0.0000
      4 O4        -0.1318   -0.3420   16.6318 O.2       1 RES1    0.0000
      5 O5         1.5712   -1.6527   16.4053 O.2       1 RES1    0.0000
      6 N1         0.9586   -0.6268   16.1477 N.pl3     1 RES1    0.0000
      7 C1         2.8543    4.4503   10.5445 C.3       1 RES1    0.0000
      8 H1         3.7279    4.1174   10.1898 H         1 RES1    0.0000
      9 C2         2.9667    5.8974   11.0367 C.3       1 RES1    0.0000
     10 H2         3.8110    6.3049   10.7184 H         1 RES1    0.0000
     11 H3         2.9557    5.9265   12.0263 H         1 RES1    0.0000
     12 C3         1.7428    6.6662   10.4586 C.3       1 RES1    0.0000
     13 H4         2.0562    7.1954    9.6704 H         1 RES1    0.0000
     14 C4         0.8222    5.5536    9.9440 C.3       1 RES1    0.0000
     15 H5         0.2522    5.8834    9.2048 H         1 RES1    0.0000
     16 H6         0.2406    5.2150   10.6701 H         1 RES1    0.0000
     17 C5         1.7726    4.4558    9.4508 C.3       1 RES1    0.0000
     18 C6         1.0723    7.6183   11.4223 C.2       1 RES1    0.0000
     19 C7         0.9463    8.8987   11.1203 C.2       1 RES1    0.0000
     20 H7         0.5162    9.4899   11.7271 H         1 RES1    0.0000
     21 H8         1.2861    9.2282   10.2966 H         1 RES1    0.0000
     22 C8         0.5511    7.0533   12.7122 C.3       1 RES1    0.0000
     23 H9         0.0488    7.7446   13.1922 H         1 RES1    0.0000
     24 H10        1.3028    6.7529   13.2646 H         1 RES1    0.0000
     25 H11       -0.0384    6.2941   12.5217 H         1 RES1    0.0000
     26 C9         1.0623    3.1229    9.2294 C.3       1 RES1    0.0000
     27 H12        0.4143    3.2149    8.4998 H         1 RES1    0.0000
     28 H13        0.5946    2.8612   10.0501 H         1 RES1    0.0000
     29 H14        1.7212    2.4360    8.9960 H         1 RES1    0.0000
     30 C10        2.4461    4.8356    8.1270 C.2       1 RES1    0.0000
     31 C11        1.5905    5.2845    6.9828 C.3       1 RES1    0.0000
     32 H15        1.9753    4.9623    6.1410 H         1 RES1    0.0000
     33 H16        1.5497    6.2635    6.9698 H         1 RES1    0.0000
     34 H17        0.6864    4.9212    7.0887 H         1 RES1    0.0000
     35 C12        3.2630    2.8943   12.2992 C.2       1 RES1    0.0000
     36 C13        2.6270    2.0057   13.3132 C.ar      1 RES1    0.0000
     37 C14        3.3333    0.8812   13.7227 C.ar      1 RES1    0.0000
     38 H18        4.1945    0.7102   13.3594 H         1 RES1    0.0000
     39 C15        2.7992    0.0074   14.6528 C.ar      1 RES1    0.0000
     40 H19        3.2719   -0.7694   14.9267 H         1 RES1    0.0000
     41 C16        1.5542    0.3060   15.1686 C.ar      1 RES1    0.0000
     42 C17        0.8339    1.4204   14.7997 C.ar      1 RES1    0.0000
     43 H20       -0.0124    1.6018   15.1915 H         1 RES1    0.0000
     44 C18        1.3680    2.2712   13.8444 C.ar      1 RES1    0.0000
     45 H21        0.8776    3.0313   13.5540 H         1 RES1    0.0000
@<TRIPOS>BOND
     1    1   30 2
     2    2    7 1
     3    3   35 2
     4    4    6 2
     5    5    6 2
     6    6   41 1
     7    7    8 1
     8    9    7 1
     9   10    9 1
    10   11    9 1
    11   12    9 1
    12   13   12 1
    13   14   12 1
    14   15   14 1
    15   16   14 1
    16   17    7 1
    17   18   12 1
    18   19   18 2
    19   20   19 1
    20   21   19 1
    21   22   18 1
    22   23   22 1
    23   24   22 1
    24   25   22 1
    25   26   17 1
    26   27   26 1
    27   28   26 1
    28   29   26 1
    29   30   17 1
    30   31   30 1
    31   32   31 1
    32   33   31 1
    33   34   31 1
    34   35    2 1
    35   36   35 1
    36   37   36 ar
    37   38   37 1
    38   39   37 ar
    39   40   39 1
    40   41   39 ar
    41   42   41 ar
    42   43   42 1
    43   44   36 ar
    44   45   44 1
    45   14   17 1
    46   42   44 ar
@<TRIPOS>SUBSTRUCTURE
     1 RES1 1

@<TRIPOS>CRYSIN
   5.8561    9.2176   31.4525  90.0000  90.0000  90.0000  19 1

