# MOL2 file generated by ConQuest
# Please check atom types

@<TRIPOS>MOLECULE
SIMYIX
    32    34     1
SMALL
NO_CHARGES
****
Generated from CSD

@<TRIPOS>ATOM
      1 C1        23.0636   -1.2425    3.5638 C.ar      1 RES1    0.0000
      2 H1        22.5307   -1.2008    4.3260 H         1 RES1    0.0000
      3 C2        24.1535   -2.1029    3.5206 C.ar      1 RES1    0.0000
      4 H2        24.3547   -2.6351    4.2568 H         1 RES1    0.0000
      5 C3        24.9420   -2.1696    2.3817 C.ar      1 RES1    0.0000
      6 C4        24.6540   -1.3744    1.2859 C.ar      1 RES1    0.0000
      7 C5        23.5646   -0.5106    1.3119 C.ar      1 RES1    0.0000
      8 H3        23.3656    0.0167    0.5719 H         1 RES1    0.0000
      9 C6        22.7700   -0.4424    2.4607 C.ar      1 RES1    0.0000
     10 C7        21.6329    0.4287    2.5311 C.2       1 RES1    0.0000
     11 H4        21.1313    0.3635    3.3106 H         1 RES1    0.0000
     12 C8        26.5477   -2.5404    0.7968 C.3       1 RES1    0.0000
     13 H5        27.4120   -2.1102    0.8919 H         1 RES1    0.0000
     14 H6        26.6412   -3.2983    0.1989 H         1 RES1    0.0000
     15 C9        19.6045    2.9711    0.9215 C.ar      1 RES1    0.0000
     16 C10       20.2572    3.2144   -0.2915 C.ar      1 RES1    0.0000
     17 H7        21.0269    2.7400   -0.5114 H         1 RES1    0.0000
     18 C11       19.7482    4.1743   -1.1735 C.ar      1 RES1    0.0000
     19 H8        20.1920    4.3558   -1.9715 H         1 RES1    0.0000
     20 C12       18.5772    4.8576   -0.8548 C.ar      1 RES1    0.0000
     21 C13       17.9259    4.6016    0.3496 C.ar      1 RES1    0.0000
     22 H9        17.1465    5.0607    0.5633 H         1 RES1    0.0000
     23 C14       18.4394    3.6642    1.2291 C.ar      1 RES1    0.0000
     24 H10       18.0027    3.4969    2.0333 H         1 RES1    0.0000
     25 N1        21.1882    1.3210    1.6392 N.2       1 RES1    0.0000
     26 N2        20.0983    2.0999    1.8814 N.pl3     1 RES1    0.0000
     27 H11       19.6939    2.0406    2.5941 H         1 RES1    0.0000
     28 N3        18.1192    5.9338   -1.8851 N.pl3     1 RES1    0.0000
     29 O1        26.0420   -2.9740    2.1012 O.3       1 RES1    0.0000
     30 O2        25.5584   -1.5971    0.2804 O.3       1 RES1    0.0000
     31 O3        18.6431    5.9946   -2.9535 O.2       1 RES1    0.0000
     32 O4        16.9363    6.4160   -1.6108 O.2       1 RES1    0.0000
@<TRIPOS>BOND
     1    1    2 1
     2    3    1 ar
     3    4    3 1
     4    5    3 ar
     5    6    5 ar
     6    7    6 ar
     7    8    7 1
     8    9    1 ar
     9   10    9 1
    10   11   10 1
    11   12   13 1
    12   14   12 1
    13   15   16 ar
    14   16   17 1
    15   18   16 ar
    16   19   18 1
    17   20   18 ar
    18   21   20 ar
    19   22   21 1
    20   23   15 ar
    21   24   23 1
    22   25   10 2
    23   26   15 1
    24   27   26 1
    25   28   20 1
    26   29    5 1
    27   30    6 1
    28   31   28 2
    29   32   28 2
    30    7    9 ar
    31   12   29 1
    32   12   30 1
    33   21   23 ar
    34   25   26 1
@<TRIPOS>SUBSTRUCTURE
     1 RES1 1

@<TRIPOS>CRYSIN
  23.7190    4.9052   12.3530  90.0000  90.0000  90.0000  29 1

