# MOL2 file generated by ConQuest
# Please check atom types

@<TRIPOS>MOLECULE
SINJIJ01
    99   100     2
SMALL
NO_CHARGES
****
Generated from CSD

@<TRIPOS>ATOM
      1 O1         4.7011   18.7545    6.6496 O.2       1 RES1    0.0000
      2 O2         5.1524   16.6605    6.2812 O.2       1 RES1    0.0000
      3 O3         3.6360   16.4021   12.2920 O.3       1 RES1    0.0000
      4 O4        -0.1551   13.3868    8.2561 O.2       1 RES1    0.0000
      5 O5        -1.5881   13.9715    9.7506 O.2       1 RES1    0.0000
      6 O6         3.5650   13.2628   13.2321 O.3       1 RES1    0.0000
      7 O7         3.7875   14.4203   18.0911 O.2       1 RES1    0.0000
      8 O8         2.9072   16.2525   18.8108 O.2       1 RES1    0.0000
      9 O9        -0.7060   15.3347   13.8417 O.3       1 RES1    0.0000
     10 O10       -1.3136   17.7857    9.2117 O.2       1 RES1    0.0000
     11 O11       -2.7675   18.0185   10.7579 O.2       1 RES1    0.0000
     12 O12        2.3470   18.7732   14.1929 O.3       1 RES1    0.0000
     13 N1         4.7844   17.5749    7.0112 N.pl3     1 RES1    0.0000
     14 N2        -0.4545   13.6707    9.4046 N.pl3     1 RES1    0.0000
     15 N3         2.9888   15.3449   17.9912 N.pl3     1 RES1    0.0000
     16 N4        -1.6196   17.9607   10.3670 N.pl3     1 RES1    0.0000
     17 C1         4.4242   17.2605    8.3784 C.ar      1 RES1    0.0000
     18 C2         3.9579   18.2667    9.1997 C.ar      1 RES1    0.0000
     19 C3         3.6730   17.9794   10.5117 C.ar      1 RES1    0.0000
     20 C4         3.8847   16.6860   10.9817 C.ar      1 RES1    0.0000
     21 C5         4.2783   15.6440   10.1312 C.ar      1 RES1    0.0000
     22 C6         4.5722   15.9619    8.8226 C.ar      1 RES1    0.0000
     23 C7         4.8033   16.5585   13.1392 C.3       1 RES1    0.0000
     24 C8         4.4140   16.2593   14.5321 C.3       1 RES1    0.0000
     25 C9         5.5593   16.4973   15.5067 C.3       1 RES1    0.0000
     26 C10        4.3058   14.2316   10.6322 C.3       1 RES1    0.0000
     27 C11        0.5992   13.6316   10.4221 C.ar      1 RES1    0.0000
     28 C12        1.8975   13.8628   10.0537 C.ar      1 RES1    0.0000
     29 C13        2.9041   13.7982   11.0076 C.ar      1 RES1    0.0000
     30 C14        2.5684   13.4225   12.2903 C.ar      1 RES1    0.0000
     31 C15        1.2396   13.2611   12.6863 C.ar      1 RES1    0.0000
     32 C16        0.2513   13.3766   11.7273 C.ar      1 RES1    0.0000
     33 C17        4.1965   11.9523   13.1392 C.3       1 RES1    0.0000
     34 C18        5.5426   12.0322   13.8365 C.3       1 RES1    0.0000
     35 C19        5.5132   12.5217   15.2381 C.3       1 RES1    0.0000
     36 C20        0.8975   13.0078   14.1413 C.3       1 RES1    0.0000
     37 C21        2.0733   15.3738   16.8411 C.ar      1 RES1    0.0000
     38 C22        1.9574   14.2350   16.0645 C.ar      1 RES1    0.0000
     39 C23        1.0490   14.2350   15.0211 C.ar      1 RES1    0.0000
     40 C24        0.2900   15.3738   14.8059 C.ar      1 RES1    0.0000
     41 C25        0.4946   16.5687   15.5101 C.ar      1 RES1    0.0000
     42 C26        1.3912   16.5330   16.5570 C.ar      1 RES1    0.0000
     43 C27       -1.9873   14.9591   14.3754 C.3       1 RES1    0.0000
     44 C28       -3.0288   15.0321   13.2959 C.3       1 RES1    0.0000
     45 C29       -4.3725   14.6004   13.8038 C.3       1 RES1    0.0000
     46 C30       -0.1926   17.8621   15.0952 C.3       1 RES1    0.0000
     47 C31       -0.5564   18.1579   11.3691 C.ar      1 RES1    0.0000
     48 C32       -0.8753   18.0491   12.6949 C.ar      1 RES1    0.0000
     49 C33        0.1013   18.2021   13.6574 C.ar      1 RES1    0.0000
     50 C34        1.3740   18.5760   13.2373 C.ar      1 RES1    0.0000
     51 C35        1.7040   18.6814   11.8857 C.ar      1 RES1    0.0000
     52 C36        0.7243   18.4383   10.9421 C.ar      1 RES1    0.0000
     53 C37        2.5738   20.2145   14.5046 C.3       1 RES1    0.0000
     54 C38        3.8576   20.2621   15.3431 C.3       1 RES1    0.0000
     55 C39        3.6799   19.7233   16.6930 C.3       1 RES1    0.0000
     56 C40        3.1076   19.0060   11.4483 C.3       1 RES1    0.0000
     57 H1         3.7756   19.1726    8.7813 H         1 RES1    0.0000
     58 H2         4.8271   15.2463    8.1614 H         1 RES1    0.0000
     59 H3         5.3725   15.9432   12.7586 H         1 RES1    0.0000
     60 H4         5.1711   17.4729   13.0169 H         1 RES1    0.0000
     61 H5         3.6860   16.7930   14.7387 H         1 RES1    0.0000
     62 H6         4.1168   15.3483   14.5838 H         1 RES1    0.0000
     63 H7         5.2876   16.2661   16.4261 H         1 RES1    0.0000
     64 H8         6.2235   15.8752   15.3586 H         1 RES1    0.0000
     65 H9         5.8320   17.4559   15.4963 H         1 RES1    0.0000
     66 H10        4.4921   13.6486    9.8488 H         1 RES1    0.0000
     67 H11        4.8192   14.0565   11.4156 H         1 RES1    0.0000
     68 H12        2.0466   14.1245    9.1773 H         1 RES1    0.0000
     69 H13       -0.6713   13.2577   11.9666 H         1 RES1    0.0000
     70 H14        3.6677   11.2860   13.6368 H         1 RES1    0.0000
     71 H15        4.3853   11.7279   12.1044 H         1 RES1    0.0000
     72 H16        5.7921   11.0650   13.8262 H         1 RES1    0.0000
     73 H17        6.0132   12.6798   13.3441 H         1 RES1    0.0000
     74 H18        5.3601   13.4616   15.3069 H         1 RES1    0.0000
     75 H19        4.7398   12.0169   15.7546 H         1 RES1    0.0000
     76 H20        6.1454   12.1359   15.8063 H         1 RES1    0.0000
     77 H21        1.4707   12.2038   14.5666 H         1 RES1    0.0000
     78 H22       -0.0541   12.6798   14.1878 H         1 RES1    0.0000
     79 H23        2.4784   13.4276   16.2539 H         1 RES1    0.0000
     80 H24        1.5745   17.2520   17.1148 H         1 RES1    0.0000
     81 H25       -2.2377   15.5353   15.1003 H         1 RES1    0.0000
     82 H26       -1.9809   14.0225   14.7215 H         1 RES1    0.0000
     83 H27       -2.6936   14.4984   12.6726 H         1 RES1    0.0000
     84 H28       -3.0758   15.8922   12.9308 H         1 RES1    0.0000
     85 H29       -4.3279   13.8016   14.2050 H         1 RES1    0.0000
     86 H30       -5.0067   14.6684   13.1719 H         1 RES1    0.0000
     87 H31       -4.6233   15.1443   14.5838 H         1 RES1    0.0000
     88 H32        0.0953   18.5607   15.6513 H         1 RES1    0.0000
     89 H33       -1.3004   17.9318   15.2725 H         1 RES1    0.0000
     90 H34       -1.8086   17.8638   12.8620 H         1 RES1    0.0000
     91 H35        0.8995   18.4587    9.9693 H         1 RES1    0.0000
     92 H36        2.1212   20.1075   15.2553 H         1 RES1    0.0000
     93 H37        3.6948   19.1216   12.3110 H         1 RES1    0.0000
     94 H38        3.1007   19.8865   11.0368 H         1 RES1    0.0000
     95 H39        4.1661   20.9403   15.5136 H         1 RES1    0.0000
     96 H40        4.6408   20.0225   15.1864 H         1 RES1    0.0000
     97 H41        2.4960   20.8893   13.5335 Du        2 SUP2    0.0000
     98 H42        2.5129   19.5466   14.2566 Du        2 SUP2    0.0000
     99 H43        1.2785   20.7363   14.9454 Du        2 SUP2    0.0000
@<TRIPOS>BOND
     1    1   13 2
     2    2   13 2
     3    3   20 1
     4    4   14 2
     5    5   14 2
     6    6   30 1
     7    7   15 2
     8    8   15 2
     9    9   40 1
    10   10   16 2
    11   11   16 2
    12   12   50 1
    13   13   17 1
    14   14   27 1
    15   15   37 1
    16   16   47 1
    17   17   18 ar
    18   18   19 ar
    19   19   20 ar
    20   20   21 ar
    21   21   22 ar
    22   22   17 ar
    23   23    3 1
    24   24   23 1
    25   25   24 1
    26   26   21 1
    27   27   28 ar
    28   28   29 ar
    29   29   26 1
    30   30   29 ar
    31   31   30 ar
    32   32   27 ar
    33   33    6 1
    34   34   33 1
    35   35   34 1
    36   36   31 1
    37   37   38 ar
    38   38   39 ar
    39   39   36 1
    40   40   39 ar
    41   41   40 ar
    42   42   37 ar
    43   43    9 1
    44   44   43 1
    45   45   44 1
    46   46   41 1
    47   47   48 ar
    48   48   49 ar
    49   49   46 1
    50   50   49 ar
    51   51   50 ar
    52   52   47 ar
    53   53   12 1
    54   54   53 1
    55   55   54 1
    56   56   19 1
    57   57   18 1
    58   58   22 1
    59   59   23 1
    60   60   23 1
    61   61   24 1
    62   62   24 1
    63   63   25 1
    64   64   25 1
    65   65   25 1
    66   66   26 1
    67   67   26 1
    68   68   28 1
    69   69   32 1
    70   70   33 1
    71   71   33 1
    72   72   34 1
    73   73   34 1
    74   74   35 1
    75   75   35 1
    76   76   35 1
    77   77   36 1
    78   78   36 1
    79   79   38 1
    80   80   42 1
    81   81   43 1
    82   82   43 1
    83   83   44 1
    84   84   44 1
    85   85   45 1
    86   86   45 1
    87   87   45 1
    88   88   46 1
    89   89   46 1
    90   90   48 1
    91   91   52 1
    92   92   53 1
    93   93   56 1
    94   94   56 1
    95   95   54 1
    96   96   54 1
    97   31   32 ar
    98   41   42 ar
    99   51   52 ar
   100   51   56 1
@<TRIPOS>SUBSTRUCTURE
     1 RES1 1
     2 SUP2 97

@<TRIPOS>CRYSIN
  12.9100   16.9970   17.2260  90.0000  91.7300  90.0000  14 1

