# MOL2 file generated by ConQuest
# Please check atom types

@<TRIPOS>MOLECULE
SINJIJ
   100   104     1
SMALL
NO_CHARGES
****
Generated from CSD

@<TRIPOS>ATOM
      1 N1        16.1526    1.9648    2.1366 N.pl3     1 RES1    0.0000
      2 N2        13.1877   -1.9385    7.2704 N.pl3     1 RES1    0.0000
      3 N3        16.0645    4.0334    5.6967 N.pl3     1 RES1    0.0000
      4 N4        14.4595    8.6150    0.0728 N.pl3     1 RES1    0.0000
      5 O1        10.6679    1.9636    1.1209 O.3       1 RES1    0.0000
      6 O2        10.7945    2.1974    4.4238 O.3       1 RES1    0.0000
      7 O3        10.6174    5.1868    5.7743 O.3       1 RES1    0.0000
      8 O4        11.1974    4.9063    2.6029 O.3       1 RES1    0.0000
      9 O5        16.8614    2.6676    1.4352 O.2       1 RES1    0.0000
     10 O6        16.5923    1.1922    2.9686 O.2       1 RES1    0.0000
     11 O7        13.6993   -2.8625    6.6433 O.2       1 RES1    0.0000
     12 O8        13.1642   -1.8805    8.4967 O.2       1 RES1    0.0000
     13 O9        16.8434    4.9663    5.5438 O.2       1 RES1    0.0000
     14 O10       16.4290    2.8982    5.9308 O.2       1 RES1    0.0000
     15 O11       14.8276    9.6021    0.6988 O.2       1 RES1    0.0000
     16 O12       14.6875    8.4547   -1.1196 O.2       1 RES1    0.0000
     17 C1        12.5517    1.0089    2.2565 C.ar      1 RES1    0.0000
     18 C2        11.6863   -0.0546    2.9110 C.3       1 RES1    0.0000
     19 H1        10.7617    0.0716    2.6470 H         1 RES1    0.0000
     20 H2        11.9686   -0.9329    2.6096 H         1 RES1    0.0000
     21 C3        11.7952    0.0203    4.4204 C.ar      1 RES1    0.0000
     22 C4        12.3932   -0.9997    5.1524 C.ar      1 RES1    0.0000
     23 H3        12.6620   -1.7838    4.7319 H         1 RES1    0.0000
     24 C5        12.5839   -0.8351    6.5122 C.ar      1 RES1    0.0000
     25 C6        12.2594    0.3360    7.1762 C.ar      1 RES1    0.0000
     26 H4        12.4221    0.4246    8.0869 H         1 RES1    0.0000
     27 C7        11.6876    1.3749    6.4586 C.ar      1 RES1    0.0000
     28 C8        11.4881    2.7515    7.0544 C.3       1 RES1    0.0000
     29 H5        11.6688    2.7252    8.0068 H         1 RES1    0.0000
     30 H6        10.5687    3.0339    6.9270 H         1 RES1    0.0000
     31 C9        12.4258    3.7405    6.3816 C.ar      1 RES1    0.0000
     32 C10       13.7852    3.4553    6.3307 C.ar      1 RES1    0.0000
     33 H7        14.1224    2.6894    6.7367 H         1 RES1    0.0000
     34 C11       14.6293    4.3269    5.6667 C.ar      1 RES1    0.0000
     35 C12       14.1762    5.4532    5.0063 C.ar      1 RES1    0.0000
     36 H8        14.7718    6.0064    4.5558 H         1 RES1    0.0000
     37 C13       12.8175    5.7486    5.0250 C.ar      1 RES1    0.0000
     38 C14       12.2907    6.9517    4.2580 C.3       1 RES1    0.0000
     39 H9        11.3313    7.0194    4.3885 H         1 RES1    0.0000
     40 H10       12.6967    7.7579    4.6109 H         1 RES1    0.0000
     41 C15       12.5873    6.8526    2.7737 C.ar      1 RES1    0.0000
     42 C16       13.3798    7.7881    2.1238 C.ar      1 RES1    0.0000
     43 H11       13.6963    8.5355    2.5758 H         1 RES1    0.0000
     44 C17       13.6923    7.5872    0.7834 C.ar      1 RES1    0.0000
     45 C18       13.3326    6.4389    0.0961 C.ar      1 RES1    0.0000
     46 H12       13.6188    6.3032   -0.7792 H         1 RES1    0.0000
     47 C19       12.5392    5.4960    0.7322 C.ar      1 RES1    0.0000
     48 C20       12.1921    4.1700    0.0923 C.3       1 RES1    0.0000
     49 H13       12.5266    4.1509   -0.8183 H         1 RES1    0.0000
     50 H14       11.2281    4.0657    0.0623 H         1 RES1    0.0000
     51 C21       12.8030    3.0233    0.8829 C.ar      1 RES1    0.0000
     52 C22       14.1661    3.0206    1.1501 C.ar      1 RES1    0.0000
     53 H15       14.7145    3.6871    0.8041 H         1 RES1    0.0000
     54 C23       14.6982    2.0139    1.9372 C.ar      1 RES1    0.0000
     55 C24       13.9133    1.0381    2.5230 C.ar      1 RES1    0.0000
     56 H16       14.2939    0.4076    3.0899 H         1 RES1    0.0000
     57 C25       12.0162    1.9871    1.4059 C.ar      1 RES1    0.0000
     58 C26       11.3942    1.1742    5.1028 C.ar      1 RES1    0.0000
     59 C27       11.9649    4.8996    5.7498 C.ar      1 RES1    0.0000
     60 C28       12.0921    5.7690    2.0336 C.ar      1 RES1    0.0000
     61 C29       10.3563    1.3065   -0.1229 C.3       1 RES1    0.0000
     62 H17       10.4737    0.3479   -0.0285 H         1 RES1    0.0000
     63 H18       10.9542    1.6184   -0.8201 H         1 RES1    0.0000
     64 C30        8.9253    1.6148   -0.4952 C.3       1 RES1    0.0000
     65 H19        8.7377    1.2211   -1.3609 H         1 RES1    0.0000
     66 H20        8.8274    2.5752   -0.5817 H         1 RES1    0.0000
     67 C31        7.9028    1.1121    0.4967 C.3       1 RES1    0.0000
     68 H21        7.9468    0.1535    0.5443 H         1 RES1    0.0000
     69 H22        7.0251    1.3797    0.2135 H         1 RES1    0.0000
     70 H23        8.0874    1.4837    1.3626 H         1 RES1    0.0000
     71 C32        9.3942    2.0721    4.1480 C.3       1 RES1    0.0000
     72 H24        9.3021    1.5809    3.3159 H         1 RES1    0.0000
     73 H25        9.0447    2.9640    3.9918 H         1 RES1    0.0000
     74 C33        8.5274    1.4221    5.1474 C.3       1 RES1    0.0000
     75 H26        8.6726    1.8333    6.0145 H         1 RES1    0.0000
     76 H27        8.7644    0.4843    5.2175 H         1 RES1    0.0000
     77 C34        7.0618    1.5430    4.7724 C.3       1 RES1    0.0000
     78 H28        6.8211    2.4711    4.7176 H         1 RES1    0.0000
     79 H29        6.5240    1.1119    5.4399 H         1 RES1    0.0000
     80 H30        6.9126    1.1239    3.9225 H         1 RES1    0.0000
     81 C35       10.1847    5.9056    6.9452 C.3       1 RES1    0.0000
     82 H31       10.6895    6.7295    7.0391 H         1 RES1    0.0000
     83 H32       10.3230    5.3669    7.7400 H         1 RES1    0.0000
     84 C36        8.7179    6.2102    6.7694 C.3       1 RES1    0.0000
     85 H33        8.4021    6.6886    7.5514 H         1 RES1    0.0000
     86 H34        8.6095    6.7943    6.0020 H         1 RES1    0.0000
     87 C37        7.8652    4.9895    6.5725 C.3       1 RES1    0.0000
     88 H35        8.1170    4.5517    5.7565 H         1 RES1    0.0000
     89 H36        6.9415    5.2475    6.5250 H         1 RES1    0.0000
     90 H37        7.9909    4.3880    7.3113 H         1 RES1    0.0000
     91 C38        9.8480    5.4513    2.7343 C.3       1 RES1    0.0000
     92 H38        9.8852    6.4191    2.6701 H         1 RES1    0.0000
     93 H39        9.4949    5.2236    3.6076 H         1 RES1    0.0000
     94 C39        8.9242    4.9185    1.6707 C.3       1 RES1    0.0000
     95 H40        8.9923    3.9514    1.6330 H         1 RES1    0.0000
     96 H41        9.1813    5.2748    0.8058 H         1 RES1    0.0000
     97 C40        7.4902    5.3200    1.9840 C.3       1 RES1    0.0000
     98 H42        7.2622    5.0275    2.8694 H         1 RES1    0.0000
     99 H43        6.8974    4.9116    1.3484 H         1 RES1    0.0000
    100 H44        7.4062    6.2742    1.9319 H         1 RES1    0.0000
@<TRIPOS>BOND
     1    1    9 2
     2    2   11 2
     3    3   13 2
     4    4   15 2
     5    5   57 1
     6    6   58 1
     7    7   59 1
     8    8   60 1
     9   10    1 2
    10   12    2 2
    11   14    3 2
    12   16    4 2
    13   17   18 1
    14   18   19 1
    15   20   18 1
    16   21   18 1
    17   22   21 ar
    18   23   22 1
    19   24    2 1
    20   25   24 ar
    21   26   25 1
    22   27   25 ar
    23   28   27 1
    24   29   28 1
    25   30   28 1
    26   31   28 1
    27   32   31 ar
    28   33   32 1
    29   34    3 1
    30   35   34 ar
    31   36   35 1
    32   37   35 ar
    33   38   37 1
    34   39   38 1
    35   40   38 1
    36   41   38 1
    37   42   41 ar
    38   43   42 1
    39   44    4 1
    40   45   44 ar
    41   46   45 1
    42   47   45 ar
    43   48   47 1
    44   49   48 1
    45   50   48 1
    46   51   48 1
    47   52   51 ar
    48   53   52 1
    49   54    1 1
    50   55   17 ar
    51   56   55 1
    52   57   17 ar
    53   58   21 ar
    54   59   31 ar
    55   60   41 ar
    56   61    5 1
    57   62   61 1
    58   63   61 1
    59   64   61 1
    60   65   64 1
    61   66   64 1
    62   67   64 1
    63   68   67 1
    64   69   67 1
    65   70   67 1
    66   71    6 1
    67   72   71 1
    68   73   71 1
    69   74   71 1
    70   75   74 1
    71   76   74 1
    72   77   74 1
    73   78   77 1
    74   79   77 1
    75   80   77 1
    76   81    7 1
    77   82   81 1
    78   83   81 1
    79   84   81 1
    80   85   84 1
    81   86   84 1
    82   87   84 1
    83   88   87 1
    84   89   87 1
    85   90   87 1
    86   91    8 1
    87   92   91 1
    88   93   91 1
    89   94   91 1
    90   95   94 1
    91   96   94 1
    92   97   94 1
    93   98   97 1
    94   99   97 1
    95  100   97 1
    96   22   24 ar
    97   27   58 ar
    98   32   34 ar
    99   37   59 ar
   100   42   44 ar
   101   47   60 ar
   102   51   57 ar
   103   52   54 ar
   104   54   55 ar
@<TRIPOS>SUBSTRUCTURE
     1 RES1 1

@<TRIPOS>CRYSIN
  12.4420   17.0540   17.9440  90.0000  97.5370  90.0000 231 1

