# MOL2 file generated by ConQuest
# Please check atom types

@<TRIPOS>MOLECULE
SINRAI
    32    30     2
SMALL
NO_CHARGES
****
Generated from CSD

@<TRIPOS>ATOM
      1 O1         3.1869   -0.1294    6.7676 O.3       1 RES1    0.0000
      2 O2        -1.2172    2.8057    3.3030 O.2       1 RES1    0.0000
      3 O3         4.5125   -1.0519    4.7441 O.2       1 RES1    0.0000
      4 O4         3.9835   -0.5514    2.7334 O.2       1 RES1    0.0000
      5 N1         3.7880   -0.4967    3.9237 N.pl3     1 RES1    0.0000
      6 C1         0.7099    1.5831    3.8769 C.ar      1 RES1    0.0000
      7 C2         0.4922    1.7155    5.2542 C.ar      1 RES1    0.0000
      8 C3         1.3101    1.1737    6.1703 C.ar      1 RES1    0.0000
      9 C4         2.4174    0.3970    5.8069 C.ar      1 RES1    0.0000
     10 C5         2.6468    0.2733    4.4189 C.ar      1 RES1    0.0000
     11 C6         1.8086    0.8534    3.4922 C.ar      1 RES1    0.0000
     12 C7        -0.2425    2.2026    2.9013 C.2       1 RES1    0.0000
     13 C8         0.0458    2.0779    1.4092 C.3       1 RES1    0.0000
     14 C9         1.0246    3.1730    0.9820 C.3       1 RES1    0.0000
     15 C10        1.3396    3.0320   -0.5016 C.3       1 RES1    0.0000
     16 C11        0.0864    3.0953   -1.3582 C.3       1 RES1    0.0000
     17 C12       -0.8929    2.0060   -0.9161 C.3       1 RES1    0.0000
     18 C13       -1.2357    2.1364    0.5675 C.3       1 RES1    0.0000
     19 H1        -0.2830    2.1959    5.3988 H         1 RES1    0.0000
     20 H2         1.0019    1.0164    7.0992 H         1 RES1    0.0000
     21 H3         1.9843    0.6616    2.5931 H         1 RES1    0.0000
     22 H4         1.7568    3.0876    1.4453 H         1 RES1    0.0000
     23 H5         0.6106    3.9794    1.1053 H         1 RES1    0.0000
     24 H6         1.9166    2.2630   -0.6802 H         1 RES1    0.0000
     25 H7         0.3447    3.1068   -2.1468 H         1 RES1    0.0000
     26 H8        -0.3253    4.1328   -1.2753 H         1 RES1    0.0000
     27 H9        -0.5277    0.9589   -1.0415 H         1 RES1    0.0000
     28 H10       -1.8740    1.3904    0.8077 H         1 RES1    0.0000
     29 H11       -1.7974    2.8095    0.7014 H         1 RES1    0.0000
     30 H12        0.3870    0.9972    1.2328 Du        2 SUP2    0.0000
     31 H13        1.8057    3.5287   -0.7014 Du        2 SUP2    0.0000
     32 H14       -1.9595    1.9561   -1.4241 Du        2 SUP2    0.0000
@<TRIPOS>BOND
     1    1    9 1
     2    2   12 2
     3    3    5 2
     4    4    5 2
     5    5   10 1
     6    6    7 ar
     7    7    8 ar
     8    8    9 ar
     9    9   10 ar
    10   10   11 ar
    11   11    6 ar
    12   12    6 1
    13   13   12 1
    14   14   13 1
    15   15   14 1
    16   16   15 1
    17   17   16 1
    18   18   13 1
    19   19    7 1
    20   20    8 1
    21   21   11 1
    22   22   14 1
    23   23   14 1
    24   24   15 1
    25   25   16 1
    26   26   16 1
    27   27   17 1
    28   28   18 1
    29   29   18 1
    30   17   18 1
@<TRIPOS>SUBSTRUCTURE
     1 RES1 1
     2 SUP2 30

@<TRIPOS>CRYSIN
   5.9440    9.7300   21.2550  90.0000  90.0000  99.7700  14 3

