# MOL2 file generated by ConQuest
# Please check atom types

@<TRIPOS>MOLECULE
SINRUC
    24    25     1
SMALL
NO_CHARGES
****
Generated from CSD

@<TRIPOS>ATOM
      1 O1         1.3073    2.7869    6.2771 O.2       1 RES1    0.0000
      2 O2         2.3330    3.2435    0.1950 O.2       1 RES1    0.0000
      3 O3         1.0555    5.0387    0.1086 O.2       1 RES1    0.0000
      4 N1         2.5181    5.5688    6.0358 N.pl3     1 RES1    0.0000
      5 N2         1.8499    4.2902    0.6032 N.pl3     1 RES1    0.0000
      6 C1         2.3627    4.7455    7.1497 C.ar      1 RES1    0.0000
      7 C2         2.7387    5.4728    8.2515 C.ar      1 RES1    0.0000
      8 C3         3.1279    6.7490    7.8232 C.ar      1 RES1    0.0000
      9 C4         2.9913    6.7864    6.4681 C.ar      1 RES1    0.0000
     10 C5         1.7855    3.4231    7.1959 C.2       1 RES1    0.0000
     11 C6         2.3444    5.2395    4.6565 C.ar      1 RES1    0.0000
     12 C7         1.7228    6.1477    3.8121 C.ar      1 RES1    0.0000
     13 C8         1.5699    5.8470    2.4791 C.ar      1 RES1    0.0000
     14 C9         2.0452    4.6395    2.0146 C.ar      1 RES1    0.0000
     15 C10        2.6849    3.7313    2.8309 C.ar      1 RES1    0.0000
     16 C11        2.8479    4.0394    4.1619 C.ar      1 RES1    0.0000
     17 H1         2.6616    5.1272    9.1884 H         1 RES1    0.0000
     18 H2         3.4992    7.4601    8.3842 H         1 RES1    0.0000
     19 H3         3.1827    7.4725    5.7905 H         1 RES1    0.0000
     20 H4         1.8186    3.0689    8.1228 H         1 RES1    0.0000
     21 H5         1.3756    6.9985    4.1820 H         1 RES1    0.0000
     22 H6         1.1190    6.4371    1.8699 H         1 RES1    0.0000
     23 H7         3.0803    2.9316    2.4730 H         1 RES1    0.0000
     24 H8         3.2951    3.4306    4.7651 H         1 RES1    0.0000
@<TRIPOS>BOND
     1    1   10 2
     2    2    5 2
     3    3    5 2
     4    4    6 ar
     5    5   14 1
     6    6    7 ar
     7    7    8 ar
     8    8    9 ar
     9    9    4 ar
    10   10    6 1
    11   11    4 1
    12   12   11 ar
    13   13   12 ar
    14   14   13 ar
    15   15   14 ar
    16   16   11 ar
    17   17    7 1
    18   18    8 1
    19   19    9 1
    20   20   10 1
    21   21   12 1
    22   22   13 1
    23   23   15 1
    24   24   16 1
    25   15   16 ar
@<TRIPOS>SUBSTRUCTURE
     1 RES1 1

