# MOL2 file generated by ConQuest
# Please check atom types

@<TRIPOS>MOLECULE
SIQKOS
    67    70     1
SMALL
USER_CHARGES
****
Generated from CSD

@<TRIPOS>ATOM
      1 O1         2.7171    2.8631    9.6020 O.2       1 RES1    0.0000
      2 O2         8.8938    0.0637    8.4176 O.2       1 RES1   -1.0000
      3 O3         6.1088   -2.4627    5.7296 O.2       1 RES1    0.0000
      4 O4        -3.4998    0.2871   10.9764 O.2       1 RES1    0.0000
      5 N1         2.6683    1.5751    9.6172 N.pl3     1 RES1    0.0000
      6 N2         8.4420   -0.7175    7.5261 N.pl3     1 RES1    1.0000
      7 N3         7.1290   -1.9252    6.2410 N.3       1 RES1    0.0000
      8 N4        -3.1010   -0.5093   11.9060 N.3       1 RES1    0.0000
      9 N5        -1.6820   -1.7061   13.1549 N.2       1 RES1    0.0000
     10 C1         3.7671    0.8919    9.0488 C.ar      1 RES1    0.0000
     11 C2         5.0079    1.5396    8.9841 C.ar      1 RES1    0.0000
     12 C3         6.0918    0.9378    8.3948 C.ar      1 RES1    0.0000
     13 C4         5.9879   -0.3397    7.8264 C.ar      1 RES1    0.0000
     14 C5         4.7131   -0.9886    7.8701 C.ar      1 RES1    0.0000
     15 C6         3.6313   -0.3973    8.4766 C.ar      1 RES1    0.0000
     16 C7         7.1630   -0.9825    7.2162 C.2       1 RES1    0.0000
     17 C8         9.4134   -1.6841    6.8379 C.3       1 RES1    0.0000
     18 C9         8.5056   -2.1934    5.6783 C.3       1 RES1    0.0000
     19 C10       10.6310   -0.9813    6.4444 C.3       1 RES1    0.0000
     20 C11        9.6892   -2.7468    7.8949 C.3       1 RES1    0.0000
     21 C12        8.5756   -1.3541    4.4141 C.3       1 RES1    0.0000
     22 C13        8.6350   -3.6577    5.3532 C.3       1 RES1    0.0000
     23 C14        1.5633    0.9372   10.2692 C.ar      1 RES1    0.0000
     24 C15        0.3754    1.6706   10.3433 C.ar      1 RES1    0.0000
     25 C16       -0.7212    1.1056   10.9631 C.ar      1 RES1    0.0000
     26 C17       -0.6385   -0.1800   11.5391 C.ar      1 RES1    0.0000
     27 C18        0.5663   -0.8772   11.4763 C.ar      1 RES1    0.0000
     28 C19        1.6735   -0.3287   10.8452 C.ar      1 RES1    0.0000
     29 C20       -1.7838   -0.8032   12.2139 C.2       1 RES1    0.0000
     30 C21       -4.0046   -1.4600   12.6112 C.3       1 RES1    0.0000
     31 C22       -3.0671   -2.0373   13.6910 C.3       1 RES1    0.0000
     32 C23       -5.2476   -0.6826   13.1511 C.3       1 RES1    0.0000
     33 C24       -4.4946   -2.4817   11.5676 C.3       1 RES1    0.0000
     34 C25       -3.1647   -1.3321   15.0559 C.3       1 RES1    0.0000
     35 C26       -3.1753   -3.5450   13.8887 C.3       1 RES1    0.0000
     36 H1         5.0970    2.4088    9.3434 H         1 RES1    0.0000
     37 H2         6.9233    1.3939    8.3568 H         1 RES1    0.0000
     38 H3         4.6155   -1.8457    7.4633 H         1 RES1    0.0000
     39 H4         2.7977   -0.8472    8.4956 H         1 RES1    0.0000
     40 H5         0.3245    2.5460    9.9612 H         1 RES1    0.0000
     41 H6        -1.5420    1.5849   10.9859 H         1 RES1    0.0000
     42 H7         0.6300   -1.7398   11.8565 H         1 RES1    0.0000
     43 H8         2.4944   -0.8093   10.7901 H         1 RES1    0.0000
     44 H9        11.2249   -1.5898    6.0091 H         1 RES1    0.0000
     45 H10       10.4125   -0.2816    5.8266 H         1 RES1    0.0000
     46 H11       11.0467   -0.6152    7.2029 H         1 RES1    0.0000
     47 H12        8.8747   -3.1722    8.1230 H         1 RES1    0.0000
     48 H13       10.2895   -3.3957    7.5299 H         1 RES1    0.0000
     49 H14       10.0752   -2.3409    8.6476 H         1 RES1    0.0000
     50 H15        9.4262   -1.4680    3.9902 H         1 RES1    0.0000
     51 H16        7.8969   -1.6357    3.7982 H         1 RES1    0.0000
     52 H17        8.4483   -0.4408    4.6194 H         1 RES1    0.0000
     53 H18        8.5035   -4.1688    6.1288 H         1 RES1    0.0000
     54 H19        7.9753   -3.8964    4.6974 H         1 RES1    0.0000
     55 H20        9.4962   -3.8315    4.9863 H         1 RES1    0.0000
     56 H21       -4.9655   -0.0288   13.7651 H         1 RES1    0.0000
     57 H22       -5.6952   -0.2583   12.4173 H         1 RES1    0.0000
     58 H23       -5.8394   -1.2935   13.5636 H         1 RES1    0.0000
     59 H24       -5.0864   -3.0994   11.9706 H         1 RES1    0.0000
     60 H25       -4.9549   -2.0275   10.8566 H         1 RES1    0.0000
     61 H26       -3.7543   -2.9488   11.1912 H         1 RES1    0.0000
     62 H27       -2.4987   -1.6841   15.6262 H         1 RES1    0.0000
     63 H28       -3.0226   -0.4004   14.9286 H         1 RES1    0.0000
     64 H29       -4.0216   -1.4814   15.4171 H         1 RES1    0.0000
     65 H30       -4.0428   -3.7611   14.2005 H         1 RES1    0.0000
     66 H31       -3.0395   -3.9839   13.0390 H         1 RES1    0.0000
     67 H32       -2.5220   -3.8346   14.4932 H         1 RES1    0.0000
@<TRIPOS>BOND
     1    1    5 1
     2    2    6 1
     3    3    7 1
     4    4    8 1
     5    5   10 1
     6    6   16 2
     7    7   16 1
     8    8   29 1
     9    9   29 2
    10   10   11 ar
    11   11   12 ar
    12   12   13 ar
    13   13   14 ar
    14   14   15 ar
    15   15   10 ar
    16   16   13 1
    17   17    6 1
    18   18    7 1
    19   19   17 1
    20   20   17 1
    21   21   18 1
    22   22   18 1
    23   23    5 1
    24   24   23 ar
    25   25   24 ar
    26   26   25 ar
    27   27   26 ar
    28   28   23 ar
    29   29   26 1
    30   30    8 1
    31   31    9 1
    32   32   30 1
    33   33   30 1
    34   34   31 1
    35   35   31 1
    36   36   11 1
    37   37   12 1
    38   38   14 1
    39   39   15 1
    40   40   24 1
    41   41   25 1
    42   42   27 1
    43   43   28 1
    44   44   19 1
    45   45   19 1
    46   46   19 1
    47   47   20 1
    48   48   20 1
    49   49   20 1
    50   50   21 1
    51   51   21 1
    52   52   21 1
    53   53   22 1
    54   54   22 1
    55   55   22 1
    56   56   32 1
    57   57   32 1
    58   58   32 1
    59   59   33 1
    60   60   33 1
    61   61   33 1
    62   62   34 1
    63   63   34 1
    64   64   34 1
    65   65   35 1
    66   66   35 1
    67   67   35 1
    68   17   18 1
    69   27   28 ar
    70   30   31 1
@<TRIPOS>SUBSTRUCTURE
     1 RES1 1

@<TRIPOS>CRYSIN
  21.2110    6.1216   19.0100  90.0000  90.0000  90.0000  33 1

