# MOL2 file generated by ConQuest
# Please check atom types

@<TRIPOS>MOLECULE
SIQLEL
    44    46     1
SMALL
NO_CHARGES
****
Generated from CSD

@<TRIPOS>ATOM
      1 C1        -1.7543    4.6578   12.0085 C.ar      1 RES1    0.0000
      2 H1        -2.5073    4.1177   11.9228 H         1 RES1    0.0000
      3 C2        -1.8245    6.0026   11.7077 C.ar      1 RES1    0.0000
      4 H2        -2.6315    6.3722   11.4313 H         1 RES1    0.0000
      5 C3        -0.7112    6.7973   11.8140 C.ar      1 RES1    0.0000
      6 H3        -0.7669    7.7036   11.6158 H         1 RES1    0.0000
      7 C4         0.4811    6.2538   12.2130 C.ar      1 RES1    0.0000
      8 H4         1.2393    6.7889   12.2600 H         1 RES1    0.0000
      9 C5         0.5641    4.9115   12.5479 C.ar      1 RES1    0.0000
     10 H5         1.3672    4.5486   12.8437 H         1 RES1    0.0000
     11 C6        -0.5572    4.1252   12.4371 C.ar      1 RES1    0.0000
     12 C7        -2.2939    1.7489   13.9608 C.2       1 RES1    0.0000
     13 C8        -2.8788    1.5784   15.3285 C.3       1 RES1    0.0000
     14 H6        -2.7353    2.3940   15.8337 H         1 RES1    0.0000
     15 H7        -2.4093    0.8627   15.7841 H         1 RES1    0.0000
     16 C9        -4.3564    1.2625   15.3132 C.ar      1 RES1    0.0000
     17 C10       -4.7671   -0.0412   15.5242 C.ar      1 RES1    0.0000
     18 H8        -4.1253   -0.7064   15.6355 H         1 RES1    0.0000
     19 C11       -6.1110   -0.3797   15.5749 C.ar      1 RES1    0.0000
     20 H9        -6.3584   -1.2659   15.7098 H         1 RES1    0.0000
     21 C12       -7.0708    0.5788   15.4262 C.ar      1 RES1    0.0000
     22 H10       -7.9691    0.3469   15.4565 H         1 RES1    0.0000
     23 C13       -6.7034    1.8791   15.2331 C.ar      1 RES1    0.0000
     24 H11       -7.3510    2.5402   15.1385 H         1 RES1    0.0000
     25 C14       -5.3596    2.2058   15.1791 C.ar      1 RES1    0.0000
     26 C15        0.4663    1.8194   12.6337 C.2       1 RES1    0.0000
     27 C16        1.2009    1.8631   11.3303 C.ar      1 RES1    0.0000
     28 C17        0.7108    2.4520   10.1728 C.ar      1 RES1    0.0000
     29 H12       -0.0919    2.9224   10.1965 H         1 RES1    0.0000
     30 C18        1.4062    2.3428    8.9880 C.ar      1 RES1    0.0000
     31 H13        1.0837    2.7527    8.2183 H         1 RES1    0.0000
     32 C19        2.5790    1.6220    8.9493 C.ar      1 RES1    0.0000
     33 H14        3.0385    1.5322    8.1454 H         1 RES1    0.0000
     34 C20        3.0725    1.0424   10.0740 C.ar      1 RES1    0.0000
     35 H15        3.8710    0.5653   10.0396 H         1 RES1    0.0000
     36 C21        2.3915    1.1600   11.2693 C.ar      1 RES1    0.0000
     37 H16        2.7346    0.7644   12.0384 H         1 RES1    0.0000
     38 N1        -0.5259    2.7476   12.8214 N.am      1 RES1    0.0000
     39 N2        -5.0385    3.6162   14.9861 N.pl3     1 RES1    0.0000
     40 O1         0.6620    0.9375   13.4431 O.2       1 RES1    0.0000
     41 O2        -1.2118    2.5793   14.0648 O.3       1 RES1    0.0000
     42 O3        -2.6491    1.2516   12.9556 O.2       1 RES1    0.0000
     43 O4        -3.9956    3.9136   14.4300 O.2       1 RES1    0.0000
     44 O5        -5.8396    4.4478   15.3648 O.2       1 RES1    0.0000
@<TRIPOS>BOND
     1    1    2 1
     2    3    1 ar
     3    4    3 1
     4    5    3 ar
     5    6    5 1
     6    7    5 ar
     7    8    7 1
     8    9    7 ar
     9   10    9 1
    10   11    1 ar
    11   12   13 1
    12   13   14 1
    13   15   13 1
    14   16   13 1
    15   17   16 ar
    16   18   17 1
    17   19   17 ar
    18   20   19 1
    19   21   19 ar
    20   22   21 1
    21   23   21 ar
    22   24   23 1
    23   25   16 ar
    24   26   27 1
    25   27   28 ar
    26   28   29 1
    27   30   28 ar
    28   31   30 1
    29   32   30 ar
    30   33   32 1
    31   34   32 ar
    32   35   34 1
    33   36   27 ar
    34   37   36 1
    35   38   11 1
    36   39   25 1
    37   40   26 2
    38   41   12 1
    39   42   12 2
    40   43   39 2
    41   44   39 2
    42    9   11 ar
    43   23   25 ar
    44   26   38 1
    45   34   36 ar
    46   38   41 1
@<TRIPOS>SUBSTRUCTURE
     1 RES1 1

@<TRIPOS>CRYSIN
  32.3000    8.4000   15.0990  90.0000 114.2560  90.0000  15 1

