# MOL2 file generated by ConQuest
# Please check atom types

@<TRIPOS>MOLECULE
SISPAM
    16    16     1
SMALL
USER_CHARGES
****
Generated from CSD

@<TRIPOS>ATOM
      1 C1        -1.5879   11.4140    3.2691 C.2       1 RES1    0.0000
      2 H1        -2.0867   12.1994    2.9825 H         1 RES1    0.0000
      3 C2        -0.3915   10.9301    2.9791 C.2       1 RES1    0.0000
      4 H2         0.2299   11.2943    2.3988 H         1 RES1    0.0000
      5 C3        -0.2407    9.7427    3.7370 C.2       1 RES1    0.0000
      6 H3         0.5282    9.1785    3.7943 H         1 RES1    0.0000
      7 C4        -1.3766    9.5813    4.4502 C.2       1 RES1    0.0000
      8 C5        -1.8931    8.6206    5.3614 C.2       1 RES1    0.0000
      9 H4        -2.7649    8.7047    5.7098 H         1 RES1    0.0000
     10 C6        -1.8326    6.6044    6.6658 C.3       1 RES1    0.0000
     11 H5        -2.7325    6.8944    6.8655 H         1 RES1    0.0000
     12 H6        -1.2912    6.5332    7.3855 H         1 RES1    0.0000
     13 H7        -1.8235    5.7488    6.1896 H         1 RES1    0.0000
     14 N1        -1.2190    7.5820    5.7581 N.pl3     1 RES1    1.0000
     15 O1        -2.2339   10.6226    4.1696 O.3       1 RES1    0.0000
     16 O2        -0.0064    7.3310    5.3772 O.2       1 RES1   -1.0000
@<TRIPOS>BOND
     1    1    2 1
     2    3    1 2
     3    4    3 1
     4    5    3 1
     5    6    5 1
     6    7    5 2
     7    8    7 1
     8    9    8 1
     9   10   11 1
    10   12   10 1
    11   13   10 1
    12   14    8 2
    13   15    1 1
    14   16   14 1
    15    7   15 1
    16   10   14 1
@<TRIPOS>SUBSTRUCTURE
     1 RES1 1

@<TRIPOS>CRYSIN
   5.0530   10.3210   11.9220  90.0000  97.6200  90.0000 231 1

