# MOL2 file generated by ConQuest
# Please check atom types

@<TRIPOS>MOLECULE
SITPIW
    23    24     1
SMALL
USER_CHARGES
****
Generated from CSD

@<TRIPOS>ATOM
      1 N1         4.7908    1.1460    8.5561 N.ar      1 RES1    0.0000
      2 N2         4.1830    2.1884    6.6174 N.pl3     1 RES1    0.0000
      3 N3         3.8489    2.1881    5.2805 N.2       1 RES1    0.0000
      4 C1         4.8621    1.1318    7.2326 C.ar      1 RES1    0.0000
      5 N4         1.7876    4.6066    4.0390 N.1       1 RES1    1.0000
      6 O1         6.4341    1.0678    4.6508 O.2       1 RES1    0.0000
      7 N5         5.7559    0.1655    5.0808 N.pl3     1 RES1    0.0000
      8 C2         5.9329   -0.9269    8.5968 C.ar      1 RES1    0.0000
      9 C3         6.0488   -0.9496    7.2232 C.ar      1 RES1    0.0000
     10 H1         6.4620   -1.6572    6.7830 H         1 RES1    0.0000
     11 C4         5.5274    0.1178    6.5336 C.ar      1 RES1    0.0000
     12 O2         6.3056   -1.9843   10.6093 O.2       1 RES1    0.0000
     13 N6         2.9143    3.9544    6.3705 N.2       1 RES1    0.0000
     14 N7         6.4403   -2.0430    9.3970 N.pl3     1 RES1    0.0000
     15 N8         2.5380    3.6094    3.9808 N.2       1 RES1    0.0000
     16 C5         3.1035    3.2622    5.2064 C.2       1 RES1    0.0000
     17 C6         3.5922    3.2449    7.2294 C.2       1 RES1    0.0000
     18 H2         3.6613    3.4363    8.1370 H         1 RES1    0.0000
     19 C7         5.3350    0.1436    9.2338 C.ar      1 RES1    0.0000
     20 H3         5.3130    0.1617   10.1629 H         1 RES1    0.0000
     21 O3         5.2929   -0.7280    4.4138 O.2       1 RES1    0.0000
     22 N9         1.0861    5.4733    3.9414 N.2       1 RES1   -1.0000
     23 O4         6.9688   -2.9735    8.8023 O.2       1 RES1    0.0000
@<TRIPOS>BOND
     1    1    4 ar
     2    2    3 1
     3    3   16 2
     4    4    2 1
     5    5   15 2
     6    6    7 2
     7    7   11 1
     8    8    9 ar
     9    9   10 1
    10   11    4 ar
    11   12   14 2
    12   13   16 1
    13   14    8 1
    14   15   16 1
    15   17    2 1
    16   18   17 1
    17   19    1 ar
    18   20   19 1
    19   21    7 2
    20   22    5 2
    21   23   14 2
    22    8   19 ar
    23    9   11 ar
    24   13   17 2
@<TRIPOS>SUBSTRUCTURE
     1 RES1 1

@<TRIPOS>CRYSIN
   8.7224   11.0778   11.2959  90.0000  99.9730  90.0000  14 1

