# MOL2 file generated by ConQuest
# Please check atom types

@<TRIPOS>MOLECULE
SITQET
    25    26     1
SMALL
NO_CHARGES
****
Generated from CSD

@<TRIPOS>ATOM
      1 N1         6.1943   -0.0550    9.8925 N.pl3     1 RES1    0.0000
      2 N2         8.8138   -1.2496    9.6430 N.pl3     1 RES1    0.0000
      3 C1         9.3902    0.5520    8.1331 C.ar      1 RES1    0.0000
      4 H1        10.2044    0.1283    7.9854 H         1 RES1    0.0000
      5 N3        10.2044    2.3288    6.7193 N.pl3     1 RES1    0.0000
      6 C2         9.1169    1.7650    7.5466 C.ar      1 RES1    0.0000
      7 C3         8.4442   -0.0205    8.9332 C.ar      1 RES1    0.0000
      8 C4         5.9604   -1.3779    9.8409 C.2       1 RES1    0.0000
      9 H2         6.3767   -2.0151    9.3060 H         1 RES1    0.0000
     10 C5         7.8948    2.4259    7.7144 C.ar      1 RES1    0.0000
     11 C6         7.1980    0.5714    9.1153 C.ar      1 RES1    0.0000
     12 C7         6.9431    1.7736    8.4844 C.ar      1 RES1    0.0000
     13 H3         6.1020    2.1596    8.5776 H         1 RES1    0.0000
     14 N4         5.0087   -1.5569   10.7141 N.2       1 RES1    0.0000
     15 C8         4.6165   -0.4410   11.3307 C.2       1 RES1    0.0000
     16 H4         3.9622   -0.3461   11.9860 H         1 RES1    0.0000
     17 N5         5.3642    0.4852   10.8016 N.2       1 RES1    0.0000
     18 O1         9.3137   -2.1456    8.9963 O.2       1 RES1    0.0000
     19 O2         8.6269   -1.2884   10.8446 O.2       1 RES1    0.0000
     20 O3        10.1619    3.4857    6.3909 O.2       1 RES1    0.0000
     21 O4        11.1008    1.5795    6.3995 O.2       1 RES1    0.0000
     22 C9         7.5252    3.7402    7.0964 C.3       1 RES1    0.0000
     23 H5         6.6415    3.9882    7.3760 H         1 RES1    0.0000
     24 H6         7.5492    3.6625    6.1400 H         1 RES1    0.0000
     25 H7         8.1497    4.4129    7.3788 H         1 RES1    0.0000
@<TRIPOS>BOND
     1    1    8 1
     2    2    7 1
     3    3    4 1
     4    5    6 1
     5    6    3 ar
     6    7    3 ar
     7    8    9 1
     8   10    6 ar
     9   11    1 1
    10   12   10 ar
    11   13   12 1
    12   14    8 2
    13   15   14 1
    14   16   15 1
    15   17    1 1
    16   18    2 2
    17   19    2 2
    18   20    5 2
    19   21    5 2
    20   22   10 1
    21   23   22 1
    22   24   22 1
    23   25   22 1
    24    7   11 ar
    25   11   12 ar
    26   15   17 2
@<TRIPOS>SUBSTRUCTURE
     1 RES1 1

@<TRIPOS>CRYSIN
  14.1610   10.7817   14.3390  90.0000  90.0000  90.0000  61 1

