# MOL2 file generated by ConQuest
# Please check atom types

@<TRIPOS>MOLECULE
SITRAQ
    26    27     1
SMALL
NO_CHARGES
****
Generated from CSD

@<TRIPOS>ATOM
      1 O1         3.9435   13.7529    3.3909 O.3       1 RES1    0.0000
      2 O2         3.4387   11.5388   -2.3939 O.2       1 RES1    0.0000
      3 O3         2.3145   13.3584   -2.6765 O.2       1 RES1    0.0000
      4 O4         1.3440   13.6029    3.5693 O.2       1 RES1    0.0000
      5 O5         0.2378   14.0769    1.7753 O.2       1 RES1    0.0000
      6 N1         5.7069   12.6938   -0.9641 N.pl3     1 RES1    0.0000
      7 N2         5.8198   13.2639   -2.1949 N.2       1 RES1    0.0000
      8 N3         7.6071   11.9558   -1.7490 N.2       1 RES1    0.0000
      9 N4         3.0070   12.6158   -2.0128 N.pl3     1 RES1    0.0000
     10 N5         1.2718   13.7664    2.3620 N.pl3     1 RES1    0.0000
     11 C1         6.9685   12.7884   -2.6005 C.2       1 RES1    0.0000
     12 H1         7.3267   13.0104   -3.4304 H         1 RES1    0.0000
     13 C2         6.7760   11.9228   -0.7360 C.2       1 RES1    0.0000
     14 H2         6.9127   11.4278    0.0394 H         1 RES1    0.0000
     15 C3         4.5991   12.9639   -0.1164 C.ar      1 RES1    0.0000
     16 C4         4.8267   13.2534    1.2073 C.ar      1 RES1    0.0000
     17 H3         5.7005   13.2819    1.5246 H         1 RES1    0.0000
     18 C5         3.7651   13.5039    2.0851 C.ar      1 RES1    0.0000
     19 C6         2.4719   13.5369    1.5424 C.ar      1 RES1    0.0000
     20 C7         2.2473   13.3089    0.1953 C.ar      1 RES1    0.0000
     21 H4         1.3870   13.3674   -0.1530 H         1 RES1    0.0000
     22 C8         3.3025   12.9969   -0.6205 C.ar      1 RES1    0.0000
     23 C9         5.2721   13.6254    3.9458 C.3       1 RES1    0.0000
     24 H5         5.2390   13.7784    4.8930 H         1 RES1    0.0000
     25 H6         5.8534   14.2690    3.5364 H         1 RES1    0.0000
     26 H7         5.6054   12.7403    3.7768 H         1 RES1    0.0000
@<TRIPOS>BOND
     1    1   18 1
     2    2    9 2
     3    3    9 2
     4    4   10 2
     5    5   10 2
     6    6    7 1
     7    7   11 2
     8    8   11 1
     9    9   22 1
    10   10   19 1
    11   11   12 1
    12   13    6 1
    13   14   13 1
    14   15    6 1
    15   16   15 ar
    16   17   16 1
    17   18   16 ar
    18   19   18 ar
    19   20   19 ar
    20   21   20 1
    21   22   15 ar
    22   23    1 1
    23   24   23 1
    24   25   23 1
    25   26   23 1
    26    8   13 2
    27   20   22 ar
@<TRIPOS>SUBSTRUCTURE
     1 RES1 1

@<TRIPOS>CRYSIN
   7.8547   15.0010   11.8132  90.0000 127.3730  90.0000  14 1

