# MOL2 file generated by ConQuest
# Please check atom types

@<TRIPOS>MOLECULE
SITROD
    31    32     1
SMALL
NO_CHARGES
****
Generated from CSD

@<TRIPOS>ATOM
      1 O1         0.2115    5.0527    2.4227 O.3       1 RES1    0.0000
      2 O2         0.1537    3.0140    3.2986 O.2       1 RES1    0.0000
      3 O3         2.9245    2.9821    2.6887 O.3       1 RES1    0.0000
      4 H1         2.6866    2.7892    1.9270 H         1 RES1    0.0000
      5 O4         0.2272    5.4288    5.3819 O.2       1 RES1    0.0000
      6 N1         0.3497    4.7868    6.4071 N.pl3     1 RES1    0.0000
      7 C1         0.7931    3.9815    2.9765 C.2       1 RES1    0.0000
      8 C2         2.7353    4.5964    4.5142 C.3       1 RES1    0.0000
      9 H2         3.6944    4.7398    4.5216 H         1 RES1    0.0000
     10 H3         2.3124    5.4421    4.7312 H         1 RES1    0.0000
     11 C3         1.2093    6.1178    2.1673 C.3       1 RES1    0.0000
     12 H4         1.2201    6.7453    2.9205 H         1 RES1    0.0000
     13 C4         2.3932    3.5987    5.5945 C.ar      1 RES1    0.0000
     14 C5         2.3118    4.1919    3.0813 C.3       1 RES1    0.0000
     15 C6         1.0610    2.7343    7.4608 C.ar      1 RES1    0.0000
     16 H5         0.3232    2.8211    8.0198 H         1 RES1    0.0000
     17 C7         1.3001    3.6729    6.4696 C.ar      1 RES1    0.0000
     18 C8         2.5187    5.3619    2.1183 C.3       1 RES1    0.0000
     19 H6         3.2540    5.9237    2.4079 H         1 RES1    0.0000
     20 H7         2.7013    5.0436    1.2207 H         1 RES1    0.0000
     21 C9         3.2476    2.5161    5.8122 C.ar      1 RES1    0.0000
     22 H8         3.9981    2.4251    5.2702 H         1 RES1    0.0000
     23 O5        -0.3075    5.0249    7.4072 O.2       1 RES1    0.0000
     24 C10        1.9185    1.6782    7.6101 C.ar      1 RES1    0.0000
     25 H9         1.7544    1.0320    8.2594 H         1 RES1    0.0000
     26 C11        3.0240    1.5763    6.7976 C.ar      1 RES1    0.0000
     27 H10        3.6213    0.8729    6.9119 H         1 RES1    0.0000
     28 C12        0.8030    6.8400    0.9149 C.3       1 RES1    0.0000
     29 H11        0.8272    6.2311    0.1726 H         1 RES1    0.0000
     30 H12        1.4098    7.5663    0.7539 H         1 RES1    0.0000
     31 H13       -0.0872    7.1836    1.0181 H         1 RES1    0.0000
@<TRIPOS>BOND
     1    1    7 1
     2    2    7 2
     3    3    4 1
     4    5    6 2
     5    6   17 1
     6    7   14 1
     7    8    9 1
     8   10    8 1
     9   11    1 1
    10   12   11 1
    11   13    8 1
    12   14    3 1
    13   15   16 1
    14   17   13 ar
    15   18   11 1
    16   19   18 1
    17   20   18 1
    18   21   13 ar
    19   22   21 1
    20   23    6 2
    21   24   15 ar
    22   25   24 1
    23   26   21 ar
    24   27   26 1
    25   28   11 1
    26   29   28 1
    27   30   28 1
    28   31   28 1
    29    8   14 1
    30   14   18 1
    31   15   17 ar
    32   24   26 ar
@<TRIPOS>SUBSTRUCTURE
     1 RES1 1

@<TRIPOS>CRYSIN
   5.6300    6.0280   17.6320  90.0000  92.5600  90.0000   4 1

