# MOL2 file generated by ConQuest
# Please check atom types

@<TRIPOS>MOLECULE
SIVKIR
    60    66     1
SMALL
NO_CHARGES
****
Generated from CSD

@<TRIPOS>ATOM
      1 C1         0.8339    2.4244    5.3629 C.ar      1 RES1    0.0000
      2 C2         1.6510    3.3244    6.0485 C.ar      1 RES1    0.0000
      3 C3         2.5573    4.2499    5.3493 C.ar      1 RES1    0.0000
      4 C4         2.3551    4.6959    4.0242 C.ar      1 RES1    0.0000
      5 C5         3.2713    5.4812    3.3684 C.ar      1 RES1    0.0000
      6 C6         4.4569    5.8428    4.0107 C.ar      1 RES1    0.0000
      7 C7         4.6366    5.5178    5.3304 C.ar      1 RES1    0.0000
      8 C8         3.6700    4.7787    6.0458 C.ar      1 RES1    0.0000
      9 C9        -0.0493    1.5499    6.0675 C.ar      1 RES1    0.0000
     10 C10       -0.9168    0.6531    5.3981 C.ar      1 RES1    0.0000
     11 C11       -1.7883   -0.1609    6.0729 C.ar      1 RES1    0.0000
     12 C12        0.8235    2.2476    3.8724 C.ar      1 RES1    0.0000
     13 C13        1.8509    1.5610    3.2410 C.ar      1 RES1    0.0000
     14 C14        1.8080    1.3317    1.8725 C.ar      1 RES1    0.0000
     15 C15        0.7325    1.8032    1.1625 C.ar      1 RES1    0.0000
     16 C16       -0.2944    2.4881    1.7587 C.ar      1 RES1    0.0000
     17 C17       -0.2561    2.6888    3.1272 C.ar      1 RES1    0.0000
     18 N1         0.6728    1.5610   -0.2981 N.pl3     1 RES1    0.0000
     19 O1         1.4968    0.8379   -0.7940 O.2       1 RES1    0.0000
     20 O2        -0.2318    2.0692   -0.9159 O.2       1 RES1    0.0000
     21 H1         1.5496    4.4410    3.5662 H         1 RES1    0.0000
     22 H2         3.0974    5.7790    2.4714 H         1 RES1    0.0000
     23 H3         5.1419    6.3143    3.5310 H         1 RES1    0.0000
     24 H4         5.4380    5.7997    5.7775 H         1 RES1    0.0000
     25 H5        -0.8936    0.6149    4.4388 H         1 RES1    0.0000
     26 H6        -2.3939   -0.7280    5.5905 H         1 RES1    0.0000
     27 H7         2.5956    1.2393    3.7559 H         1 RES1    0.0000
     28 H8         2.5162    0.8570    1.4335 H         1 RES1    0.0000
     29 H9        -1.0275    2.8226    1.2357 H         1 RES1    0.0000
     30 H10       -0.9840    3.1380    3.5635 H         1 RES1    0.0000
     31 C2G        1.6510    3.3244    7.5010 C.ar      1 RES1    0.0000
     32 C8G        3.6700    4.7787    7.5037 C.ar      1 RES1    0.0000
     33 C9G       -0.0493    1.5499    7.4820 C.ar      1 RES1    0.0000
     34 C11G      -1.7883   -0.1609    7.4766 C.ar      1 RES1    0.0000
     35 C1G        0.8339    2.4244    8.1866 C.ar      1 RES1    0.0000
     36 C3G        2.5573    4.2499    8.2002 C.ar      1 RES1    0.0000
     37 C7G        4.6366    5.5178    8.2191 C.ar      1 RES1    0.0000
     38 C10G      -0.9168    0.6531    8.1514 C.ar      1 RES1    0.0000
     39 H6G       -2.3939   -0.7280    7.9590 H         1 RES1    0.0000
     40 C12G       0.8235    2.2476    9.6771 C.ar      1 RES1    0.0000
     41 C4G        2.3551    4.6959    9.5253 C.ar      1 RES1    0.0000
     42 C6G        4.4569    5.8428    9.5388 C.ar      1 RES1    0.0000
     43 H4G        5.4380    5.7997    7.7720 H         1 RES1    0.0000
     44 H5G       -0.8936    0.6149    9.1107 H         1 RES1    0.0000
     45 C13G       1.8509    1.5610   10.3085 C.ar      1 RES1    0.0000
     46 C17G      -0.2561    2.6888   10.4223 C.ar      1 RES1    0.0000
     47 C5G        3.2713    5.4812   10.1811 C.ar      1 RES1    0.0000
     48 H1G        1.5496    4.4410    9.9833 H         1 RES1    0.0000
     49 H3G        5.1419    6.3143   10.0185 H         1 RES1    0.0000
     50 C14G       1.8080    1.3317   11.6770 C.ar      1 RES1    0.0000
     51 H7G        2.5956    1.2393    9.7936 H         1 RES1    0.0000
     52 C16G      -0.2944    2.4881   11.7908 C.ar      1 RES1    0.0000
     53 H10G      -0.9840    3.1380    9.9860 H         1 RES1    0.0000
     54 H2G        3.0974    5.7790   11.0781 H         1 RES1    0.0000
     55 C15G       0.7325    1.8032   12.3870 C.ar      1 RES1    0.0000
     56 H8G        2.5162    0.8570   12.1160 H         1 RES1    0.0000
     57 H9G       -1.0275    2.8226   12.3138 H         1 RES1    0.0000
     58 N1G        0.6728    1.5610   13.8476 N.pl3     1 RES1    0.0000
     59 O1G        1.4968    0.8379   14.3435 O.2       1 RES1    0.0000
     60 O2G       -0.2318    2.0692   14.4654 O.2       1 RES1    0.0000
@<TRIPOS>BOND
     1    1    2 ar
     2    2    3 1
     3    3    4 ar
     4    4    5 ar
     5    5    6 ar
     6    6    7 ar
     7    7    8 ar
     8    8    3 ar
     9    9    1 ar
    10   10    9 ar
    11   11   10 ar
    12   12    1 1
    13   13   12 ar
    14   14   13 ar
    15   15   14 ar
    16   16   15 ar
    17   17   12 ar
    18   18   15 1
    19   19   18 2
    20   20   18 2
    21   21    4 1
    22   22    5 1
    23   23    6 1
    24   24    7 1
    25   25   10 1
    26   26   11 1
    27   27   13 1
    28   28   14 1
    29   29   16 1
    30   30   17 1
    31   31    2 ar
    32   32    8 1
    33   33    9 ar
    34   34   11 ar
    35   35   31 ar
    36   36   31 1
    37   37   32 ar
    38   38   33 ar
    39   39   34 1
    40   40   35 1
    41   41   36 ar
    42   42   37 ar
    43   43   37 1
    44   44   38 1
    45   45   40 ar
    46   46   40 ar
    47   47   41 ar
    48   48   41 1
    49   49   42 1
    50   50   45 ar
    51   51   45 1
    52   52   46 ar
    53   53   46 1
    54   54   47 1
    55   55   50 ar
    56   56   50 1
    57   57   52 1
    58   58   55 1
    59   59   58 2
    60   60   58 2
    61   16   17 ar
    62   32   36 ar
    63   33   35 ar
    64   34   38 ar
    65   42   47 ar
    66   52   55 ar
@<TRIPOS>SUBSTRUCTURE
     1 RES1 1

@<TRIPOS>CRYSIN
   5.7950   15.9290   27.0990  90.0000  90.0000  90.0000  57 1

