# MOL2 file generated by ConQuest
# Please check atom types

@<TRIPOS>MOLECULE
SIVPIW
    39    41     1
SMALL
NO_CHARGES
****
Generated from CSD

@<TRIPOS>ATOM
      1 O1         9.9970    6.4973    7.6657 O.3       1 RES1    0.0000
      2 O2        10.6041    4.4638   10.5653 O.3       1 RES1    0.0000
      3 N1        11.3301    6.6281    8.4007 N.3       1 RES1    0.0000
      4 C1        10.5132    5.4533    8.4810 C.3       1 RES1    0.0000
      5 C2         9.6855    5.0961    9.6922 C.3       1 RES1    0.0000
      6 C3         8.5500    4.1815    9.2802 C.3       1 RES1    0.0000
      7 C4         9.0480    2.9480    8.5340 C.3       1 RES1    0.0000
      8 C5         9.8697    3.3479    7.3260 C.3       1 RES1    0.0000
      9 C6        11.0150    4.2639    7.7276 C.3       1 RES1    0.0000
     10 C7        11.2186    7.6588    9.4376 C.3       1 RES1    0.0000
     11 C8        12.1202    7.2883   10.5910 C.ar      1 RES1    0.0000
     12 C9        11.6754    7.3956   11.8850 C.ar      1 RES1    0.0000
     13 C10       12.5044    7.0589   12.9524 C.ar      1 RES1    0.0000
     14 C11       13.7708    6.6119   12.7050 C.ar      1 RES1    0.0000
     15 C12       14.2350    6.5120   11.4078 C.ar      1 RES1    0.0000
     16 C13       13.4169    6.8560   10.3621 C.ar      1 RES1    0.0000
     17 C14       10.1339    4.3036   11.9066 C.3       1 RES1    0.0000
     18 C15       11.6282    8.9806    8.7830 C.3       1 RES1    0.0000
     19 H1         9.3195    5.8665   10.1765 H         1 RES1    0.0000
     20 H2         7.9985    3.9845   10.0561 H         1 RES1    0.0000
     21 H3         7.9016    4.7491    8.6023 H         1 RES1    0.0000
     22 H4         9.6831    2.4995    9.0922 H         1 RES1    0.0000
     23 H5         8.2773    2.4260    8.2087 H         1 RES1    0.0000
     24 H6        10.2163    2.6024    6.8111 H         1 RES1    0.0000
     25 H7         9.3437    3.8228    6.6746 H         1 RES1    0.0000
     26 H8        11.5494    4.6461    6.9718 H         1 RES1    0.0000
     27 H9        11.6221    3.8375    8.1926 H         1 RES1    0.0000
     28 H10       10.3375    7.7485    9.7990 H         1 RES1    0.0000
     29 H11       10.7738    7.6309   12.1444 H         1 RES1    0.0000
     30 H12       12.0463    7.1457   13.9034 H         1 RES1    0.0000
     31 H13       14.3974    6.4693   13.3251 H         1 RES1    0.0000
     32 H14       15.1609    6.1459   11.1725 H         1 RES1    0.0000
     33 H15       13.7551    6.8222    9.4376 H         1 RES1    0.0000
     34 H16        9.8891    5.1461   12.3050 H         1 RES1    0.0000
     35 H17        9.3437    3.5875   11.9677 H         1 RES1    0.0000
     36 H18       11.1010    4.0727   12.2408 H         1 RES1    0.0000
     37 H19       12.5068    9.0129    8.5621 H         1 RES1    0.0000
     38 H20       11.0162    9.1747    7.9276 H         1 RES1    0.0000
     39 H21       11.5373    9.5717    9.4215 H         1 RES1    0.0000
@<TRIPOS>BOND
     1    1    3 1
     2    2    5 1
     3    3    4 1
     4    4    1 1
     5    5    4 1
     6    6    5 1
     7    7    6 1
     8    8    7 1
     9    9    4 1
    10   10    3 1
    11   11   10 1
    12   12   11 ar
    13   13   12 ar
    14   14   13 ar
    15   15   14 ar
    16   16   11 ar
    17   17    2 1
    18   18   10 1
    19   19    5 1
    20   20    6 1
    21   21    6 1
    22   22    7 1
    23   23    7 1
    24   24    8 1
    25   25    8 1
    26   26    9 1
    27   27    9 1
    28   28   10 1
    29   29   12 1
    30   30   13 1
    31   31   14 1
    32   32   15 1
    33   33   16 1
    34   34   17 1
    35   35   17 1
    36   36   17 1
    37   37   18 1
    38   38   18 1
    39   39   18 1
    40    8    9 1
    41   15   16 ar
@<TRIPOS>SUBSTRUCTURE
     1 RES1 1

@<TRIPOS>CRYSIN
  12.1190   14.7030    8.0320  90.0000  90.0000  90.0000  19 1

