# MOL2 file generated by ConQuest
# Please check atom types

@<TRIPOS>MOLECULE
SIVWEZ
    39    41     1
SMALL
NO_CHARGES
****
Generated from CSD

@<TRIPOS>ATOM
      1 O1         4.6124    1.0579   -1.1281 O.2       1 RES1    0.0000
      2 O2         8.4742    2.3456    3.4668 O.2       1 RES1    0.0000
      3 O3         7.2023    3.8361    2.4816 O.3       1 RES1    0.0000
      4 O4         6.4627    3.6958    0.2808 O.3       1 RES1    0.0000
      5 O5         4.4180    5.7182   -0.2085 O.2       1 RES1    0.0000
      6 O6         5.4263    7.5692    0.4991 O.3       1 RES1    0.0000
      7 N1         4.9588    3.2143   -1.7832 N.am      1 RES1    0.0000
      8 N2         6.0170    2.3073    0.1154 N.am      1 RES1    0.0000
      9 C1         4.1175    3.2935   -2.9227 C.ar      1 RES1    0.0000
     10 C2         4.1167    4.4932   -3.6219 C.ar      1 RES1    0.0000
     11 C3         3.2938    4.6399   -4.7250 C.ar      1 RES1    0.0000
     12 C4         2.4831    3.6109   -5.1425 C.ar      1 RES1    0.0000
     13 C5         2.5056    2.4171   -4.4623 C.ar      1 RES1    0.0000
     14 C6         3.3160    2.2460   -3.3504 C.ar      1 RES1    0.0000
     15 C7         5.1065    2.1527   -0.9763 C.2       1 RES1    0.0000
     16 C8         5.4499    1.9253    1.4311 C.3       1 RES1    0.0000
     17 C9         6.5594    1.4543    2.3556 C.3       1 RES1    0.0000
     18 C10        7.4984    2.5476    2.8047 C.2       1 RES1    0.0000
     19 C11        6.0790    4.1138    1.5837 C.3       1 RES1    0.0000
     20 C12        4.9041    3.2422    1.9449 C.3       1 RES1    0.0000
     21 C13        5.9692    5.6227    1.6385 C.3       1 RES1    0.0000
     22 C14        5.1749    6.2663    0.5324 C.2       1 RES1    0.0000
     23 C15        4.7157    8.3266   -0.5202 C.3       1 RES1    0.0000
     24 H1         5.2347    3.9394   -1.5063 H         1 RES1    0.0000
     25 H2         4.6692    5.2371   -3.2677 H         1 RES1    0.0000
     26 H3         3.3121    5.5389   -5.1488 H         1 RES1    0.0000
     27 H4         1.9593    3.7577   -5.9341 H         1 RES1    0.0000
     28 H5         1.9383    1.6278   -4.7446 H         1 RES1    0.0000
     29 H6         3.3279    1.3567   -2.8537 H         1 RES1    0.0000
     30 H7         4.8152    1.2249    1.2752 H         1 RES1    0.0000
     31 H8         7.0709    0.7688    1.9319 H         1 RES1    0.0000
     32 H9         6.1790    1.0746    3.1660 H         1 RES1    0.0000
     33 H10        4.7201    3.2549    2.8983 H         1 RES1    0.0000
     34 H11        4.1208    3.4865    1.4733 H         1 RES1    0.0000
     35 H12        5.5383    5.8703    2.5039 H         1 RES1    0.0000
     36 H13        6.8179    5.9844    1.6767 H         1 RES1    0.0000
     37 H14        3.7592    8.3999   -0.2766 H         1 RES1    0.0000
     38 H15        4.8048    7.8985   -1.3742 H         1 RES1    0.0000
     39 H16        5.1039    9.2213   -0.4961 H         1 RES1    0.0000
@<TRIPOS>BOND
     1    1   15 2
     2    2   18 2
     3    3   18 1
     4    4    8 1
     5    5   22 2
     6    6   22 1
     7    7    9 1
     8    8   15 1
     9    9   10 ar
    10   10   11 ar
    11   11   12 ar
    12   12   13 ar
    13   13   14 ar
    14   14    9 ar
    15   15    7 1
    16   16    8 1
    17   17   16 1
    18   18   17 1
    19   19    3 1
    20   20   16 1
    21   21   19 1
    22   22   21 1
    23   23    6 1
    24   24    7 1
    25   25   10 1
    26   26   11 1
    27   27   12 1
    28   28   13 1
    29   29   14 1
    30   30   16 1
    31   31   17 1
    32   32   17 1
    33   33   20 1
    34   34   20 1
    35   35   21 1
    36   36   21 1
    37   37   23 1
    38   38   23 1
    39   39   23 1
    40    4   19 1
    41   19   20 1
@<TRIPOS>SUBSTRUCTURE
     1 RES1 1

@<TRIPOS>CRYSIN
   8.7407    9.6890   10.0086 114.1170  94.8400 104.8100   2 1

