# MOL2 file generated by ConQuest
# Please check atom types

@<TRIPOS>MOLECULE
SIVXAX
    41    43     1
SMALL
NO_CHARGES
****
Generated from CSD

@<TRIPOS>ATOM
      1 O1         6.9654   10.4901   13.5255 O.2       1 RES1    0.0000
      2 N1         9.8842   13.5176   12.3470 N.2       1 RES1    0.0000
      3 C1         8.7766   13.0089   12.0206 C.2       1 RES1    0.0000
      4 O2         9.0308   11.5901    9.9192 O.3       1 RES1    0.0000
      5 N2         8.2808   12.0483   12.9229 N.3       1 RES1    0.0000
      6 C2        10.3211   12.8861   13.6121 C.3       1 RES1    0.0000
      7 H1        10.4687   13.5762   14.3071 H         1 RES1    0.0000
      8 H2        11.1685   12.3932   13.4735 H         1 RES1    0.0000
      9 O3         9.2750   11.5279    7.6787 O.2       1 RES1    0.0000
     10 N3         7.2088   11.3307   12.6504 N.2       1 RES1    0.0000
     11 C3         9.2097   11.9197   14.0504 C.3       1 RES1    0.0000
     12 H3         9.5470   10.9931   14.1427 H         1 RES1    0.0000
     13 H4         8.7927   12.2042   14.9012 H         1 RES1    0.0000
     14 N4         8.1584   12.7057    9.6945 N.2       1 RES1    0.0000
     15 C4         8.0088   13.3575   10.7882 C.2       1 RES1    0.0000
     16 C5         7.1372   14.5513   10.7884 C.ar      1 RES1    0.0000
     17 C6         6.4205   14.8955    9.6439 C.ar      1 RES1    0.0000
     18 H5         6.4250   14.3158    8.8905 H         1 RES1    0.0000
     19 C7         5.7073   16.0710    9.6005 C.ar      1 RES1    0.0000
     20 H6         5.2277   16.3067    8.8156 H         1 RES1    0.0000
     21 C8         5.6885   16.9114   10.7011 C.ar      1 RES1    0.0000
     22 H7         5.2187   17.7363   10.6600 H         1 RES1    0.0000
     23 C9         6.3480   16.5559   11.8512 C.ar      1 RES1    0.0000
     24 H8         6.3033   17.1186   12.6140 H         1 RES1    0.0000
     25 C10        7.0791   15.3797   11.9037 C.ar      1 RES1    0.0000
     26 H9         7.5390   15.1397   12.6991 H         1 RES1    0.0000
     27 C11        9.5014   11.0653    8.7469 C.2       1 RES1    0.0000
     28 C12       10.2826    9.8041    9.0358 C.3       1 RES1    0.0000
     29 H10       11.0271    9.7149    8.3901 H         1 RES1    0.0000
     30 H11       10.6647    9.8475    9.9476 H         1 RES1    0.0000
     31 C13        9.3609    8.6125    8.9226 C.ar      1 RES1    0.0000
     32 C14        8.7703    8.0535   10.0341 C.ar      1 RES1    0.0000
     33 H12        8.9475    8.4072   10.8965 H         1 RES1    0.0000
     34 C15        7.9005    6.9536    9.8856 C.ar      1 RES1    0.0000
     35 H13        7.4889    6.5677   10.6499 H         1 RES1    0.0000
     36 C16        7.6491    6.4404    8.6396 C.ar      1 RES1    0.0000
     37 H14        7.0710    5.6928    8.5444 H         1 RES1    0.0000
     38 C17        8.2191    6.9951    7.5393 C.ar      1 RES1    0.0000
     39 H15        8.0357    6.6347    6.6798 H         1 RES1    0.0000
     40 C18        9.0647    8.0826    7.6639 C.ar      1 RES1    0.0000
     41 H16        9.4486    8.4729    6.8875 H         1 RES1    0.0000
@<TRIPOS>BOND
     1    1   10 2
     2    2    3 2
     3    3    5 1
     4    4   14 1
     5    5   10 1
     6    6    2 1
     7    7    6 1
     8    8    6 1
     9    9   27 2
    10   11    5 1
    11   12   11 1
    12   13   11 1
    13   14   15 2
    14   15    3 1
    15   16   15 1
    16   17   16 ar
    17   18   17 1
    18   19   17 ar
    19   20   19 1
    20   21   19 ar
    21   22   21 1
    22   23   21 ar
    23   24   23 1
    24   25   16 ar
    25   26   25 1
    26   27    4 1
    27   28   27 1
    28   29   28 1
    29   30   28 1
    30   31   28 1
    31   32   31 ar
    32   33   32 1
    33   34   32 ar
    34   35   34 1
    35   36   34 ar
    36   37   36 1
    37   38   36 ar
    38   39   38 1
    39   40   31 ar
    40   41   40 1
    41    6   11 1
    42   23   25 ar
    43   38   40 ar
@<TRIPOS>SUBSTRUCTURE
     1 RES1 1

@<TRIPOS>CRYSIN
   8.9484   13.3980   14.4210  90.0000  90.0000  90.0000  33 1

