# MOL2 file generated by ConQuest
# Please check atom types

@<TRIPOS>MOLECULE
SIXPUK
    46    47     1
SMALL
NO_CHARGES
****
Generated from CSD

@<TRIPOS>ATOM
      1 O1         3.4998    4.0828    8.3674 O.3       1 RES1    0.0000
      2 C1         3.9337    2.8139    8.8306 C.2       1 RES1    0.0000
      3 C2         3.7170    1.6916    8.1375 C.2       1 RES1    0.0000
      4 C3         2.8861    1.5534    6.9237 C.2       1 RES1    0.0000
      5 C4         1.6905    2.2151    6.7838 C.2       1 RES1    0.0000
      6 C5         1.2944    3.3205    7.6320 C.2       1 RES1    0.0000
      7 C6         0.0305    3.9188    7.9010 C.2       1 RES1    0.0000
      8 N1         0.1433    4.9817    8.6451 N.2       1 RES1    0.0000
      9 O2         1.5509    5.1336    8.9065 O.3       1 RES1    0.0000
     10 C7         2.1578    4.1278    8.2850 C.2       1 RES1    0.0000
     11 C8         4.6959    2.8744   10.1149 C.2       1 RES1    0.0000
     12 O3         4.9007    1.9126   10.7896 O.2       1 RES1    0.0000
     13 O4         5.1063    4.1082   10.3720 O.3       1 RES1    0.0000
     14 C9         5.9233    4.2616   11.5706 C.3       1 RES1    0.0000
     15 C10        6.2420    5.7095   11.6975 C.3       1 RES1    0.0000
     16 C11        4.4508    0.4353    8.5952 C.2       1 RES1    0.0000
     17 O5         5.6110    0.2494    8.4249 O.2       1 RES1    0.0000
     18 O6         3.5919   -0.4207    9.1625 O.3       1 RES1    0.0000
     19 C12        4.1875   -1.6615    9.6083 C.3       1 RES1    0.0000
     20 C13        3.4044    0.5985    5.8943 C.2       1 RES1    0.0000
     21 O7         3.8771   -0.4823    6.1340 O.2       1 RES1    0.0000
     22 O8         3.3576    1.1303    4.6816 O.3       1 RES1    0.0000
     23 C14        3.8055    0.2768    3.5893 C.3       1 RES1    0.0000
     24 O9         0.7470    1.9476    5.8661 O.3       1 RES1    0.0000
     25 C15        0.5375    0.6141    5.3313 C.3       1 RES1    0.0000
     26 C16       -0.9111    0.4309    5.0959 C.3       1 RES1    0.0000
     27 C17       -1.3202    3.4756    7.4649 C.3       1 RES1    0.0000
     28 H1         5.2724    3.9820   12.4004 H         1 RES1    0.0000
     29 H2         6.8060    3.7265   11.5348 H         1 RES1    0.0000
     30 H3         7.2139    6.0007   11.0195 H         1 RES1    0.0000
     31 H4         5.5809    6.2738   11.5543 H         1 RES1    0.0000
     32 H5         6.6530    5.7439   12.4806 H         1 RES1    0.0000
     33 H6         5.1459   -1.3751   10.2255 H         1 RES1    0.0000
     34 H7         3.5951   -2.0977   10.1040 H         1 RES1    0.0000
     35 H8         4.6381   -2.0631    8.9065 H         1 RES1    0.0000
     36 H9         3.7146    0.7838    2.7942 H         1 RES1    0.0000
     37 H10        3.0666   -0.5598    3.4103 H         1 RES1    0.0000
     38 H11        4.6253   -0.2134    3.8171 H         1 RES1    0.0000
     39 H12        0.8741   -0.0538    6.0136 H         1 RES1    0.0000
     40 H13        0.8653    0.3504    4.4343 H         1 RES1    0.0000
     41 H14       -1.0839   -0.5012    4.7922 H         1 RES1    0.0000
     42 H15       -1.4201    0.3952    5.8693 H         1 RES1    0.0000
     43 H16       -1.2560    1.1142    4.8573 H         1 RES1    0.0000
     44 H17       -1.9498    4.0151    7.8413 H         1 RES1    0.0000
     45 H18       -1.4414    3.5741    6.5722 H         1 RES1    0.0000
     46 H19       -1.4607    2.5999    7.7502 H         1 RES1    0.0000
@<TRIPOS>BOND
     1    1    2 1
     2    2    3 2
     3    3    4 1
     4    4    5 2
     5    5    6 1
     6    6    7 1
     7    7    8 2
     8    8    9 1
     9    9   10 1
    10   10    1 1
    11   11    2 1
    12   12   11 2
    13   13   11 1
    14   14   13 1
    15   15   14 1
    16   16    3 1
    17   17   16 2
    18   18   16 1
    19   19   18 1
    20   20    4 1
    21   21   20 2
    22   22   20 1
    23   23   22 1
    24   24    5 1
    25   25   24 1
    26   26   25 1
    27   27    7 1
    28   28   14 1
    29   29   14 1
    30   30   15 1
    31   31   15 1
    32   32   15 1
    33   33   19 1
    34   34   19 1
    35   35   19 1
    36   36   23 1
    37   37   23 1
    38   38   23 1
    39   39   25 1
    40   40   25 1
    41   41   26 1
    42   42   26 1
    43   43   26 1
    44   44   27 1
    45   45   27 1
    46   46   27 1
    47    6   10 2
@<TRIPOS>SUBSTRUCTURE
     1 RES1 1

@<TRIPOS>CRYSIN
   8.3570   10.9690   11.6850  97.1200 106.4100 111.0900   2 1

