# MOL2 file generated by ConQuest
# Please check atom types

@<TRIPOS>MOLECULE
SIXSIB
    40    43     1
SMALL
NO_CHARGES
****
Generated from CSD

@<TRIPOS>ATOM
      1 O1         0.0660    1.6151    3.0467 O.2       1 RES1    0.0000
      2 N1         1.0117    1.2068    2.2588 N.pl3     1 RES1    0.0000
      3 C1         0.7016    0.2312    1.3047 C.ar      1 RES1    0.0000
      4 C2         1.6081   -0.1760    0.4078 C.ar      1 RES1    0.0000
      5 C3         2.9327    0.3235    0.4445 C.ar      1 RES1    0.0000
      6 C4         3.2568    1.2726    1.4410 C.ar      1 RES1    0.0000
      7 C5         2.2606    1.7286    2.3390 C.ar      1 RES1    0.0000
      8 C6         3.9051   -0.0848   -0.4854 C.ar      1 RES1    0.0000
      9 C7         5.1722    0.4210   -0.4319 C.ar      1 RES1    0.0000
     10 C8         5.5104    1.3511    0.5520 C.ar      1 RES1    0.0000
     11 C9         4.5913    1.7700    1.4793 C.ar      1 RES1    0.0000
     12 C10        2.4388    2.7891    3.3617 C.3       1 RES1    0.0000
     13 H1         1.2952   -0.8155   -0.3245 H         1 RES1    0.0000
     14 H2         3.6343   -0.7434   -1.1815 H         1 RES1    0.0000
     15 H3         5.8401    0.1633   -1.1338 H         1 RES1    0.0000
     16 H4         6.4688    1.7085    0.6411 H         1 RES1    0.0000
     17 H5         4.8396    2.3904    2.1880 H         1 RES1    0.0000
     18 H6         1.8284    3.6174    3.1389 H         1 RES1    0.0000
     19 H7         2.0192    2.5293    4.2465 H         1 RES1    0.0000
     20 H8         3.3536    3.0468    3.5368 H         1 RES1    0.0000
     21 C1C       -0.7016   -0.2312    1.3047 C.ar      1 RES1    0.0000
     22 N1C       -1.0117   -1.2068    2.2588 N.pl3     1 RES1    0.0000
     23 C2C       -1.6081    0.1760    0.4078 C.ar      1 RES1    0.0000
     24 O1C       -0.0660   -1.6151    3.0467 O.2       1 RES1    0.0000
     25 C5C       -2.2606   -1.7286    2.3390 C.ar      1 RES1    0.0000
     26 C3C       -2.9327   -0.3235    0.4445 C.ar      1 RES1    0.0000
     27 H1C       -1.2952    0.8155   -0.3245 H         1 RES1    0.0000
     28 C4C       -3.2568   -1.2726    1.4410 C.ar      1 RES1    0.0000
     29 C10C      -2.4388   -2.7891    3.3617 C.3       1 RES1    0.0000
     30 C6C       -3.9051    0.0848   -0.4854 C.ar      1 RES1    0.0000
     31 C9C       -4.5913   -1.7700    1.4793 C.ar      1 RES1    0.0000
     32 H6C       -1.8284   -3.6174    3.1389 H         1 RES1    0.0000
     33 H7C       -2.0192   -2.5293    4.2465 H         1 RES1    0.0000
     34 H8C       -3.3536   -3.0468    3.5368 H         1 RES1    0.0000
     35 C7C       -5.1722   -0.4210   -0.4319 C.ar      1 RES1    0.0000
     36 H2C       -3.6343    0.7434   -1.1815 H         1 RES1    0.0000
     37 C8C       -5.5104   -1.3511    0.5520 C.ar      1 RES1    0.0000
     38 H5C       -4.8396   -2.3904    2.1880 H         1 RES1    0.0000
     39 H3C       -5.8401   -0.1633   -1.1338 H         1 RES1    0.0000
     40 H4C       -6.4688   -1.7085    0.6411 H         1 RES1    0.0000
@<TRIPOS>BOND
     1    1    2 1
     2    2    3 ar
     3    3    4 ar
     4    4    5 ar
     5    5    6 ar
     6    6    7 ar
     7    7    2 ar
     8    8    5 ar
     9    9    8 ar
    10   10    9 ar
    11   11    6 ar
    12   12    7 1
    13   13    4 1
    14   14    8 1
    15   15    9 1
    16   16   10 1
    17   17   11 1
    18   18   12 1
    19   19   12 1
    20   20   12 1
    21   21    3 1
    22   22   21 ar
    23   23   21 ar
    24   24   22 1
    25   25   22 ar
    26   26   23 ar
    27   27   23 1
    28   28   25 ar
    29   29   25 1
    30   30   26 ar
    31   31   28 ar
    32   32   29 1
    33   33   29 1
    34   34   29 1
    35   35   30 ar
    36   36   30 1
    37   37   31 ar
    38   38   31 1
    39   39   35 1
    40   40   37 1
    41   10   11 ar
    42   26   28 ar
    43   35   37 ar
@<TRIPOS>SUBSTRUCTURE
     1 RES1 1

@<TRIPOS>CRYSIN
  14.0320   10.6050    5.2420  90.0000  90.0000  90.0000  18 1

