# MOL2 file generated by ConQuest
# Please check atom types

@<TRIPOS>MOLECULE
SIYWIH
    20    20     1
SMALL
NO_CHARGES
****
Generated from CSD

@<TRIPOS>ATOM
      1 C1         4.5563    7.4187    6.8626 C.ar      1 RES1    0.0000
      2 C2         5.1371    7.9832    5.7203 C.ar      1 RES1    0.0000
      3 H1         5.6017    8.7831    5.8205 H         1 RES1    0.0000
      4 C3         5.0677    7.4289    4.4450 C.ar      1 RES1    0.0000
      5 C4         4.3144    6.2150    4.3138 C.ar      1 RES1    0.0000
      6 C5         3.7663    5.6119    5.4244 C.ar      1 RES1    0.0000
      7 H2         3.3029    4.8125    5.3225 H         1 RES1    0.0000
      8 C6         3.8881    6.1622    6.6805 C.ar      1 RES1    0.0000
      9 N1         4.6460    8.0495    8.0351 N.3       1 RES1    0.0000
     10 H3         5.0598    8.8013    8.0878 H         1 RES1    0.0000
     11 H4         4.2895    7.7041    8.7371 H         1 RES1    0.0000
     12 N2         5.6971    8.0263    3.4188 N.3       1 RES1    0.0000
     13 H5         6.1426    8.7494    3.5500 H         1 RES1    0.0000
     14 H6         5.6545    7.6846    2.6307 H         1 RES1    0.0000
     15 N3         4.0922    5.5795    3.0444 N.pl3     1 RES1    0.0000
     16 N4         3.3321    5.4080    7.7635 N.pl3     1 RES1    0.0000
     17 O1         4.5839    6.0728    2.0317 O.2       1 RES1    0.0000
     18 O2         3.4059    4.5573    2.9892 O.2       1 RES1    0.0000
     19 O3         2.8315    4.3174    7.5320 O.2       1 RES1    0.0000
     20 O4         3.3684    5.8772    8.9074 O.2       1 RES1    0.0000
@<TRIPOS>BOND
     1    1    2 ar
     2    2    3 1
     3    4    2 ar
     4    5    4 ar
     5    6    5 ar
     6    7    6 1
     7    8    1 ar
     8    9    1 1
     9   10    9 1
    10   11    9 1
    11   12    4 1
    12   13   12 1
    13   14   12 1
    14   15    5 1
    15   16    8 1
    16   17   15 2
    17   18   15 2
    18   19   16 2
    19   20   16 2
    20    6    8 ar
@<TRIPOS>SUBSTRUCTURE
     1 RES1 1

@<TRIPOS>CRYSIN
   7.1294    7.1770    9.1289  67.7100  86.6920  62.2140   2 1

