# MOL2 file generated by ConQuest
# Please check atom types

@<TRIPOS>MOLECULE
SIYZAB
    91    96     1
SMALL
NO_CHARGES
****
Generated from CSD

@<TRIPOS>ATOM
      1 O1         2.5972    9.3775    5.5049 O.3       1 RES1    0.0000
      2 O2         3.2171    9.2762    3.2403 O.3       1 RES1    0.0000
      3 O3         0.5686   12.1613    5.8219 O.2       1 RES1    0.0000
      4 O4         4.4115   11.3637    6.9911 O.3       1 RES1    0.0000
      5 O5         4.1736   12.3551    8.9498 O.2       1 RES1    0.0000
      6 O6        -0.6783   11.1244    3.6949 O.3       1 RES1    0.0000
      7 O7        -0.3954   11.2046    1.4519 O.2       1 RES1    0.0000
      8 O8        -1.3208    8.0572    2.5395 O.2       1 RES1    0.0000
      9 O9        -0.3470    8.9939    5.7644 O.3       1 RES1    0.0000
     10 O10       -0.9287    7.0093    8.6943 O.3       1 RES1    0.0000
     11 O11        1.0700    9.2455    8.9304 O.3       1 RES1    0.0000
     12 O12        0.1795    8.8740   10.9896 O.3       1 RES1    0.0000
     13 O13       -3.2197    8.9705    9.8197 O.3       1 RES1    0.0000
     14 O14       -3.1927    6.7751    9.1848 O.3       1 RES1    0.0000
     15 N1        -0.1683    8.5471    4.4355 N.am      1 RES1    0.0000
     16 C1         2.2849    8.8413    4.2220 C.3       1 RES1    0.0000
     17 C2         0.9062    9.2794    3.7069 C.3       1 RES1    0.0000
     18 C3         0.6970   10.7851    3.8278 C.3       1 RES1    0.0000
     19 C4         1.1756   11.3466    5.1887 C.2       1 RES1    0.0000
     20 C5         2.5822   10.8012    5.5468 C.3       1 RES1    0.0000
     21 C6         2.9411   11.2198    6.9498 C.3       1 RES1    0.0000
     22 C7         4.8710   11.9780    8.1109 C.2       1 RES1    0.0000
     23 C8         6.3573   12.1248    8.0667 C.ar      1 RES1    0.0000
     24 C9         7.1525   11.6232    7.0380 C.ar      1 RES1    0.0000
     25 C10        8.5529   11.8630    7.0605 C.ar      1 RES1    0.0000
     26 C11        9.0676   12.5970    8.1264 C.ar      1 RES1    0.0000
     27 C12        8.3000   13.0837    9.1484 C.ar      1 RES1    0.0000
     28 C13        6.9389   12.8218    9.1484 C.ar      1 RES1    0.0000
     29 C14        4.5465    8.7716    3.5087 C.3       1 RES1    0.0000
     30 C15       -1.3608    8.2781    3.7135 C.2       1 RES1    0.0000
     31 C16       -2.6088    8.2021    4.5416 C.3       1 RES1    0.0000
     32 C17       -1.1224   11.2798    2.4018 C.2       1 RES1    0.0000
     33 C18       -2.5692   11.5097    2.3573 C.ar      1 RES1    0.0000
     34 C19       -3.2484   11.1956    1.1633 C.ar      1 RES1    0.0000
     35 C20       -4.6417   11.4280    1.1541 C.ar      1 RES1    0.0000
     36 C21       -5.3350   11.8957    2.2205 C.ar      1 RES1    0.0000
     37 C22       -4.6467   12.1881    3.3845 C.ar      1 RES1    0.0000
     38 C23       -3.2554   12.0262    3.4535 C.ar      1 RES1    0.0000
     39 C24       -0.0718    7.8944    6.6878 C.3       1 RES1    0.0000
     40 C25       -0.9005    8.2338    7.9141 C.3       1 RES1    0.0000
     41 C26       -0.3551    9.3727    8.7567 C.3       1 RES1    0.0000
     42 C27       -0.9070    9.3554   10.2173 C.3       1 RES1    0.0000
     43 C28       -2.0480    8.3913   10.4258 C.3       1 RES1    0.0000
     44 C29       -1.8948    7.0187    9.7413 C.3       1 RES1    0.0000
     45 C30        1.3673    9.3596   10.3661 C.3       1 RES1    0.0000
     46 C31        2.4695    8.4300   10.6582 C.3       1 RES1    0.0000
     47 C32        1.6395   10.7944   10.7130 C.3       1 RES1    0.0000
     48 C33       -4.0849    7.8595    9.5647 C.3       1 RES1    0.0000
     49 C34       -4.8500    7.5064   10.8783 C.3       1 RES1    0.0000
     50 C35       -4.9466    8.2139    8.3861 C.3       1 RES1    0.0000
     51 H1         2.3012    7.7602    4.3694 H         1 RES1    0.0000
     52 H2         0.8587    9.0261    2.6458 H         1 RES1    0.0000
     53 H3         1.2908   11.2216    3.0252 H         1 RES1    0.0000
     54 H4         3.2887   11.2159    4.8260 H         1 RES1    0.0000
     55 H5         2.4638   12.1654    7.2021 H         1 RES1    0.0000
     56 H6         2.6209   10.4538    7.6610 H         1 RES1    0.0000
     57 H7         6.6997   11.0471    6.2295 H         1 RES1    0.0000
     58 H8         9.2010   11.4799    6.2709 H         1 RES1    0.0000
     59 H9        10.1375   12.7941    8.1512 H         1 RES1    0.0000
     60 H10        8.7435   13.6825    9.9430 H         1 RES1    0.0000
     61 H11        6.3189   13.1390    9.9878 H         1 RES1    0.0000
     62 H12        4.8724    9.1169    4.4869 H         1 RES1    0.0000
     63 H13        4.5144    7.6722    3.5098 H         1 RES1    0.0000
     64 H14        5.2629    9.0942    2.7566 H         1 RES1    0.0000
     65 H15       -2.4748    7.4125    5.2782 H         1 RES1    0.0000
     66 H16       -2.7299    9.1581    5.0420 H         1 RES1    0.0000
     67 H17       -3.5194    7.9915    3.9810 H         1 RES1    0.0000
     68 H18       -2.7283   10.7817    0.2977 H         1 RES1    0.0000
     69 H19       -5.1874   11.2401    0.2294 H         1 RES1    0.0000
     70 H20       -6.4144   12.0263    2.1645 H         1 RES1    0.0000
     71 H21       -5.1966   12.5542    4.2496 H         1 RES1    0.0000
     72 H22       -2.7175   12.2945    4.3638 H         1 RES1    0.0000
     73 H23       -0.3728    6.9399    6.2586 H         1 RES1    0.0000
     74 H24        0.9948    7.8567    6.9346 H         1 RES1    0.0000
     75 H25       -1.8812    8.5791    7.5949 H         1 RES1    0.0000
     76 H26       -0.6584   10.2750    8.2306 H         1 RES1    0.0000
     77 H27       -1.2793   10.3431   10.4870 H         1 RES1    0.0000
     78 H28       -2.0977    8.2228   11.5021 H         1 RES1    0.0000
     79 H29       -1.5463    6.2643   10.4455 H         1 RES1    0.0000
     80 H30        3.3395    8.7465   10.0874 H         1 RES1    0.0000
     81 H31        2.6893    8.4840   11.7226 H         1 RES1    0.0000
     82 H32        2.2748    7.3798   10.4120 H         1 RES1    0.0000
     83 H33        1.8575   10.8569   11.7729 H         1 RES1    0.0000
     84 H34        2.5088   11.1194   10.1378 H         1 RES1    0.0000
     85 H35        0.8223   11.4884   10.4937 H         1 RES1    0.0000
     86 H36       -5.4676    8.3591   11.1551 H         1 RES1    0.0000
     87 H37       -5.4998    6.6475   10.6694 H         1 RES1    0.0000
     88 H38       -4.2297    7.2464   11.7360 H         1 RES1    0.0000
     89 H39       -5.5919    7.3586    8.1736 H         1 RES1    0.0000
     90 H40       -5.5597    9.0701    8.6593 H         1 RES1    0.0000
     91 H41       -4.4098    8.4613    7.4696 H         1 RES1    0.0000
@<TRIPOS>BOND
     1    1   16 1
     2    2   16 1
     3    3   19 2
     4    4   21 1
     5    5   22 2
     6    6   18 1
     7    7   32 2
     8    8   30 2
     9    9   15 1
    10   10   40 1
    11   11   41 1
    12   12   42 1
    13   13   43 1
    14   14   44 1
    15   15   17 1
    16   16   17 1
    17   17   18 1
    18   18   19 1
    19   19   20 1
    20   20    1 1
    21   21   20 1
    22   22    4 1
    23   23   22 1
    24   24   23 ar
    25   25   24 ar
    26   26   25 ar
    27   27   26 ar
    28   28   23 ar
    29   29    2 1
    30   30   15 1
    31   31   30 1
    32   32    6 1
    33   33   32 1
    34   34   33 ar
    35   35   34 ar
    36   36   35 ar
    37   37   36 ar
    38   38   33 ar
    39   39    9 1
    40   40   39 1
    41   41   40 1
    42   42   41 1
    43   43   42 1
    44   44   10 1
    45   45   11 1
    46   46   45 1
    47   47   45 1
    48   48   13 1
    49   49   48 1
    50   50   48 1
    51   51   16 1
    52   52   17 1
    53   53   18 1
    54   54   20 1
    55   55   21 1
    56   56   21 1
    57   57   24 1
    58   58   25 1
    59   59   26 1
    60   60   27 1
    61   61   28 1
    62   62   29 1
    63   63   29 1
    64   64   29 1
    65   65   31 1
    66   66   31 1
    67   67   31 1
    68   68   34 1
    69   69   35 1
    70   70   36 1
    71   71   37 1
    72   72   38 1
    73   73   39 1
    74   74   39 1
    75   75   40 1
    76   76   41 1
    77   77   42 1
    78   78   43 1
    79   79   44 1
    80   80   46 1
    81   81   46 1
    82   82   46 1
    83   83   47 1
    84   84   47 1
    85   85   47 1
    86   86   49 1
    87   87   49 1
    88   88   49 1
    89   89   50 1
    90   90   50 1
    91   91   50 1
    92   12   45 1
    93   14   48 1
    94   27   28 ar
    95   37   38 ar
    96   43   44 1
@<TRIPOS>SUBSTRUCTURE
     1 RES1 1

@<TRIPOS>CRYSIN
  11.0120   14.1920   11.2420  90.0000  95.4030  90.0000   4 1

