# MOL2 file generated by ConQuest
# Please check atom types

@<TRIPOS>MOLECULE
SIZFOY
    67    71     1
SMALL
NO_CHARGES
****
Generated from CSD

@<TRIPOS>ATOM
      1 O1         7.5491    4.9292    1.6859 O.2       1 RES1    0.0000
      2 O2         5.8341    0.2656    4.5382 O.2       1 RES1    0.0000
      3 O3         5.6020    1.4535    6.3344 O.2       1 RES1    0.0000
      4 O4        10.7851    4.0768    4.1791 O.2       1 RES1    0.0000
      5 O5        10.1780    2.2732    5.2191 O.2       1 RES1    0.0000
      6 N1         4.3958    1.5875    1.0955 N.1       1 RES1    0.0000
      7 N2         6.0554    1.2639    5.2133 N.pl3     1 RES1    0.0000
      8 N3         9.9669    3.4239    4.8296 N.pl3     1 RES1    0.0000
      9 C1         5.1761    2.2398    1.6212 C.1       1 RES1    0.0000
     10 C2         6.2340    3.0553    2.2594 C.3       1 RES1    0.0000
     11 C3         5.9765    3.3614    3.7884 C.3       1 RES1    0.0000
     12 H1         6.3954    4.2574    3.9350 H         1 RES1    0.0000
     13 C4         6.8967    2.3737    4.5727 C.3       1 RES1    0.0000
     14 C5         7.7732    1.7906    3.5217 C.2       1 RES1    0.0000
     15 H2         8.4563    1.1599    3.7134 H         1 RES1    0.0000
     16 C6         7.5195    2.2265    2.2898 C.2       1 RES1    0.0000
     17 C7         8.3013    1.9309    1.0731 C.ar      1 RES1    0.0000
     18 C8         7.7916    2.1445   -0.2020 C.ar      1 RES1    0.0000
     19 H3         6.9338    2.5389   -0.3045 H         1 RES1    0.0000
     20 C9         8.5206    1.7894   -1.3230 C.ar      1 RES1    0.0000
     21 H4         8.1538    1.9255   -2.1891 H         1 RES1    0.0000
     22 C10        9.7759    1.2397   -1.1889 C.ar      1 RES1    0.0000
     23 H5        10.2674    0.9792   -1.9584 H         1 RES1    0.0000
     24 C11       10.3147    1.0693    0.0665 C.ar      1 RES1    0.0000
     25 H6        11.1920    0.7163    0.1613 H         1 RES1    0.0000
     26 C12        9.5839    1.4094    1.1861 C.ar      1 RES1    0.0000
     27 H7         9.9631    1.2848    2.0474 H         1 RES1    0.0000
     28 C13        7.6432    3.0936    5.7273 C.3       1 RES1    0.0000
     29 H8         6.9898    3.5882    6.2824 H         1 RES1    0.0000
     30 H9         8.0866    2.4206    6.3020 H         1 RES1    0.0000
     31 C14        8.6705    4.0489    5.1992 C.2       1 RES1    0.0000
     32 C15        8.5824    5.3568    4.9594 C.2       1 RES1    0.0000
     33 H10        9.3227    5.7547    4.5184 H         1 RES1    0.0000
     34 C16        7.4688    6.2522    5.3014 C.ar      1 RES1    0.0000
     35 C17        6.8814    6.2635    6.5692 C.ar      1 RES1    0.0000
     36 H11        7.1877    5.6627    7.2383 H         1 RES1    0.0000
     37 C18        5.8533    7.1475    6.8559 C.ar      1 RES1    0.0000
     38 H12        5.4675    7.1578    7.7237 H         1 RES1    0.0000
     39 C19        5.3853    8.0146    5.8859 C.ar      1 RES1    0.0000
     40 H13        4.6700    8.6080    6.0819 H         1 RES1    0.0000
     41 C20        5.9639    8.0161    4.6267 C.ar      1 RES1    0.0000
     42 H14        5.6416    8.6102    3.9591 H         1 RES1    0.0000
     43 C21        7.0065    7.1561    4.3390 C.ar      1 RES1    0.0000
     44 H15        7.4127    7.1786    3.4812 H         1 RES1    0.0000
     45 C22        4.5392    3.5467    4.2288 C.ar      1 RES1    0.0000
     46 C23        4.1498    4.8279    4.6222 C.ar      1 RES1    0.0000
     47 H16        4.7894    5.5302    4.6270 H         1 RES1    0.0000
     48 C24        2.8500    5.0881    5.0033 C.ar      1 RES1    0.0000
     49 H17        2.5992    5.9672    5.2617 H         1 RES1    0.0000
     50 C25        1.9153    4.0744    5.0092 C.ar      1 RES1    0.0000
     51 H18        1.0216    4.2530    5.2783 H         1 RES1    0.0000
     52 C26        2.2813    2.7948    4.6228 C.ar      1 RES1    0.0000
     53 H19        1.6371    2.0964    4.6240 H         1 RES1    0.0000
     54 C27        3.5845    2.5322    4.2340 C.ar      1 RES1    0.0000
     55 H20        3.8300    1.6539    3.9682 H         1 RES1    0.0000
     56 C28        6.4519    4.4297    1.5416 C.2       1 RES1    0.0000
     57 C29        5.3769    5.0935    0.7710 C.ar      1 RES1    0.0000
     58 C30        5.7593    5.9363   -0.2678 C.ar      1 RES1    0.0000
     59 H21        6.6796    6.0559   -0.4704 H         1 RES1    0.0000
     60 C31        4.7942    6.5987   -1.0046 C.ar      1 RES1    0.0000
     61 H22        5.0524    7.1512   -1.7323 H         1 RES1    0.0000
     62 C32        3.4650    6.4629   -0.6891 C.ar      1 RES1    0.0000
     63 H23        2.8102    6.9300   -1.1956 H         1 RES1    0.0000
     64 C33        3.0690    5.6537    0.3584 C.ar      1 RES1    0.0000
     65 H24        2.1489    5.5806    0.5850 H         1 RES1    0.0000
     66 C34        4.0221    4.9494    1.0763 C.ar      1 RES1    0.0000
     67 H25        3.7526    4.3681    1.7775 H         1 RES1    0.0000
@<TRIPOS>BOND
     1    1   56 2
     2    2    7 2
     3    3    7 2
     4    4    8 2
     5    5    8 2
     6    6    9 3
     7    7   13 1
     8    8   31 1
     9    9   10 1
    10   10   11 1
    11   11   12 1
    12   13   11 1
    13   14   13 1
    14   15   14 1
    15   16   10 1
    16   17   16 1
    17   18   17 ar
    18   19   18 1
    19   20   18 ar
    20   21   20 1
    21   22   20 ar
    22   23   22 1
    23   24   22 ar
    24   25   24 1
    25   26   17 ar
    26   27   26 1
    27   28   13 1
    28   29   28 1
    29   30   28 1
    30   31   28 1
    31   32   31 2
    32   33   32 1
    33   34   32 1
    34   35   34 ar
    35   36   35 1
    36   37   35 ar
    37   38   37 1
    38   39   37 ar
    39   40   39 1
    40   41   39 ar
    41   42   41 1
    42   43   34 ar
    43   44   43 1
    44   45   11 1
    45   46   45 ar
    46   47   46 1
    47   48   46 ar
    48   49   48 1
    49   50   48 ar
    50   51   50 1
    51   52   50 ar
    52   53   52 1
    53   54   45 ar
    54   55   54 1
    55   56   10 1
    56   57   56 1
    57   58   57 ar
    58   59   58 1
    59   60   58 ar
    60   61   60 1
    61   62   60 ar
    62   63   62 1
    63   64   62 ar
    64   65   64 1
    65   66   57 ar
    66   67   66 1
    67   14   16 2
    68   24   26 ar
    69   41   43 ar
    70   52   54 ar
    71   64   66 ar
@<TRIPOS>SUBSTRUCTURE
     1 RES1 1

@<TRIPOS>CRYSIN
  16.4770   10.9530   16.4990  90.0000 113.9660  90.0000 231 1

