# MOL2 file generated by ConQuest
# Please check atom types

@<TRIPOS>MOLECULE
SNQUOX01
    20    21     1
SMALL
NO_CHARGES
****
Generated from CSD

@<TRIPOS>ATOM
      1 O1         1.6630    1.8616   -1.8612 O.3       1 RES1    0.0000
      2 O2         3.7486    0.8303   -0.9313 O.2       1 RES1    0.0000
      3 N1         1.5486    2.6248   -0.7379 N.2       1 RES1    0.0000
      4 C1         2.4745    2.4926    0.1832 C.2       1 RES1    0.0000
      5 C2         3.6073    1.5376    0.0902 C.2       1 RES1    0.0000
      6 C3         4.5103    1.4486    1.2119 C.2       1 RES1    0.0000
      7 H1         5.2328    0.8325    1.1823 H         1 RES1    0.0000
      8 C4         4.3464    2.2224    2.2993 C.2       1 RES1    0.0000
      9 H2         4.9620    2.1327    3.0179 H         1 RES1    0.0000
     10 C5         3.2680    3.1901    2.4244 C.ar      1 RES1    0.0000
     11 C6         3.1411    3.9626    3.5877 C.ar      1 RES1    0.0000
     12 H3         3.7616    3.8523    4.2983 H         1 RES1    0.0000
     13 C7         2.1191    4.8834    3.7056 C.ar      1 RES1    0.0000
     14 H4         2.0356    5.4033    4.4961 H         1 RES1    0.0000
     15 C8         1.2101    5.0489    2.6621 C.ar      1 RES1    0.0000
     16 H5         0.5138    5.6905    2.7388 H         1 RES1    0.0000
     17 C9         1.3175    4.2850    1.5168 C.ar      1 RES1    0.0000
     18 H6         0.6893    4.4039    0.8143 H         1 RES1    0.0000
     19 C10        2.3389    3.3384    1.3780 C.ar      1 RES1    0.0000
     20 H7         2.4777    1.3476   -1.7221 H         1 RES1    0.0000
@<TRIPOS>BOND
     1    1    3 1
     2    2    5 2
     3    3    4 2
     4    4    5 1
     5    5    6 1
     6    6    7 1
     7    8    6 2
     8    9    8 1
     9   10    8 1
    10   11   10 ar
    11   12   11 1
    12   13   11 ar
    13   14   13 1
    14   15   13 ar
    15   16   15 1
    16   17   15 ar
    17   18   17 1
    18   19    4 1
    19   20    1 1
    20   10   19 ar
    21   17   19 ar
@<TRIPOS>SUBSTRUCTURE
     1 RES1 1

@<TRIPOS>CRYSIN
   5.4470    9.1179   15.6640  90.0000 101.7700  90.0000  14 1

