# MOL2 file generated by ConQuest
# Please check atom types

@<TRIPOS>MOLECULE
SOBDIX
    34    31     2
SMALL
NO_CHARGES
****
Generated from CSD

@<TRIPOS>ATOM
      1 C1        -2.8445    0.7913   -3.4801 C.ar      1 RES1    0.0000
      2 C2        -2.7397   -0.1661   -2.5164 C.ar      1 RES1    0.0000
      3 H1        -3.0282   -1.0360   -2.6788 H         1 RES1    0.0000
      4 C3        -2.1997    0.1773   -1.2990 C.ar      1 RES1    0.0000
      5 H2        -2.1120   -0.4737   -0.6412 H         1 RES1    0.0000
      6 C4        -1.7799    1.4793   -1.0302 C.ar      1 RES1    0.0000
      7 C5        -1.9100    2.4064   -2.0428 C.ar      1 RES1    0.0000
      8 H3        -1.6253    3.2797   -1.8951 H         1 RES1    0.0000
      9 C6        -2.4483    2.0764   -3.2621 C.ar      1 RES1    0.0000
     10 H4        -2.5402    2.7185   -3.9280 H         1 RES1    0.0000
     11 C7        -1.2054    1.8823    0.2484 C.2       1 RES1    0.0000
     12 H5        -0.8934    2.7566    0.3103 H         1 RES1    0.0000
     13 C8        -1.0860    1.1404    1.3131 C.2       1 RES1    0.0000
     14 H6        -1.3674    0.2548    1.2903 H         1 RES1    0.0000
     15 C9        -0.4592    0.7969    3.5480 C.2       1 RES1    0.0000
     16 C10        0.1555    1.4917    4.6606 C.2       1 RES1    0.0000
     17 H7         0.4307    2.3671    4.5075 H         1 RES1    0.0000
     18 C11        0.3633    1.0057    5.8695 C.2       1 RES1    0.0000
     19 C12        1.0146    1.8666    6.9114 C.3       1 RES1    0.0000
     20 H8         1.1551    2.7476    6.5562 H         1 RES1    0.0000
     21 H9         1.8587    1.4838    7.1609 H         1 RES1    0.0000
     22 H10        0.4465    1.9204    7.6834 H         1 RES1    0.0000
     23 C13       -0.0054   -0.3704    6.3013 C.3       1 RES1    0.0000
     24 H11        0.2456   -0.4961    7.2195 H         1 RES1    0.0000
     25 H12        0.4541   -1.0113    5.7535 H         1 RES1    0.0000
     26 H13       -0.9526   -0.4916    6.2094 H         1 RES1    0.0000
     27 H14       -0.4141   -0.8362    5.5682 Du        2 SUP2    0.0000
     28 H15       -0.6226   -0.3210    7.0343 Du        2 SUP2    0.0000
     29 H16        0.7841   -0.8407    6.5783 Du        2 SUP2    0.0000
     30 N1        -3.4244    0.4389   -4.7802 N.pl3     1 RES1    0.0000
     31 O1        -3.7176   -0.7228   -4.9880 O.2       1 RES1    0.0000
     32 O2        -3.5968    1.3312   -5.5831 O.2       1 RES1    0.0000
     33 O3        -0.5514    1.6521    2.4659 O.3       1 RES1    0.0000
     34 O4        -0.8494   -0.3334    3.4836 O.2       1 RES1    0.0000
@<TRIPOS>BOND
     1    1    2 ar
     2    2    3 1
     3    4    2 ar
     4    5    4 1
     5    6    4 ar
     6    7    6 ar
     7    8    7 1
     8    9    1 ar
     9   10    9 1
    10   11    6 1
    11   12   11 1
    12   13   11 2
    13   14   13 1
    14   15   16 1
    15   16   17 1
    16   18   16 2
    17   19   18 1
    18   20   19 1
    19   21   19 1
    20   22   19 1
    21   23   18 1
    22   24   23 1
    23   25   23 1
    24   26   23 1
    25   30    1 1
    26   31   30 2
    27   32   30 2
    28   33   13 1
    29   34   15 2
    30    7    9 ar
    31   15   33 1
@<TRIPOS>SUBSTRUCTURE
     1 RES1 1
     2 SUP2 27

@<TRIPOS>CRYSIN
   7.0849   11.2240   16.0810  90.0000 100.0900  90.0000  14 2

