# MOL2 file generated by ConQuest
# Please check atom types

@<TRIPOS>MOLECULE
SOBFOE
    32    34     1
SMALL
NO_CHARGES
****
Generated from CSD

@<TRIPOS>ATOM
      1 N1         4.5163    0.4624    5.6600 N.3       1 RES1    0.0000
      2 N2         5.9225    0.5177    5.5468 N.pl3     1 RES1    0.0000
      3 O1         6.4151    1.6352    5.5214 O.2       1 RES1    0.0000
      4 O2         6.5102   -0.5294    5.5155 O.2       1 RES1    0.0000
      5 C1         3.8568   -0.5914    4.9240 C.3       1 RES1    0.0000
      6 N3         3.3564   -0.1843    3.5944 N.am      1 RES1    0.0000
      7 N4         4.3199   -0.0586    2.5479 N.pl3     1 RES1    0.0000
      8 O3         3.9052   -0.0151    1.4311 O.2       1 RES1    0.0000
      9 O4         5.4610    0.0620    2.9169 O.2       1 RES1    0.0000
     10 C2         2.0812   -0.7321    3.3327 C.2       1 RES1    0.0000
     11 O5         1.5059   -0.7137    2.2941 O.2       1 RES1    0.0000
     12 N5         1.6712   -1.2247    4.5257 N.am      1 RES1    0.0000
     13 C3         2.5349   -0.9583    5.6268 C.3       1 RES1    0.0000
     14 N6         2.1077    0.1257    6.4956 N.3       1 RES1    0.0000
     15 N7         1.1817   -0.1742    7.4953 N.pl3     1 RES1    0.0000
     16 O6         0.7561   -1.3135    7.4582 O.2       1 RES1    0.0000
     17 O7         0.8980    0.6718    8.2938 O.2       1 RES1    0.0000
     18 C4         2.3758    1.5229    6.2203 C.3       1 RES1    0.0000
     19 N8         1.7102    2.0138    5.0196 N.am      1 RES1    0.0000
     20 N9         0.3695    2.4796    5.1758 N.pl3     1 RES1    0.0000
     21 O8        -0.1232    2.3188    6.2672 O.2       1 RES1    0.0000
     22 O9        -0.1465    2.9487    4.1840 O.2       1 RES1    0.0000
     23 C5         2.5972    2.8582    4.2406 C.2       1 RES1    0.0000
     24 O10        2.2667    3.6189    3.3777 O.2       1 RES1    0.0000
     25 N10        3.8163    2.5969    4.7307 N.am      1 RES1    0.0000
     26 C6         3.8849    1.7508    5.8748 C.3       1 RES1    0.0000
     27 H1         4.5194   -1.2834    4.8654 H         1 RES1    0.0000
     28 H2         1.0102   -1.4526    4.6311 H         1 RES1    0.0000
     29 H3         2.5769   -1.7106    6.2223 H         1 RES1    0.0000
     30 H4         2.0750    1.9736    7.0130 H         1 RES1    0.0000
     31 H5         4.3432    2.8599    4.3831 H         1 RES1    0.0000
     32 H6         4.4196    2.1596    6.5601 H         1 RES1    0.0000
@<TRIPOS>BOND
     1    1    2 1
     2    2    3 2
     3    4    2 2
     4    5    1 1
     5    6    5 1
     6    7    6 1
     7    8    7 2
     8    9    7 2
     9   10    6 1
    10   11   10 2
    11   12   10 1
    12   13    5 1
    13   14   13 1
    14   15   14 1
    15   16   15 2
    16   17   15 2
    17   18   14 1
    18   19   18 1
    19   20   19 1
    20   21   20 2
    21   22   20 2
    22   23   19 1
    23   24   23 2
    24   25   23 1
    25   26    1 1
    26   27    5 1
    27   28   12 1
    28   29   13 1
    29   30   18 1
    30   31   25 1
    31   32   26 1
    32   12   13 1
    33   18   26 1
    34   25   26 1
@<TRIPOS>SUBSTRUCTURE
     1 RES1 1

@<TRIPOS>CRYSIN
  15.5895   16.7540   19.5240  90.0000  90.0000  90.0000  43 2

