# MOL2 file generated by ConQuest
# Please check atom types

@<TRIPOS>MOLECULE
SOBGIA
    47    42     2
SMALL
NO_CHARGES
****
Generated from CSD

@<TRIPOS>ATOM
      1 C1         2.2655   -3.2278    0.0481 C.2       1 RES1    0.0000
      2 H1         2.4421   -4.1953   -0.2289 H         1 RES1    0.0000
      3 O1         1.9857   -3.0276    1.2156 O.2       1 RES1    0.0000
      4 N1         2.3633   -2.2897   -0.9122 N.am      1 RES1    0.0000
      5 O2         1.2393   -1.6651   -3.3370 O.2       1 RES1    0.0000
      6 N2         7.1741    1.6706    2.4489 N.pl3     1 RES1    0.0000
      7 C2         4.9124    0.6819    2.7806 C.ar      1 RES1    0.0000
      8 C3         3.8754   -0.8580    1.1270 C.3       1 RES1    0.0000
      9 H2         3.4364   -1.2574    1.9082 H         1 RES1    0.0000
     10 H3         4.2929   -1.5833    0.6162 H         1 RES1    0.0000
     11 N3         0.5916   -0.8730   -2.6661 N.pl3     1 RES1    0.0000
     12 N4         4.9067    0.0429    1.5823 N.3       1 RES1    0.0000
     13 H4         5.5578    0.1839    1.0631 H         1 RES1    0.0000
     14 C4         2.1477   -0.9098   -0.7331 C.ar      1 RES1    0.0000
     15 O3         7.2645    1.1412    1.3327 O.2       1 RES1    0.0000
     16 C5         5.9993    1.4650    3.2483 C.ar      1 RES1    0.0000
     17 C6         2.5541    1.1645    0.3981 C.ar      1 RES1    0.0000
     18 H5         3.0333    1.6640    1.0971 H         1 RES1    0.0000
     19 C7         5.9696    2.0724    4.5013 C.ar      1 RES1    0.0000
     20 H6         6.7064    2.5731    4.7791 H         1 RES1    0.0000
     21 O4        -0.5652   -0.5737   -2.9207 O.2       1 RES1    0.0000
     22 C8         3.8113    0.6100    3.6455 C.ar      1 RES1    0.0000
     23 H7         3.0374    0.1196    3.3710 H         1 RES1    0.0000
     24 C9         2.8170   -0.1905    0.2571 C.ar      1 RES1    0.0000
     25 C10        1.6482    1.8466   -0.3989 C.ar      1 RES1    0.0000
     26 C11        3.8102    1.2190    4.8662 C.ar      1 RES1    0.0000
     27 H8         3.0678    1.1393    5.3978 H         1 RES1    0.0000
     28 C12        1.2564   -0.2035   -1.5508 C.ar      1 RES1    0.0000
     29 C13        4.8960    1.9572    5.3356 C.ar      1 RES1    0.0000
     30 C14        4.8714    2.5994    6.6981 C.3       1 RES1    0.0000
     31 H9         5.6986    3.0635    6.8490 H         1 RES1    0.0000
     32 H10        4.7570    1.9227    7.3690 H         1 RES1    0.0000
     33 H11        4.1421    3.2219    6.7454 H         1 RES1    0.0000
     34 H12        4.0336    2.4086    7.1268 Du        2 SUP2    0.0000
     35 H13        4.9740    3.5494    6.6061 Du        2 SUP2    0.0000
     36 H14        5.5901    2.2486    7.2305 Du        2 SUP2    0.0000
     37 O5         8.0726    2.3789    2.9033 O.2       1 RES1    0.0000
     38 C15        0.9889    1.1403   -1.3799 C.ar      1 RES1    0.0000
     39 H15        0.3557    1.5728   -1.9347 H         1 RES1    0.0000
     40 C16        1.4237    3.3264   -0.2057 C.3       1 RES1    0.0000
     41 H16        0.7813    3.6391   -0.8467 H         1 RES1    0.0000
     42 H17        2.2531    3.7946   -0.3284 H         1 RES1    0.0000
     43 H18        1.0940    3.4866    0.6817 H         1 RES1    0.0000
     44 H19        1.9709    3.6406    0.5183 Du        2 SUP2    0.0000
     45 H20        0.4992    3.4851   -0.0008 Du        2 SUP2    0.0000
     46 H21        1.6582    3.7931   -1.0101 Du        2 SUP2    0.0000
     47 H22        2.4147   -2.5746   -1.6834 H         1 RES1    0.0000
@<TRIPOS>BOND
     1    1    2 1
     2    3    1 2
     3    4    1 1
     4    5   11 2
     5    6   15 2
     6    7   12 1
     7    8    9 1
     8   10    8 1
     9   11   21 2
    10   12    8 1
    11   13   12 1
    12   14    4 1
    13   16    6 1
    14   17   18 1
    15   19   16 ar
    16   20   19 1
    17   22    7 ar
    18   23   22 1
    19   24    8 1
    20   25   17 ar
    21   26   22 ar
    22   27   26 1
    23   28   11 1
    24   29   19 ar
    25   30   29 1
    26   31   30 1
    27   32   30 1
    28   33   30 1
    29   37    6 2
    30   38   25 ar
    31   39   38 1
    32   40   25 1
    33   41   40 1
    34   42   40 1
    35   43   40 1
    36   47    4 1
    37    7   16 ar
    38   14   24 ar
    39   14   28 ar
    40   17   24 ar
    41   26   29 ar
    42   28   38 ar
@<TRIPOS>SUBSTRUCTURE
     1 RES1 1
     2 SUP2 34

@<TRIPOS>CRYSIN
  13.1010   14.9510    8.3160  90.0000  94.2800  90.0000  14 1

