# MOL2 file generated by ConQuest
# Please check atom types

@<TRIPOS>MOLECULE
SOBWEM
    37    39     1
SMALL
USER_CHARGES
****
Generated from CSD

@<TRIPOS>ATOM
      1 C1         1.6448    0.6573    1.6479 C.ar      1 RES1    0.0000
      2 C2         2.0320    0.3868    0.3496 C.ar      1 RES1    0.0000
      3 H1         2.5718   -0.3496    0.1706 H         1 RES1    0.0000
      4 C3         1.6186    1.2068   -0.6881 C.ar      1 RES1    0.0000
      5 H2         1.8935    1.0338   -1.5594 H         1 RES1    0.0000
      6 C4         0.8097    2.2657   -0.4238 C.ar      1 RES1    0.0000
      7 H3         0.5139    2.8096   -1.1175 H         1 RES1    0.0000
      8 C5         0.4276    2.5334    0.8629 C.ar      1 RES1    0.0000
      9 H4        -0.1199    3.2651    1.0363 H         1 RES1    0.0000
     10 C6         0.8400    1.7385    1.8993 C.ar      1 RES1    0.0000
     11 H5         0.5743    1.9319    2.7692 H         1 RES1    0.0000
     12 C7         2.1257   -0.2334    2.7622 C.3       1 RES1    0.0000
     13 H6         2.7009   -0.9381    2.3958 H         1 RES1    0.0000
     14 C8         1.0215   -0.8711    3.6555 C.3       1 RES1    0.0000
     15 H7         0.1743   -0.4119    3.5482 H         1 RES1    0.0000
     16 H8         0.9029   -1.8111    3.4503 H         1 RES1    0.0000
     17 C9         1.5616   -0.6843    5.0164 C.2       1 RES1    0.0000
     18 N1         2.5891    0.1599    5.0005 N.pl3     1 RES1    1.0000
     19 O1         2.8984    0.5978    3.7009 O.3       1 RES1    0.0000
     20 O2         3.2724    0.6592    5.8901 O.2       1 RES1   -1.0000
     21 C10        1.1012   -1.1054    6.3076 C.2       1 RES1    0.0000
     22 H9         1.6016   -0.8293    7.0418 H         1 RES1    0.0000
     23 C11        0.0186   -1.8603    6.5630 C.2       1 RES1    0.0000
     24 N2        -0.3052   -2.0109    7.9968 N.pl3     1 RES1    0.0000
     25 O3         0.3971   -1.4940    8.8482 O.2       1 RES1    0.0000
     26 O4        -1.3211   -2.6357    8.2709 O.2       1 RES1    0.0000
     27 C12       -0.8489   -2.5595    5.6149 C.ar      1 RES1    0.0000
     28 C13       -0.3512   -3.6667    4.9524 C.ar      1 RES1    0.0000
     29 H10        0.5057   -3.9735    5.1454 H         1 RES1    0.0000
     30 C14       -1.1122   -4.3166    4.0097 C.ar      1 RES1    0.0000
     31 H11       -0.7710   -5.0631    3.5720 H         1 RES1    0.0000
     32 C15       -2.3566   -3.8731    3.7174 C.ar      1 RES1    0.0000
     33 H12       -2.8560   -4.2989    3.0587 H         1 RES1    0.0000
     34 C16       -2.8893   -2.7928    4.3915 C.ar      1 RES1    0.0000
     35 H13       -3.7508   -2.5009    4.2013 H         1 RES1    0.0000
     36 C17       -2.1378   -2.1560    5.3426 C.ar      1 RES1    0.0000
     37 H14       -2.5034   -1.4410    5.8111 H         1 RES1    0.0000
@<TRIPOS>BOND
     1    1    2 ar
     2    2    3 1
     3    4    2 ar
     4    5    4 1
     5    6    4 ar
     6    7    6 1
     7    8    6 ar
     8    9    8 1
     9   10    1 ar
    10   11   10 1
    11   12    1 1
    12   13   12 1
    13   14   12 1
    14   15   14 1
    15   16   14 1
    16   17   14 1
    17   18   17 2
    18   19   12 1
    19   20   18 1
    20   21   17 1
    21   22   21 1
    22   23   21 2
    23   24   23 1
    24   25   24 2
    25   26   24 2
    26   27   23 1
    27   28   27 ar
    28   29   28 1
    29   30   28 ar
    30   31   30 1
    31   32   30 ar
    32   33   32 1
    33   34   32 ar
    34   35   34 1
    35   36   27 ar
    36   37   36 1
    37    8   10 ar
    38   18   19 1
    39   34   36 ar
@<TRIPOS>SUBSTRUCTURE
     1 RES1 1

@<TRIPOS>CRYSIN
  11.4720    9.2970   14.0020  90.0000  92.7600  90.0000 231 1

