# MOL2 file generated by ConQuest
# Please check atom types

@<TRIPOS>MOLECULE
SOBXEO
    49    51     1
SMALL
USER_CHARGES
****
Generated from CSD

@<TRIPOS>ATOM
      1 O1        -0.0485    9.7447    5.0814 O.2       1 RES1   -1.0000
      2 O2         1.7243    9.4755    3.1998 O.3       1 RES1    0.0000
      3 N1        -0.1677    8.3671    5.2451 N.4       1 RES1    1.0000
      4 C1         2.7779    8.0898    4.9054 C.ar      1 RES1    0.0000
      5 C2         3.0427    6.8790    5.5474 C.ar      1 RES1    0.0000
      6 H1         2.7417    6.0832    5.1734 H         1 RES1    0.0000
      7 C3         4.2075    8.0426    7.3072 C.ar      1 RES1    0.0000
      8 H2         4.6531    8.0325    8.1237 H         1 RES1    0.0000
      9 C4         3.2941    9.2634    5.4414 C.ar      1 RES1    0.0000
     10 H3         3.1724   10.0683    4.9906 H         1 RES1    0.0000
     11 C5         1.8505    8.1380    3.6775 C.3       1 RES1    0.0000
     12 C6         0.3265    7.9079    6.5550 C.2       1 RES1    0.0000
     13 H4         0.3327    6.9966    6.7379 H         1 RES1    0.0000
     14 C7         2.4479    7.3071    2.5368 C.ar      1 RES1    0.0000
     15 C8         3.7530    6.8559    6.7441 C.ar      1 RES1    0.0000
     16 H5         3.9233    6.0450    7.1659 H         1 RES1    0.0000
     17 C9         3.9913    9.2474    6.6444 C.ar      1 RES1    0.0000
     18 H6         4.3134   10.0422    7.0059 H         1 RES1    0.0000
     19 C10        2.0023    6.0279    2.2086 C.ar      1 RES1    0.0000
     20 H7         1.3166    5.6380    2.6989 H         1 RES1    0.0000
     21 C11        3.6180    5.8762    0.4301 C.ar      1 RES1    0.0000
     22 H8         3.9992    5.4069   -0.2763 H         1 RES1    0.0000
     23 C12        3.5130    7.8507    1.8138 C.ar      1 RES1    0.0000
     24 H9         3.8360    8.6947    2.0299 H         1 RES1    0.0000
     25 C13       -1.9387    8.1400    3.6692 C.3       1 RES1    0.0000
     26 H10       -2.1920    9.0534    3.4656 H         1 RES1    0.0000
     27 H11       -2.6579    7.5472    3.4011 H         1 RES1    0.0000
     28 C14        0.4447    7.6025    4.0535 C.3       1 RES1    0.0000
     29 H12        0.5180    6.6539    4.2904 H         1 RES1    0.0000
     30 C15       -1.6325    7.9803    5.1422 C.3       1 RES1    0.0000
     31 H13       -1.7719    7.0649    5.4290 H         1 RES1    0.0000
     32 H14       -2.1867    8.5691    5.6783 H         1 RES1    0.0000
     33 C16        2.5758    5.3255    1.1469 C.ar      1 RES1    0.0000
     34 H15        2.2538    4.4835    0.9204 H         1 RES1    0.0000
     35 C17        4.0954    7.1382    0.7708 C.ar      1 RES1    0.0000
     36 H16        4.8067    7.5070    0.2992 H         1 RES1    0.0000
     37 C18       -0.6239    7.7642    2.9586 C.3       1 RES1    0.0000
     38 H17       -0.7307    6.9353    2.4683 H         1 RES1    0.0000
     39 H18       -0.3653    8.4616    2.3374 H         1 RES1    0.0000
     40 O3         1.6634    9.3117    9.5132 O.3       1 RES1    0.0000
     41 O4         1.1181    7.1503    9.2028 O.2       1 RES1    0.0000
     42 C19        2.1558    8.9821   10.8309 C.3       1 RES1    0.0000
     43 H19        1.4587    8.5581   11.3358 H         1 RES1    0.0000
     44 H20        2.4320    9.7849   11.2797 H         1 RES1    0.0000
     45 H21        2.9032    8.3852   10.7540 H         1 RES1    0.0000
     46 C20        1.1842    8.2938    8.7906 C.2       1 RES1    0.0000
     47 C21        0.7598    8.7480    7.4755 C.2       1 RES1    0.0000
     48 H22        0.7951    9.6563    7.2781 H         1 RES1    0.0000
     49 H23        1.1207    9.8372    3.8021 H         1 RES1    0.0000
@<TRIPOS>BOND
     1    1    3 1
     2    2   11 1
     3    3   12 1
     4    4    5 ar
     5    5    6 1
     6    7    8 1
     7    9    4 ar
     8   10    9 1
     9   11    4 1
    10   12   13 1
    11   14   11 1
    12   15    5 ar
    13   16   15 1
    14   17    7 ar
    15   18   17 1
    16   19   14 ar
    17   20   19 1
    18   21   22 1
    19   23   14 ar
    20   24   23 1
    21   25   26 1
    22   27   25 1
    23   28    3 1
    24   29   28 1
    25   30    3 1
    26   31   30 1
    27   32   30 1
    28   33   19 ar
    29   34   33 1
    30   35   21 ar
    31   36   35 1
    32   37   25 1
    33   38   37 1
    34   39   37 1
    35   40   42 1
    36   41   46 2
    37   42   43 1
    38   44   42 1
    39   45   42 1
    40   46   40 1
    41   47   12 2
    42   48   47 1
    43   49    2 1
    44    7   15 ar
    45    9   17 ar
    46   11   28 1
    47   21   33 ar
    48   23   35 ar
    49   25   30 1
    50   28   37 1
    51   46   47 1
@<TRIPOS>SUBSTRUCTURE
     1 RES1 1

@<TRIPOS>CRYSIN
   8.8244   10.0482   20.7767  90.0000  90.0000  90.0000  19 1

