# MOL2 file generated by ConQuest
# Please check atom types

@<TRIPOS>MOLECULE
SODHUP
    62    64     1
SMALL
NO_CHARGES
****
Generated from CSD

@<TRIPOS>ATOM
      1 C1        17.4780    6.1783   -5.4411 C.3       1 RES1    0.0000
      2 H1        16.5183    6.2263   -5.1995 H         1 RES1    0.0000
      3 H2        17.9309    6.9579   -5.0321 H         1 RES1    0.0000
      4 C2        17.6099    6.2450   -6.8689 C.3       1 RES1    0.0000
      5 H3        17.2790    7.1259   -7.1774 H         1 RES1    0.0000
      6 H4        17.0335    5.5492   -7.2755 H         1 RES1    0.0000
      7 C3        19.0225    6.0555   -7.3664 C.3       1 RES1    0.0000
      8 H5        19.5731    6.8400   -7.1176 H         1 RES1    0.0000
      9 H6        19.0230    5.9745   -8.3517 H         1 RES1    0.0000
     10 C4        19.6101    4.7934   -6.7421 C.3       1 RES1    0.0000
     11 H7        19.1611    4.0034   -7.1344 H         1 RES1    0.0000
     12 H8        20.5718    4.7394   -6.9741 H         1 RES1    0.0000
     13 C5        19.4700    4.7399   -5.2593 C.3       1 RES1    0.0000
     14 H9        19.7815    3.8618   -4.9245 H         1 RES1    0.0000
     15 H10       20.0265    5.4451   -4.8431 H         1 RES1    0.0000
     16 C6        17.5111    4.1929   -3.9415 C.2       1 RES1    0.0000
     17 C7        16.1211    4.5719   -3.4751 C.3       1 RES1    0.0000
     18 H11       16.1397    5.5040   -3.1427 H         1 RES1    0.0000
     19 H12       15.5061    4.5411   -4.2500 H         1 RES1    0.0000
     20 C8        14.2950    1.9673   -2.1736 C.2       1 RES1    0.0000
     21 C9        13.4796    0.8550   -2.6756 C.2       1 RES1    0.0000
     22 H13       13.2985    0.1438   -2.0736 H         1 RES1    0.0000
     23 C10       12.9826    0.7580   -3.8853 C.2       1 RES1    0.0000
     24 H14       13.1852    1.4582   -4.4940 H         1 RES1    0.0000
     25 C11       12.1294   -0.3531   -4.3863 C.3       1 RES1    0.0000
     26 H15       12.0944   -1.0693   -3.7047 H         1 RES1    0.0000
     27 H16       12.5369   -0.7327   -5.2043 H         1 RES1    0.0000
     28 C12       10.7012    0.1091   -4.7044 C.3       1 RES1    0.0000
     29 H17       10.7351    0.8429   -5.3693 H         1 RES1    0.0000
     30 H18       10.1944   -0.6418   -5.1038 H         1 RES1    0.0000
     31 C13        9.9903    0.5878   -3.4703 C.2       1 RES1    0.0000
     32 H19        9.5278   -0.0645   -2.9585 H         1 RES1    0.0000
     33 C14        9.9530    1.8196   -3.0422 C.2       1 RES1    0.0000
     34 H20       10.3289    2.4807   -3.6114 H         1 RES1    0.0000
     35 C15        9.3733    2.3011   -1.7364 C.3       1 RES1    0.0000
     36 H21        8.5895    2.8751   -1.9277 H         1 RES1    0.0000
     37 H22        9.0513    1.5177   -1.2221 H         1 RES1    0.0000
     38 C16       10.3398    3.0751   -0.8801 C.3       1 RES1    0.0000
     39 H23       10.5723    3.9202   -1.3393 H         1 RES1    0.0000
     40 H24        9.8980    3.3082   -0.0263 H         1 RES1    0.0000
     41 C17       11.4957    1.4334    0.3970 C.2       1 RES1    0.0000
     42 C18       12.7571    0.7779    0.7113 C.ar      1 RES1    0.0000
     43 C19       12.7013   -0.3410    1.6053 C.ar      1 RES1    0.0000
     44 C20       13.8131   -1.0721    1.9533 C.ar      1 RES1    0.0000
     45 H25       13.7418   -1.8207    2.5328 H         1 RES1    0.0000
     46 C21       15.0362   -0.6903    1.4381 C.ar      1 RES1    0.0000
     47 C22       15.1510    0.4148    0.5948 C.ar      1 RES1    0.0000
     48 H26       16.0075    0.6726    0.2750 H         1 RES1    0.0000
     49 C23       14.0295    1.1453    0.2160 C.ar      1 RES1    0.0000
     50 C24       14.3413    2.2978   -0.6962 C.3       1 RES1    0.0000
     51 H27       15.2460    2.6372   -0.4783 H         1 RES1    0.0000
     52 H28       13.6959    3.0266   -0.5142 H         1 RES1    0.0000
     53 O1        18.1005    3.2426   -3.4560 O.2       1 RES1    0.0000
     54 O2        15.6183    3.7340   -2.4601 O.3       1 RES1    0.0000
     55 O3        11.5689    2.3391   -0.5907 O.3       1 RES1    0.0000
     56 O4        10.4136    1.1828    0.9593 O.2       1 RES1    0.0000
     57 O5        11.5200   -0.7597    2.1389 O.3       1 RES1    0.0000
     58 H29       10.8984   -0.2584    1.8751 H         1 RES1    0.0000
     59 O6        16.1941   -1.3596    1.6924 O.3       1 RES1    0.0000
     60 H30       16.0352   -2.0146    2.1932 H         1 RES1    0.0000
     61 N1        18.0515    4.9421   -4.8941 N.am      1 RES1    0.0000
     62 N2        14.9286    2.6432   -3.0609 N.2       1 RES1    0.0000
@<TRIPOS>BOND
     1    1    2 1
     2    3    1 1
     3    4    1 1
     4    5    4 1
     5    6    4 1
     6    7    4 1
     7    8    7 1
     8    9    7 1
     9   10    7 1
    10   11   10 1
    11   12   10 1
    12   13   10 1
    13   14   13 1
    14   15   13 1
    15   16   17 1
    16   17   18 1
    17   19   17 1
    18   20   21 1
    19   21   22 1
    20   23   21 2
    21   24   23 1
    22   25   23 1
    23   26   25 1
    24   27   25 1
    25   28   25 1
    26   29   28 1
    27   30   28 1
    28   31   28 1
    29   32   31 1
    30   33   31 2
    31   34   33 1
    32   35   33 1
    33   36   35 1
    34   37   35 1
    35   38   35 1
    36   39   38 1
    37   40   38 1
    38   41   42 1
    39   42   43 ar
    40   43   44 ar
    41   44   45 1
    42   46   44 ar
    43   47   46 ar
    44   48   47 1
    45   49   42 ar
    46   50   20 1
    47   51   50 1
    48   52   50 1
    49   53   16 2
    50   54   17 1
    51   55   38 1
    52   56   41 2
    53   57   43 1
    54   58   57 1
    55   59   46 1
    56   60   59 1
    57   61    1 1
    58   62   20 2
    59   13   61 1
    60   16   61 1
    61   41   55 1
    62   47   49 ar
    63   49   50 1
    64   54   62 1
@<TRIPOS>SUBSTRUCTURE
     1 RES1 1

@<TRIPOS>CRYSIN
  16.9270    5.5090   28.8170  90.0000 123.9060  90.0000  14 1

