# MOL2 file generated by ConQuest
# Please check atom types

@<TRIPOS>MOLECULE
SODMEE
    47    52     1
SMALL
NO_CHARGES
****
Generated from CSD

@<TRIPOS>ATOM
      1 O1         5.2674    5.7648    2.0766 O.2       1 RES1    0.0000
      2 O2         4.1977    6.2359    0.3093 O.2       1 RES1    0.0000
      3 N1         1.7823    2.7068    4.4549 N.ar      1 RES1    0.0000
      4 N2         4.2584    5.7164    1.4047 N.pl3     1 RES1    0.0000
      5 C1         2.7054    1.2962    6.1587 C.3       1 RES1    0.0000
      6 C2         2.8820    2.2672    5.0127 C.ar      1 RES1    0.0000
      7 C3         4.1804    2.6649    4.6070 C.ar      1 RES1    0.0000
      8 C4         2.4492    2.0489    7.4772 C.3       1 RES1    0.0000
      9 C5         3.9415    0.4107    6.3388 C.3       1 RES1    0.0000
     10 C6         1.8832    3.6164    3.4407 C.ar      1 RES1    0.0000
     11 C7         0.6685    4.0318    2.8524 C.ar      1 RES1    0.0000
     12 C8         0.6716    4.9517    1.8332 C.ar      1 RES1    0.0000
     13 C9         1.8880    5.4888    1.3742 C.ar      1 RES1    0.0000
     14 C10        3.0491    5.0837    1.9447 C.ar      1 RES1    0.0000
     15 C11        3.1280    4.1229    2.9894 C.ar      1 RES1    0.0000
     16 C12        4.2876    3.5988    3.6029 C.ar      1 RES1    0.0000
     17 H1         1.9171    0.7118    5.9635 H         1 RES1    0.0000
     18 H2         1.7879    2.7792    7.3048 H         1 RES1    0.0000
     19 H3         2.0677    1.4059    8.1415 H         1 RES1    0.0000
     20 H4         4.0597   -0.1673    5.5299 H         1 RES1    0.0000
     21 H5         3.8233   -0.1673    7.1476 H         1 RES1    0.0000
     22 H6        -0.1979    3.6536    3.1795 H         1 RES1    0.0000
     23 H7        -0.1900    5.2398    1.4173 H         1 RES1    0.0000
     24 H8         1.8959    6.1634    0.6364 H         1 RES1    0.0000
     25 H9         5.1902    3.9064    3.3038 H         1 RES1    0.0000
     26 O1C        2.6156    5.7648   10.6009 O.2       1 RES1    0.0000
     27 O2C        3.6853    6.2359   12.3682 O.2       1 RES1    0.0000
     28 N1C        6.1007    2.7068    8.2226 N.ar      1 RES1    0.0000
     29 N2C        3.6246    5.7164   11.2728 N.pl3     1 RES1    0.0000
     30 C1C        5.1776    1.2962    6.5188 C.3       1 RES1    0.0000
     31 C2C        5.0010    2.2672    7.6648 C.ar      1 RES1    0.0000
     32 C3C        3.7026    2.6649    8.0705 C.ar      1 RES1    0.0000
     33 C4C        5.4338    2.0489    5.2003 C.3       1 RES1    0.0000
     34 C6C        5.9998    3.6164    9.2368 C.ar      1 RES1    0.0000
     35 C7C        7.2145    4.0318    9.8251 C.ar      1 RES1    0.0000
     36 C8C        7.2114    4.9517   10.8443 C.ar      1 RES1    0.0000
     37 C9C        5.9950    5.4888   11.3033 C.ar      1 RES1    0.0000
     38 C10C       4.8339    5.0837   10.7328 C.ar      1 RES1    0.0000
     39 C11C       4.7550    4.1229    9.6881 C.ar      1 RES1    0.0000
     40 C12C       3.5954    3.5988    9.0746 C.ar      1 RES1    0.0000
     41 H1C        5.9659    0.7118    6.7140 H         1 RES1    0.0000
     42 H2C        6.0951    2.7792    5.3727 H         1 RES1    0.0000
     43 H3C        5.8153    1.4059    4.5360 H         1 RES1    0.0000
     44 H6C        8.0809    3.6536    9.4980 H         1 RES1    0.0000
     45 H7C        8.0730    5.2398   11.2602 H         1 RES1    0.0000
     46 H8C        5.9871    6.1634   12.0411 H         1 RES1    0.0000
     47 H9C        2.6928    3.9064    9.3737 H         1 RES1    0.0000
@<TRIPOS>BOND
     1    1    4 2
     2    2    4 2
     3    3    6 ar
     4    4   14 1
     5    5    6 1
     6    6    7 ar
     7    7   16 ar
     8    8    5 1
     9    9    5 1
    10   10    3 ar
    11   11   10 ar
    12   12   11 ar
    13   13   12 ar
    14   14   13 ar
    15   15   10 ar
    16   16   15 ar
    17   17    5 1
    18   18    8 1
    19   19    8 1
    20   20    9 1
    21   21    9 1
    22   22   11 1
    23   23   12 1
    24   24   13 1
    25   25   16 1
    26   26   29 2
    27   27   29 2
    28   28   31 ar
    29   29   38 1
    30   30    9 1
    31   31   30 1
    32   32    8 1
    33   33    7 1
    34   34   28 ar
    35   35   34 ar
    36   36   35 ar
    37   37   36 ar
    38   38   37 ar
    39   39   34 ar
    40   40   32 ar
    41   41   30 1
    42   42   33 1
    43   43   33 1
    44   44   35 1
    45   45   36 1
    46   46   37 1
    47   47   40 1
    48   14   15 ar
    49   30   33 1
    50   31   32 ar
    51   38   39 ar
    52   39   40 ar
@<TRIPOS>SUBSTRUCTURE
     1 RES1 1

@<TRIPOS>CRYSIN
   7.8830    9.2920   25.3550  90.0000  90.0000  90.0000  60 1

