# MOL2 file generated by ConQuest
# Please check atom types

@<TRIPOS>MOLECULE
SOGDAU
    30    31     1
SMALL
NO_CHARGES
****
Generated from CSD

@<TRIPOS>ATOM
      1 N1         6.5930    8.6087    4.1068 N.pl3     1 RES1    0.0000
      2 N2         4.0335    4.5162    6.8960 N.pl3     1 RES1    0.0000
      3 H1         4.0072    4.5706    7.8050 H         1 RES1    0.0000
      4 N3         3.3595    3.5461    6.2284 N.2       1 RES1    0.0000
      5 N4         1.5506    0.5477    6.7080 N.ar      1 RES1    0.0000
      6 N5         1.1438    0.9777    3.9733 N.ar      1 RES1    0.0000
      7 O1         7.1391    9.4924    4.7520 O.2       1 RES1    0.0000
      8 O2         6.5583    8.6138    2.8800 O.2       1 RES1    0.0000
      9 C1         4.6588    5.5060    6.1690 C.ar      1 RES1    0.0000
     10 C2         5.2576    6.5573    6.8681 C.ar      1 RES1    0.0000
     11 H2         5.2250    6.5718    7.7978 H         1 RES1    0.0000
     12 C3         5.8909    7.5642    6.1948 C.ar      1 RES1    0.0000
     13 H3         6.2933    8.2614    6.6612 H         1 RES1    0.0000
     14 C4         5.9273    7.5340    4.8201 C.ar      1 RES1    0.0000
     15 C5         5.3581    6.4980    4.1053 C.ar      1 RES1    0.0000
     16 H4         5.4002    6.4917    3.1768 H         1 RES1    0.0000
     17 C6         4.7299    5.4747    4.7770 C.ar      1 RES1    0.0000
     18 H5         4.3548    4.7671    4.3050 H         1 RES1    0.0000
     19 C7         2.7876    2.6078    6.9038 C.2       1 RES1    0.0000
     20 C8         2.8376    2.4689    8.3908 C.3       1 RES1    0.0000
     21 H6         3.7532    2.4267    8.6773 H         1 RES1    0.0000
     22 H7         2.3831    1.6658    8.6533 H         1 RES1    0.0000
     23 H8         2.4103    3.2265    8.7975 H         1 RES1    0.0000
     24 C9         2.0460    1.6299    6.0938 C.ar      1 RES1    0.0000
     25 C10        1.8344    1.8241    4.7283 C.ar      1 RES1    0.0000
     26 H9         2.1942    2.5819    4.3278 H         1 RES1    0.0000
     27 C11        0.6682   -0.1076    4.5997 C.ar      1 RES1    0.0000
     28 H10        0.1831   -0.7347    4.1140 H         1 RES1    0.0000
     29 C12        0.8796   -0.3153    5.9352 C.ar      1 RES1    0.0000
     30 H11        0.5416   -1.0901    6.3236 H         1 RES1    0.0000
@<TRIPOS>BOND
     1    1    7 2
     2    2    3 1
     3    4    2 1
     4    5   24 ar
     5    6   25 ar
     6    8    1 2
     7    9    2 1
     8   10    9 ar
     9   11   10 1
    10   12   10 ar
    11   13   12 1
    12   14    1 1
    13   15   14 ar
    14   16   15 1
    15   17    9 ar
    16   18   17 1
    17   19    4 2
    18   20   19 1
    19   21   20 1
    20   22   20 1
    21   23   20 1
    22   24   19 1
    23   25   24 ar
    24   26   25 1
    25   27    6 ar
    26   28   27 1
    27   29    5 ar
    28   30   29 1
    29   12   14 ar
    30   15   17 ar
    31   27   29 ar
@<TRIPOS>SUBSTRUCTURE
     1 RES1 1

@<TRIPOS>CRYSIN
   8.0101   12.5154   12.1506  90.0000  98.5640  90.0000 231 1

