# MOL2 file generated by ConQuest
# Please check atom types

@<TRIPOS>MOLECULE
SOHXIX
    53    55     1
SMALL
NO_CHARGES
****
Generated from CSD

@<TRIPOS>ATOM
      1 O1         7.7202    2.7474    1.0329 O.2       1 RES1    0.0000
      2 N1         8.9819    2.4567    0.9767 N.pl3     1 RES1    0.0000
      3 N2         8.5455   -1.0800    0.8912 N.2       1 RES1    0.0000
      4 C1         9.3756    1.1381    0.9593 C.ar      1 RES1    0.0000
      5 C2        10.7230    0.8042    0.9213 C.ar      1 RES1    0.0000
      6 H1        10.9846   -0.1085    0.9245 H         1 RES1    0.0000
      7 C3        11.6799    1.7905    0.8781 C.ar      1 RES1    0.0000
      8 H2        12.6044    1.5699    0.8584 H         1 RES1    0.0000
      9 C4        11.2652    3.1169    0.8639 C.ar      1 RES1    0.0000
     10 H3        11.9176    3.8057    0.8260 H         1 RES1    0.0000
     11 C5         9.9282    3.4578    0.9041 C.ar      1 RES1    0.0000
     12 C6         8.2995    0.1489    0.9646 C.2       1 RES1    0.0000
     13 H4         7.3976    0.4408    1.0244 H         1 RES1    0.0000
     14 C7         9.4619    4.8634    0.8034 C.ar      1 RES1    0.0000
     15 C8        10.0049    5.6644   -0.2060 C.ar      1 RES1    0.0000
     16 H5        10.6395    5.2989   -0.8106 H         1 RES1    0.0000
     17 C9         9.6167    6.9986   -0.3261 C.ar      1 RES1    0.0000
     18 H6         9.9868    7.5400   -1.0146 H         1 RES1    0.0000
     19 C10        8.7030    7.5323    0.5470 C.ar      1 RES1    0.0000
     20 H7         8.4351    8.4388    0.4573 H         1 RES1    0.0000
     21 C11        8.1706    6.7527    1.5567 C.ar      1 RES1    0.0000
     22 H8         7.5497    7.1323    2.1671 H         1 RES1    0.0000
     23 C12        8.5389    5.4143    1.6874 C.ar      1 RES1    0.0000
     24 H9         8.1615    4.8806    2.3768 H         1 RES1    0.0000
     25 C13        7.4479   -1.9886    0.8899 C.ar      1 RES1    0.0000
     26 C14        6.9072   -2.4075   -0.3391 C.ar      1 RES1    0.0000
     27 C15        5.8655   -3.3332   -0.3065 C.ar      1 RES1    0.0000
     28 H10        5.4770   -3.6257   -1.1230 H         1 RES1    0.0000
     29 C16        5.3878   -3.8331    0.8839 C.ar      1 RES1    0.0000
     30 H11        4.6756   -4.4610    0.8823 H         1 RES1    0.0000
     31 C17        5.9478   -3.4195    2.0877 C.ar      1 RES1    0.0000
     32 H12        5.6132   -3.7713    2.9045 H         1 RES1    0.0000
     33 C18        6.9910   -2.4972    2.1157 C.ar      1 RES1    0.0000
     34 C19        7.4407   -1.8760   -1.6543 C.3       1 RES1    0.0000
     35 H13        8.3034   -1.4098   -1.4579 H         1 RES1    0.0000
     36 C20        6.5008   -0.8459   -2.2741 C.3       1 RES1    0.0000
     37 H14        5.6370   -1.2668   -2.4668 H         1 RES1    0.0000
     38 H15        6.8913   -0.5057   -3.1057 H         1 RES1    0.0000
     39 H16        6.3703   -0.1033   -1.6464 H         1 RES1    0.0000
     40 C21        7.7517   -3.0075   -2.6425 C.3       1 RES1    0.0000
     41 H17        8.2977   -3.6892   -2.1981 H         1 RES1    0.0000
     42 H18        8.2432   -2.6461   -3.4097 H         1 RES1    0.0000
     43 H19        6.9140   -3.4113   -2.9509 H         1 RES1    0.0000
     44 C22        7.6121   -2.0383    3.4247 C.3       1 RES1    0.0000
     45 H20        8.5009   -1.6388    3.2028 H         1 RES1    0.0000
     46 C23        7.8630   -3.1690    4.3835 C.3       1 RES1    0.0000
     47 H21        7.0071   -3.5582    4.6621 H         1 RES1    0.0000
     48 H22        8.3397   -2.8315    5.1715 H         1 RES1    0.0000
     49 H23        8.4056   -3.8560    3.9444 H         1 RES1    0.0000
     50 C24        6.7857   -0.9491    4.0784 C.3       1 RES1    0.0000
     51 H24        5.9140   -1.3145    4.3412 H         1 RES1    0.0000
     52 H25        6.6541   -0.2144    3.4449 H         1 RES1    0.0000
     53 H26        7.2534   -0.6169    4.8732 H         1 RES1    0.0000
@<TRIPOS>BOND
     1    1    2 1
     2    2    4 ar
     3    3   12 2
     4    4    5 ar
     5    5    6 1
     6    7    5 ar
     7    8    7 1
     8    9    7 ar
     9   10    9 1
    10   11    2 ar
    11   12    4 1
    12   13   12 1
    13   14   11 1
    14   15   14 ar
    15   16   15 1
    16   17   15 ar
    17   18   17 1
    18   19   17 ar
    19   20   19 1
    20   21   19 ar
    21   22   21 1
    22   23   14 ar
    23   24   23 1
    24   25    3 1
    25   26   25 ar
    26   27   26 ar
    27   28   27 1
    28   29   27 ar
    29   30   29 1
    30   31   29 ar
    31   32   31 1
    32   33   25 ar
    33   34   26 1
    34   35   34 1
    35   36   34 1
    36   37   36 1
    37   38   36 1
    38   39   36 1
    39   40   34 1
    40   41   40 1
    41   42   40 1
    42   43   40 1
    43   44   33 1
    44   45   44 1
    45   46   44 1
    46   47   46 1
    47   48   46 1
    48   49   46 1
    49   50   44 1
    50   51   50 1
    51   52   50 1
    52   53   50 1
    53    9   11 ar
    54   21   23 ar
    55   31   33 ar
@<TRIPOS>SUBSTRUCTURE
     1 RES1 1

@<TRIPOS>CRYSIN
  11.3512   13.2373   14.0721  90.0000  90.0000  90.0000  19 1

