# MOL2 file generated by ConQuest
# Please check atom types

@<TRIPOS>MOLECULE
SOKGEE
    36    37     1
SMALL
NO_CHARGES
****
Generated from CSD

@<TRIPOS>ATOM
      1 N1         1.7205   19.4665    2.8711 N.3       1 RES1    0.0000
      2 C1         1.5122   18.1486    3.1505 C.2       1 RES1    0.0000
      3 C2         0.9990   17.7550    4.3857 C.2       1 RES1    0.0000
      4 N2         0.6271   18.6596    5.3180 N.3       1 RES1    0.0000
      5 C3         0.4137   20.9603    6.0066 C.ar      1 RES1    0.0000
      6 C4         0.5665   22.2949    5.7056 C.ar      1 RES1    0.0000
      7 C5         1.0819   22.7054    4.4723 C.ar      1 RES1    0.0000
      8 C6         1.4647   21.7923    3.5212 C.ar      1 RES1    0.0000
      9 C7         1.3277   20.4186    3.8168 C.ar      1 RES1    0.0000
     10 C8         0.7943   20.0221    5.0467 C.ar      1 RES1    0.0000
     11 O1         2.2712   19.8379    1.7751 O.2       1 RES1    0.0000
     12 O2         0.0959   18.3022    6.4376 O.2       1 RES1    0.0000
     13 C9         1.8654   17.1938    2.0647 C.3       1 RES1    0.0000
     14 O3         3.2847   16.9062    2.1939 O.3       1 RES1    0.0000
     15 C10        3.9204   16.5767    1.0493 C.2       1 RES1    0.0000
     16 C11        5.3721   16.3645    1.2779 C.3       1 RES1    0.0000
     17 O4         3.3488   16.4762   -0.0101 O.2       1 RES1    0.0000
     18 C12        0.8260   16.3170    4.7727 C.3       1 RES1    0.0000
     19 O5        -0.5536   15.9876    4.4818 O.3       1 RES1    0.0000
     20 C13       -0.9637   14.7925    4.9560 C.2       1 RES1    0.0000
     21 C14       -2.3635   14.5022    4.5298 C.3       1 RES1    0.0000
     22 O6        -0.2717   14.0722    5.6150 O.2       1 RES1    0.0000
     23 H1         0.0721   20.6615    6.9409 H         1 RES1    0.0000
     24 H2         0.2739   22.9231    6.4606 H         1 RES1    0.0000
     25 H3         1.0812   23.6212    4.2146 H         1 RES1    0.0000
     26 H4         1.9317   22.0855    2.6384 H         1 RES1    0.0000
     27 H5         1.7155   17.7298    1.1230 H         1 RES1    0.0000
     28 H6         1.3407   16.3059    2.2730 H         1 RES1    0.0000
     29 H7         5.7880   16.5851    0.6630 H         1 RES1    0.0000
     30 H8         5.5430   15.4962    1.2380 H         1 RES1    0.0000
     31 H9         5.7015   16.7526    2.1310 H         1 RES1    0.0000
     32 H10        1.0307   16.1942    5.8247 H         1 RES1    0.0000
     33 H11        1.4560   15.6916    4.1469 H         1 RES1    0.0000
     34 H12       -2.7390   13.9605    5.2158 H         1 RES1    0.0000
     35 H13       -2.2345   13.9326    3.8019 H         1 RES1    0.0000
     36 H14       -2.8544   15.1611    4.4717 H         1 RES1    0.0000
@<TRIPOS>BOND
     1    1    2 1
     2    2    3 2
     3    3    4 1
     4    4   10 1
     5    5    6 ar
     6    6    7 ar
     7    7    8 ar
     8    8    9 ar
     9    9    1 1
    10   10    5 ar
    11   11    1 1
    12   12    4 1
    13   13    2 1
    14   14   13 1
    15   15   14 1
    16   16   15 1
    17   17   15 2
    18   18    3 1
    19   19   18 1
    20   20   19 1
    21   21   20 1
    22   22   20 2
    23   23    5 1
    24   24    6 1
    25   25    7 1
    26   26    8 1
    27   27   13 1
    28   28   13 1
    29   29   16 1
    30   30   16 1
    31   31   16 1
    32   32   18 1
    33   33   18 1
    34   34   21 1
    35   35   21 1
    36   36   21 1
    37    9   10 ar
@<TRIPOS>SUBSTRUCTURE
     1 RES1 1

@<TRIPOS>CRYSIN
   7.2080   27.9210    6.7650  90.0000  90.0000  90.0000  33 1

