# MOL2 file generated by ConQuest
# Please check atom types

@<TRIPOS>MOLECULE
SOLFEF
    84    86     2
SMALL
NO_CHARGES
****
Generated from CSD

@<TRIPOS>ATOM
      1 O1         3.6706    2.7701    2.1858 O.3       1 RES1    0.0000
      2 O2         4.9767    4.6985    2.0313 O.3       1 RES1    0.0000
      3 O3        -2.7696    3.3540   10.3809 O.3       1 RES1    0.0000
      4 O4        -4.1990    5.0263   10.0524 O.2       1 RES1    0.0000
      5 O5         8.3140    1.6408    2.2975 O.2       1 RES1    0.0000
      6 O6         7.4116   -0.2277    2.9227 O.2       1 RES1    0.0000
      7 N1         6.1795    1.2056    1.8244 N.pl3     1 RES1    0.0000
      8 H1         5.4742    0.6273    2.0589 H         1 RES1    0.0000
      9 N2         7.3710    0.8754    2.3853 N.pl3     1 RES1    0.0000
     10 C1         0.0457    2.3904    9.9653 C.3       1 RES1    0.0000
     11 H2        -0.5087    1.8464   10.5782 H         1 RES1    0.0000
     12 H3         0.9796    2.3550   10.2945 H         1 RES1    0.0000
     13 C2        -0.4342    3.8308   10.0281 C.3       1 RES1    0.0000
     14 H4        -0.4352    4.1319   10.9707 H         1 RES1    0.0000
     15 H5         0.1957    4.4056    9.5247 H         1 RES1    0.0000
     16 C3        -1.8181    3.9962    9.4553 C.3       1 RES1    0.0000
     17 H6        -2.0327    4.9701    9.3803 H         1 RES1    0.0000
     18 C4        -1.9681    3.3404    8.0976 C.3       1 RES1    0.0000
     19 H7        -1.4754    3.8776    7.4278 H         1 RES1    0.0000
     20 H8        -2.9259    3.3507    7.8431 H         1 RES1    0.0000
     21 C5        -1.4595    1.8959    8.0404 C.3       1 RES1    0.0000
     22 H9        -2.0427    1.3537    8.6459 H         1 RES1    0.0000
     23 C6        -1.6105    1.3195    6.6326 C.3       1 RES1    0.0000
     24 H10       -2.5384    1.4632    6.3211 H         1 RES1    0.0000
     25 H11       -1.4475    0.3433    6.6630 H         1 RES1    0.0000
     26 C7        -0.6378    1.9616    5.6378 C.3       1 RES1    0.0000
     27 H12       -0.7143    1.4997    4.7661 H         1 RES1    0.0000
     28 H13       -0.8902    2.9093    5.5031 H         1 RES1    0.0000
     29 C8         0.8137    1.8907    6.1182 C.3       1 RES1    0.0000
     30 H14        1.1078    0.9352    6.1159 H         1 RES1    0.0000
     31 C9         0.9641    2.4543    7.5531 C.3       1 RES1    0.0000
     32 H15        0.6786    3.4111    7.5088 H         1 RES1    0.0000
     33 C10       -0.0050    1.7580    8.5648 C.3       1 RES1    0.0000
     34 C11        2.4440    2.4680    7.9991 C.3       1 RES1    0.0000
     35 H16        2.5096    2.9048    8.8839 H         1 RES1    0.0000
     36 H17        2.7590    1.5339    8.0989 H         1 RES1    0.0000
     37 C12        3.3591    3.2029    7.0079 C.3       1 RES1    0.0000
     38 H18        3.1276    4.1650    7.0023 H         1 RES1    0.0000
     39 H19        4.2989    3.1169    7.3062 H         1 RES1    0.0000
     40 C13        3.2272    2.6431    5.5849 C.3       1 RES1    0.0000
     41 C14        1.7331    2.6872    5.2075 C.3       1 RES1    0.0000
     42 H20        1.4575    3.6415    5.3182 H         1 RES1    0.0000
     43 C15        1.7317    2.4337    3.6926 C.3       1 RES1    0.0000
     44 H21        1.9165    1.4849    3.4822 H         1 RES1    0.0000
     45 H22        0.8723    2.7006    3.2796 H         1 RES1    0.0000
     46 C16        2.8668    3.3354    3.2454 C.3       1 RES1    0.0000
     47 H23        2.5017    4.2208    2.9579 H         1 RES1    0.0000
     48 C17        3.8279    3.5306    4.4569 C.3       1 RES1    0.0000
     49 H24        3.7962    4.4877    4.7459 H         1 RES1    0.0000
     50 C18        0.3507    0.2760    8.7363 C.3       1 RES1    0.0000
     51 H25       -0.2682   -0.1369    9.3752 H         1 RES1    0.0000
     52 H26        1.2677    0.1962    9.0713 H         1 RES1    0.0000
     53 H27        0.2782   -0.1802    7.8709 H         1 RES1    0.0000
     54 C19        3.7883    1.2104    5.5418 C.3       1 RES1    0.0000
     55 H28        4.7321    1.2214    5.8044 H         1 RES1    0.0000
     56 H29        3.7058    0.8542    4.6319 H         1 RES1    0.0000
     57 H30        3.2826    0.6432    6.1615 H         1 RES1    0.0000
     58 C20        5.2255    3.2275    3.8747 C.3       1 RES1    0.0000
     59 H31        5.4544    2.2786    4.0925 H         1 RES1    0.0000
     60 C21        6.3455    4.1091    4.3789 C.3       1 RES1    0.0000
     61 H32        7.1821    3.8605    3.9329 H         1 RES1    0.0000
     62 H33        6.4439    3.9916    5.3461 H         1 RES1    0.0000
     63 H34        6.1369    5.0465    4.1837 H         1 RES1    0.0000
     64 C22        4.9652    3.3249    2.3570 C.3       1 RES1    0.0000
     65 C23        5.9173    2.5573    1.4552 C.2       1 RES1    0.0000
     66 C24        6.4707    3.0895    0.3781 C.2       1 RES1    0.0000
     67 H35        7.0490    2.5558   -0.1545 H         1 RES1    0.0000
     68 C25        6.2134    4.4968   -0.0225 C.3       1 RES1    0.0000
     69 H36        6.0952    4.5231   -1.0155 H         1 RES1    0.0000
     70 C26        4.9209    4.9428    0.6197 C.3       1 RES1    0.0000
     71 H37        4.7798    5.9087    0.4533 H         1 RES1    0.0000
     72 H38        4.1608    4.4455    0.2229 H         1 RES1    0.0000
     73 C27        7.3987    5.3910    0.3432 C.3       1 RES1    0.0000
     74 H39        7.5457    5.3590    1.3118 H         1 RES1    0.0000
     75 H40        7.2069    6.3136    0.0734 H         1 RES1    0.0000
     76 H41        8.2014    5.0750   -0.1216 H         1 RES1    0.0000
     77 C28       -3.9343    3.9711   10.5490 C.2       1 RES1    0.0000
     78 C29       -4.8563    3.1956   11.4354 C.3       1 RES1    0.0000
     79 H42       -5.0808    3.7327   12.2243 H         1 RES1    0.0000
     80 H43       -4.4162    2.3665   11.7203 H         1 RES1    0.0000
     81 H44       -5.6759    2.9777   10.9428 H         1 RES1    0.0000
     82 H45       -5.0341    2.3186   11.0340 Du        2 SUP2    0.0000
     83 H46       -5.6988    3.6848   11.5380 Du        2 SUP2    0.0000
     84 H47       -4.4400    3.0735   12.3129 Du        2 SUP2    0.0000
@<TRIPOS>BOND
     1    1   46 1
     2    2   64 1
     3    3   16 1
     4    4   77 2
     5    5    9 2
     6    6    9 2
     7    7    8 1
     8    9    7 1
     9   10   11 1
    10   12   10 1
    11   13   10 1
    12   14   13 1
    13   15   13 1
    14   16   13 1
    15   17   16 1
    16   18   16 1
    17   19   18 1
    18   20   18 1
    19   21   18 1
    20   22   21 1
    21   23   21 1
    22   24   23 1
    23   25   23 1
    24   26   23 1
    25   27   26 1
    26   28   26 1
    27   29   26 1
    28   30   29 1
    29   31   29 1
    30   32   31 1
    31   33   10 1
    32   34   31 1
    33   35   34 1
    34   36   34 1
    35   37   34 1
    36   38   37 1
    37   39   37 1
    38   40   37 1
    39   41   29 1
    40   42   41 1
    41   43   41 1
    42   44   43 1
    43   45   43 1
    44   46   43 1
    45   47   46 1
    46   48   40 1
    47   49   48 1
    48   50   33 1
    49   51   50 1
    50   52   50 1
    51   53   50 1
    52   54   40 1
    53   55   54 1
    54   56   54 1
    55   57   54 1
    56   58   48 1
    57   59   58 1
    58   60   58 1
    59   61   60 1
    60   62   60 1
    61   63   60 1
    62   64    1 1
    63   65    7 1
    64   66   65 2
    65   67   66 1
    66   68   66 1
    67   69   68 1
    68   70    2 1
    69   71   70 1
    70   72   70 1
    71   73   68 1
    72   74   73 1
    73   75   73 1
    74   76   73 1
    75   77    3 1
    76   78   77 1
    77   79   78 1
    78   80   78 1
    79   81   78 1
    80   21   33 1
    81   31   33 1
    82   40   41 1
    83   46   48 1
    84   58   64 1
    85   64   65 1
    86   68   70 1
@<TRIPOS>SUBSTRUCTURE
     1 RES1 1
     2 SUP2 82

@<TRIPOS>CRYSIN
   9.9351   11.4046   25.3248  90.0000  90.0000  90.0000  19 1

