# MOL2 file generated by ConQuest
# Please check atom types

@<TRIPOS>MOLECULE
SOMKOU01
    29    31     1
SMALL
NO_CHARGES
****
Generated from CSD

@<TRIPOS>ATOM
      1 O1        16.8807    1.3075    0.9895 O.3       1 RES1    0.0000
      2 O2        17.5828    3.4448   -1.8101 O.3       1 RES1    0.0000
      3 O3        19.9976    2.4487   -1.2974 O.2       1 RES1    0.0000
      4 N1        17.7721    2.4402   -0.8485 N.am      1 RES1    0.0000
      5 C1        16.7367    2.4945    0.2048 C.3       1 RES1    0.0000
      6 C2        19.0588    2.1810   -0.5418 C.2       1 RES1    0.0000
      7 C3        19.2485    1.4696    0.7366 C.ar      1 RES1    0.0000
      8 C4        20.5115    1.1817    1.2190 C.ar      1 RES1    0.0000
      9 C5        20.6506    0.4490    2.3821 C.ar      1 RES1    0.0000
     10 C6        19.5291    0.0117    3.0615 C.ar      1 RES1    0.0000
     11 C7        18.2734    0.3061    2.6183 C.ar      1 RES1    0.0000
     12 C8        18.1379    1.0590    1.4586 C.ar      1 RES1    0.0000
     13 C9        15.3225    2.4647   -0.3537 C.3       1 RES1    0.0000
     14 C10       14.5393    3.3840    0.5664 C.3       1 RES1    0.0000
     15 C11       15.5093    4.4900    0.8910 C.3       1 RES1    0.0000
     16 C12       16.8325    3.7743    1.0679 C.3       1 RES1    0.0000
     17 H1        17.6067    2.9649   -2.5746 H         1 RES1    0.0000
     18 H2        21.2376    1.5038    0.7276 H         1 RES1    0.0000
     19 H3        21.4998    0.2133    2.6753 H         1 RES1    0.0000
     20 H4        19.6622   -0.5119    3.8507 H         1 RES1    0.0000
     21 H5        17.5330   -0.0107    3.0671 H         1 RES1    0.0000
     22 H6        15.0060    1.5358   -0.3582 H         1 RES1    0.0000
     23 H7        15.3441    2.8476   -1.2761 H         1 RES1    0.0000
     24 H8        14.2536    2.8796    1.4552 H         1 RES1    0.0000
     25 H9        13.7294    3.7754    0.1231 H         1 RES1    0.0000
     26 H10       15.6030    5.0872    0.1007 H         1 RES1    0.0000
     27 H11       15.2947    5.0552    1.6791 H         1 RES1    0.0000
     28 H12       17.5383    4.2873    0.8172 H         1 RES1    0.0000
     29 H13       16.9140    3.4768    2.0037 H         1 RES1    0.0000
@<TRIPOS>BOND
     1    1    5 1
     2    2    4 1
     3    3    6 2
     4    4    5 1
     5    5   13 1
     6    6    4 1
     7    7    6 1
     8    8    7 ar
     9    9    8 ar
    10   10    9 ar
    11   11   10 ar
    12   12    1 1
    13   13   14 1
    14   14   15 1
    15   15   16 1
    16   16    5 1
    17   17    2 1
    18   18    8 1
    19   19    9 1
    20   20   10 1
    21   21   11 1
    22   22   13 1
    23   23   13 1
    24   24   14 1
    25   25   14 1
    26   26   15 1
    27   27   15 1
    28   28   16 1
    29   29   16 1
    30    7   12 ar
    31   11   12 ar
@<TRIPOS>SUBSTRUCTURE
     1 RES1 1

@<TRIPOS>CRYSIN
  17.4100   10.6650   12.4270  90.0000 115.7400  90.0000  15 1

