# MOL2 file generated by ConQuest
# Please check atom types

@<TRIPOS>MOLECULE
SOMLOW
    31    32     1
SMALL
NO_CHARGES
****
Generated from CSD

@<TRIPOS>ATOM
      1 O1        -3.4194    1.5002    4.1862 O.3       1 RES1    0.0000
      2 O2        -3.4503    0.0217    2.4201 O.3       1 RES1    0.0000
      3 O3        -0.3013    5.3728    3.9808 O.2       1 RES1    0.0000
      4 N1         0.3065    5.2644    2.8412 N.pl3     1 RES1    0.0000
      5 C1        -4.1471    0.4375    3.5815 C.3       1 RES1    0.0000
      6 H1        -4.2293   -0.3037    4.2028 H         1 RES1    0.0000
      7 H2        -5.0382    0.7381    3.3442 H         1 RES1    0.0000
      8 C2        -2.5152    1.0042    2.1870 C.ar      1 RES1    0.0000
      9 C3        -1.6732    1.1402    1.1251 C.ar      1 RES1    0.0000
     10 H3        -1.6650    0.5249    0.4267 H         1 RES1    0.0000
     11 C4        -0.8306    2.2382    1.1353 C.ar      1 RES1    0.0000
     12 H4        -0.2557    2.3673    0.4163 H         1 RES1    0.0000
     13 C5        -0.8100    3.1620    2.1869 C.ar      1 RES1    0.0000
     14 C6        -1.6651    2.9795    3.2824 C.ar      1 RES1    0.0000
     15 H5        -1.6637    3.5640    4.0061 H         1 RES1    0.0000
     16 C7        -2.5015    1.8987    3.2344 C.ar      1 RES1    0.0000
     17 C8         0.1060    4.2806    2.0149 C.2       1 RES1    0.0000
     18 H6         0.6016    4.2921    1.2282 H         1 RES1    0.0000
     19 C9         1.2209    6.4358    2.4914 C.3       1 RES1    0.0000
     20 C10        2.0318    6.7612    3.7355 C.3       1 RES1    0.0000
     21 H7         1.4374    6.9812    4.4568 H         1 RES1    0.0000
     22 H8         2.6081    7.5082    3.5565 H         1 RES1    0.0000
     23 H9         2.5628    5.9997    3.9801 H         1 RES1    0.0000
     24 C11        0.2999    7.5937    2.1274 C.3       1 RES1    0.0000
     25 H10       -0.2009    7.3694    1.3406 H         1 RES1    0.0000
     26 H11        0.8250    8.3791    1.9599 H         1 RES1    0.0000
     27 H12       -0.3049    7.7616    2.8539 H         1 RES1    0.0000
     28 C12        2.1472    6.1041    1.3406 C.3       1 RES1    0.0000
     29 H13        1.6271    5.9012    0.5600 H         1 RES1    0.0000
     30 H14        2.6869    5.3440    1.5727 H         1 RES1    0.0000
     31 H15        2.7153    6.8565    1.1595 H         1 RES1    0.0000
@<TRIPOS>BOND
     1    1    5 1
     2    2    5 1
     3    3    4 1
     4    4   17 2
     5    5    6 1
     6    7    5 1
     7    8    2 1
     8    9    8 ar
     9   10    9 1
    10   11    9 ar
    11   12   11 1
    12   13   11 ar
    13   14   13 ar
    14   15   14 1
    15   16    1 1
    16   17   13 1
    17   18   17 1
    18   19    4 1
    19   20   19 1
    20   21   20 1
    21   22   20 1
    22   23   20 1
    23   24   19 1
    24   25   24 1
    25   26   24 1
    26   27   24 1
    27   28   19 1
    28   29   28 1
    29   30   28 1
    30   31   28 1
    31    8   16 ar
    32   14   16 ar
@<TRIPOS>SUBSTRUCTURE
     1 RES1 1

@<TRIPOS>CRYSIN
   5.5236   20.1130   10.4400  90.0000  94.4700  90.0000  14 1

