# MOL2 file generated by ConQuest
# Please check atom types

@<TRIPOS>MOLECULE
SONDEE01
    22    22     1
SMALL
NO_CHARGES
****
Generated from CSD

@<TRIPOS>ATOM
      1 N1         7.4084    0.9704    4.3625 N.3       1 RES1    0.0000
      2 C1         6.3338    0.7737    5.1594 C.2       1 RES1    0.0000
      3 N2         5.7968    1.9091    5.5915 N.2       1 RES1    0.0000
      4 C2         6.5385    2.8965    5.0269 C.2       1 RES1    0.0000
      5 H1         6.3952    3.8081    5.1402 H         1 RES1    0.0000
      6 C3         7.5231    2.3446    4.2694 C.2       1 RES1    0.0000
      7 C4         5.8174   -0.5908    5.4797 C.3       1 RES1    0.0000
      8 H2         5.5659   -1.0598    4.6689 H         1 RES1    0.0000
      9 H3         6.4910   -1.1106    5.9457 H         1 RES1    0.0000
     10 O1         4.6733   -0.3807    6.3170 O.3       1 RES1    0.0000
     11 C5         4.0895   -1.5239    6.7728 C.2       1 RES1    0.0000
     12 O2         4.4999   -2.6299    6.4668 O.2       1 RES1    0.0000
     13 N3         3.0639   -1.2390    7.5671 N.am      1 RES1    0.0000
     14 H4         2.5598   -1.8462    7.8858 H         1 RES1    0.0000
     15 H5         2.8489   -0.4304    7.7427 H         1 RES1    0.0000
     16 N4         8.5779    3.0271    3.5989 N.pl3     1 RES1    0.0000
     17 O3         9.5400    2.3854    3.1779 O.2       1 RES1    0.0000
     18 O4         8.4721    4.2518    3.5032 O.2       1 RES1    0.0000
     19 C6         8.0944   -0.0920    3.6130 C.3       1 RES1    0.0000
     20 H6         7.5986   -0.2925    2.8161 H         1 RES1    0.0000
     21 H7         8.1559   -0.8799    4.1584 H         1 RES1    0.0000
     22 H8         8.9769    0.2021    3.3755 H         1 RES1    0.0000
@<TRIPOS>BOND
     1    1    2 1
     2    2    3 2
     3    3    4 1
     4    4    5 1
     5    6    1 1
     6    7    2 1
     7    8    7 1
     8    9    7 1
     9   10    7 1
    10   11   10 1
    11   12   11 2
    12   13   11 1
    13   14   13 1
    14   15   13 1
    15   16    6 1
    16   17   16 2
    17   18   16 2
    18   19    1 1
    19   20   19 1
    20   21   19 1
    21   22   19 1
    22    4    6 2
@<TRIPOS>SUBSTRUCTURE
     1 RES1 1

@<TRIPOS>CRYSIN
  10.5367    7.9270   10.1616  90.0000 105.3650  90.0000  14 1

