# MOL2 file generated by ConQuest
# Please check atom types

@<TRIPOS>MOLECULE
SOPZUS
    27    28     1
SMALL
NO_CHARGES
****
Generated from CSD

@<TRIPOS>ATOM
      1 O1        16.8871    3.6091    6.6207 O.2       1 RES1    0.0000
      2 O2        18.5372    3.1211    5.3642 O.2       1 RES1    0.0000
      3 N1        17.3510    3.0990    5.6189 N.pl3     1 RES1    0.0000
      4 N2        13.8020    0.8203    1.8822 N.pl3     1 RES1    0.0000
      5 N3        12.7801    0.2561    0.0000 N.2       1 RES1    0.0000
      6 C1        16.4426    2.4488    4.6639 C.ar      1 RES1    0.0000
      7 C2        15.0825    2.4924    4.9144 C.ar      1 RES1    0.0000
      8 C3        14.2224    1.9552    3.9733 C.ar      1 RES1    0.0000
      9 C4        14.7177    1.3607    2.8254 C.ar      1 RES1    0.0000
     10 C5        16.0971    1.2922    2.6165 C.ar      1 RES1    0.0000
     11 C6        16.9620    1.8536    3.5374 C.ar      1 RES1    0.0000
     12 C7        12.6013    0.2121    2.2339 C.2       1 RES1    0.0000
     13 C8        12.0119   -0.1214    1.0871 C.2       1 RES1    0.0000
     14 C9        13.8528    0.8199    0.4956 C.2       1 RES1    0.0000
     15 C10       14.9593    1.4265   -0.3006 C.3       1 RES1    0.0000
     16 C11       14.5993    1.5696   -1.7703 C.3       1 RES1    0.0000
     17 H1        14.7370    2.9199    5.7233 H         1 RES1    0.0000
     18 H2        13.2391    1.9721    4.1886 H         1 RES1    0.0000
     19 H3        16.4281    0.8913    1.8119 H         1 RES1    0.0000
     20 H4        17.9018    1.8511    3.3360 H         1 RES1    0.0000
     21 H5        12.2728    0.1129    3.1654 H         1 RES1    0.0000
     22 H6        11.2098   -0.5646    0.9379 H         1 RES1    0.0000
     23 H7        15.7517    0.8066   -0.2665 H         1 RES1    0.0000
     24 H8        15.1960    2.2867    0.0959 H         1 RES1    0.0000
     25 H9        15.3168    2.0044   -2.2382 H         1 RES1    0.0000
     26 H10       14.4954    0.6654   -2.1529 H         1 RES1    0.0000
     27 H11       13.6740    2.1536   -1.8652 H         1 RES1    0.0000
@<TRIPOS>BOND
     1    1    3 2
     2    2    3 2
     3    3    6 1
     4    4    9 1
     5    5   13 1
     6    6    7 ar
     7    7    8 ar
     8    8    9 ar
     9    9   10 ar
    10   10   11 ar
    11   11    6 ar
    12   12    4 1
    13   13   12 2
    14   14    4 1
    15   15   14 1
    16   16   15 1
    17   17    7 1
    18   18    8 1
    19   19   10 1
    20   20   11 1
    21   21   12 1
    22   22   13 1
    23   23   15 1
    24   24   15 1
    25   25   16 1
    26   26   16 1
    27   27   16 1
    28    5   14 2
@<TRIPOS>SUBSTRUCTURE
     1 RES1 1

@<TRIPOS>CRYSIN
  24.1590    4.0330   10.6580  90.0000  90.0000  90.0000  29 1

