# MOL2 file generated by ConQuest
# Please check atom types

@<TRIPOS>MOLECULE
SORBEG01
    21    22     1
SMALL
NO_CHARGES
****
Generated from CSD

@<TRIPOS>ATOM
      1 O1         2.1141    2.6638    9.3703 O.2       1 RES1    0.0000
      2 O2         0.9365    4.4878    9.3571 O.2       1 RES1    0.0000
      3 N1         2.1089    3.9687    3.1990 N.pl3     1 RES1    0.0000
      4 N2         2.7175    2.9731    2.4829 N.2       1 RES1    0.0000
      5 N3         1.5825    3.6071    8.7866 N.pl3     1 RES1    0.0000
      6 C1         2.7029    3.4183    1.2321 C.2       1 RES1    0.0000
      7 H1         3.0606    2.9369    0.4953 H         1 RES1    0.0000
      8 C2         2.1000    4.6781    1.1217 C.2       1 RES1    0.0000
      9 H2         1.9775    5.1941    0.3336 H         1 RES1    0.0000
     10 C3         1.7285    5.0019    2.3934 C.2       1 RES1    0.0000
     11 H3         1.2873    5.7976    2.6669 H         1 RES1    0.0000
     12 C4         1.9747    3.8611    4.6018 C.ar      1 RES1    0.0000
     13 C5         2.4947    2.7581    5.2743 C.ar      1 RES1    0.0000
     14 H4         2.9370    2.0698    4.7917 H         1 RES1    0.0000
     15 C6         2.3630    2.6688    6.6533 C.ar      1 RES1    0.0000
     16 H5         2.7016    1.9154    7.1224 H         1 RES1    0.0000
     17 C7         1.7302    3.6959    7.3348 C.ar      1 RES1    0.0000
     18 C8         1.2253    4.8061    6.6845 C.ar      1 RES1    0.0000
     19 H6         0.8036    5.5025    7.1738 H         1 RES1    0.0000
     20 C9         1.3458    4.8855    5.3080 C.ar      1 RES1    0.0000
     21 H7         1.0001    5.6389    4.8440 H         1 RES1    0.0000
@<TRIPOS>BOND
     1    1    5 2
     2    2    5 2
     3    3    4 1
     4    4    6 2
     5    5   17 1
     6    6    7 1
     7    8    6 1
     8    9    8 1
     9   10    3 1
    10   11   10 1
    11   12    3 1
    12   13   12 ar
    13   14   13 1
    14   15   13 ar
    15   16   15 1
    16   17   15 ar
    17   18   17 ar
    18   19   18 1
    19   20   12 ar
    20   21   20 1
    21    8   10 2
    22   18   20 ar
@<TRIPOS>SUBSTRUCTURE
     1 RES1 1

@<TRIPOS>CRYSIN
   6.9199   10.2568   11.5010  90.0000  93.8570  90.0000 231 1

