# MOL2 file generated by ConQuest
# Please check atom types

@<TRIPOS>MOLECULE
SOSFEL
    27    14     2
SMALL
NO_CHARGES
****
Generated from CSD

@<TRIPOS>ATOM
      1 O1         2.4079    6.2079   -0.7501 O.3       1 RES1    0.0000
      2 N1         2.1086    5.6889    0.5611 N.2       1 RES1    0.0000
      3 C1         0.9276    7.7003    0.3137 C.3       1 RES1    0.0000
      4 C2         1.2974    6.4988    1.1006 C.2       1 RES1    0.0000
      5 C3         0.7223    6.5759    2.4897 C.3       1 RES1    0.0000
      6 C4         0.0487    7.9809    2.3584 C.3       1 RES1    0.0000
      7 C5        -1.1913    7.9069    1.4547 C.3       1 RES1    0.0000
      8 C6        -0.5981    7.6232    0.0512 C.3       1 RES1    0.0000
      9 C7         1.0072    8.7384    1.4230 C.3       1 RES1    0.0000
     10 C8         1.8255    6.6046    3.5636 C.3       1 RES1    0.0000
     11 C9        -0.2256    5.4227    2.8121 C.3       1 RES1    0.0000
     12 C10        1.8815    7.5626   -0.8496 C.3       1 RES1    0.0000
     13 H1         3.4284    1.9117    3.9163 Du        2 SUP2    0.0000
     14 H2         5.1018    3.1245    5.4597 Du        2 SUP2    0.0000
     15 H3         4.9807    1.4800    5.7482 Du        2 SUP2    0.0000
     16 H4         4.1688    1.9425    7.8470 Du        2 SUP2    0.0000
     17 H5         4.1497    3.5870    7.4936 Du        2 SUP2    0.0000
     18 H6         1.3229    1.4286    5.4020 Du        2 SUP2    0.0000
     19 H7         2.6337    0.6167    6.0800 Du        2 SUP2    0.0000
     20 H8         0.8147    2.8881    3.8369 Du        2 SUP2    0.0000
     21 H9         0.9333    4.5634    3.6783 Du        2 SUP2    0.0000
     22 H10        1.8722    3.5562    2.7118 Du        2 SUP2    0.0000
     23 H11        4.2612    4.8923    5.0991 Du        2 SUP2    0.0000
     24 H12        3.9048    4.7279    3.4619 Du        2 SUP2    0.0000
     25 H13        2.9660    5.7351    4.4283 Du        2 SUP2    0.0000
     26 H14        0.6293    2.0248    7.9912 Du        2 SUP2    0.0000
     27 H15        1.8957    2.5798    8.9504 Du        2 SUP2    0.0000
@<TRIPOS>BOND
     1    1    2 1
     2    2    4 2
     3    3    4 1
     4    4    5 1
     5    5    6 1
     6    6    7 1
     7    7    8 1
     8    8    3 1
     9    9    3 1
    10   10    5 1
    11   11    5 1
    12   12    1 1
    13    3   12 1
    14    6    9 1
@<TRIPOS>SUBSTRUCTURE
     1 RES1 1
     2 SUP2 13

@<TRIPOS>CRYSIN
   6.1520   10.2780    7.7640  90.0000 111.7300  90.0000   4 1

