# MOL2 file generated by ConQuest
# Please check atom types

@<TRIPOS>MOLECULE
SOSGOY
    26    27     1
SMALL
NO_CHARGES
****
Generated from CSD

@<TRIPOS>ATOM
      1 O1        -0.3393    1.3846    5.4569 O.2       1 RES1    0.0000
      2 O2        -1.3463    2.1637    3.7263 O.2       1 RES1    0.0000
      3 O3         1.3973    2.3872    2.9032 O.3       1 RES1    0.0000
      4 H1         2.1436    2.3207    3.3293 H         1 RES1    0.0000
      5 O4         0.6929    3.7838   -0.8084 O.2       1 RES1    0.0000
      6 N1        -0.5983    2.2903    4.6870 N.pl3     1 RES1    0.0000
      7 N2         2.2773    4.2406    0.7564 N.am      1 RES1    0.0000
      8 H2         2.9546    4.4749    0.2100 H         1 RES1    0.0000
      9 C1        -0.0804    3.6307    4.9947 C.ar      1 RES1    0.0000
     10 C2        -0.4595    4.1123    6.2396 C.ar      1 RES1    0.0000
     11 H3        -0.9370    3.5577    6.8455 H         1 RES1    0.0000
     12 C3        -0.1359    5.3943    6.5806 C.ar      1 RES1    0.0000
     13 H4        -0.3864    5.7419    7.4284 H         1 RES1    0.0000
     14 C4         0.5547    6.1765    5.6912 C.ar      1 RES1    0.0000
     15 H5         0.7578    7.0766    5.9167 H         1 RES1    0.0000
     16 C5         0.9573    5.6684    4.4681 C.ar      1 RES1    0.0000
     17 H6         1.4532    6.2260    3.8792 H         1 RES1    0.0000
     18 C6         0.6605    4.3704    4.0744 C.ar      1 RES1    0.0000
     19 C7         1.1431    3.7758    2.7549 C.3       1 RES1    0.0000
     20 C8         2.4113    4.4686    2.1844 C.3       1 RES1    0.0000
     21 H7         2.4173    5.4365    2.3945 H         1 RES1    0.0000
     22 H8         3.2372    4.0530    2.5385 H         1 RES1    0.0000
     23 C9         1.0379    3.9528    0.3681 C.2       1 RES1    0.0000
     24 C10        0.1568    3.9066    1.5890 C.3       1 RES1    0.0000
     25 H9        -0.4553    3.1291    1.5547 H         1 RES1    0.0000
     26 H10       -0.3791    4.7347    1.6706 H         1 RES1    0.0000
@<TRIPOS>BOND
     1    1    6 2
     2    2    6 2
     3    3    4 1
     4    5   23 2
     5    6    9 1
     6    7    8 1
     7    9   10 ar
     8   10   11 1
     9   12   10 ar
    10   13   12 1
    11   14   12 ar
    12   15   14 1
    13   16   14 ar
    14   17   16 1
    15   18    9 ar
    16   19    3 1
    17   20    7 1
    18   21   20 1
    19   22   20 1
    20   23    7 1
    21   24   19 1
    22   25   24 1
    23   26   24 1
    24   16   18 ar
    25   18   19 1
    26   19   20 1
    27   23   24 1
@<TRIPOS>SUBSTRUCTURE
     1 RES1 1

@<TRIPOS>CRYSIN
   9.0063   11.1040   10.4310  90.0000 106.5690  90.0000 231 1

