# MOL2 file generated by ConQuest
# Please check atom types

@<TRIPOS>MOLECULE
SOSWII
    20    21     1
SMALL
NO_CHARGES
****
Generated from CSD

@<TRIPOS>ATOM
      1 O1         2.8569    4.2385    8.4325 O.2       1 RES1    0.0000
      2 O2         2.9485    0.6870   11.3427 O.2       1 RES1    0.0000
      3 O3         4.0489    1.7069    8.9219 O.3       1 RES1    0.0000
      4 N1         3.0852    2.2991    9.6833 N.am      1 RES1    0.0000
      5 C1         2.5925    3.5859    9.3948 C.2       1 RES1    0.0000
      6 C2         1.6963    3.8851   10.5515 C.ar      1 RES1    0.0000
      7 C3         0.9444    5.0266   10.8403 C.ar      1 RES1    0.0000
      8 H1         0.9070    5.7592   10.2375 H         1 RES1    0.0000
      9 C4         0.2584    5.0463   12.0390 C.ar      1 RES1    0.0000
     10 H2        -0.2541    5.8147   12.2624 H         1 RES1    0.0000
     11 C5         0.2940    3.9722   12.9325 C.ar      1 RES1    0.0000
     12 H3        -0.1874    4.0193   13.7494 H         1 RES1    0.0000
     13 C6         1.0360    2.8308   12.6238 C.ar      1 RES1    0.0000
     14 H4         1.0596    2.0911   13.2197 H         1 RES1    0.0000
     15 C7         1.7307    2.8020   11.4398 C.ar      1 RES1    0.0000
     16 C8         2.6351    1.7652   10.8822 C.2       1 RES1    0.0000
     17 C9         3.4609    0.8528    7.9175 C.3       1 RES1    0.0000
     18 H5         4.1667    0.4924    7.3409 H         1 RES1    0.0000
     19 H6         2.8298    1.3711    7.3768 H         1 RES1    0.0000
     20 H7         2.9867    0.1138    8.3533 H         1 RES1    0.0000
@<TRIPOS>BOND
     1    1    5 2
     2    2   16 2
     3    3    4 1
     4    4    5 1
     5    5    6 1
     6    6    7 ar
     7    7    8 1
     8    9    7 ar
     9   10    9 1
    10   11    9 ar
    11   12   11 1
    12   13   11 ar
    13   14   13 1
    14   15    6 ar
    15   16    4 1
    16   17    3 1
    17   18   17 1
    18   19   17 1
    19   20   17 1
    20   13   15 ar
    21   15   16 1
@<TRIPOS>SUBSTRUCTURE
     1 RES1 1

@<TRIPOS>CRYSIN
   4.2987    7.0243   27.5870  90.0000  90.0000  90.0000  19 1

