# MOL2 file generated by ConQuest
# Please check atom types

@<TRIPOS>MOLECULE
SOVJIY
    27    28     1
SMALL
NO_CHARGES
****
Generated from CSD

@<TRIPOS>ATOM
      1 N1         4.3607    5.9709    4.6243 N.pl3     1 RES1    0.0000
      2 H1         4.0017    6.6590    5.0393 H         1 RES1    0.0000
      3 C1         3.7635    4.7641    4.4346 C.2       1 RES1    0.0000
      4 H2         2.8907    4.5371    4.7335 H         1 RES1    0.0000
      5 C2         5.8232    4.6592    3.4893 C.ar      1 RES1    0.0000
      6 C3         4.6079    3.9136    3.7440 C.2       1 RES1    0.0000
      7 C4         7.0369    4.3873    2.8645 C.ar      1 RES1    0.0000
      8 H3         7.1963    3.5386    2.4681 H         1 RES1    0.0000
      9 C5         7.9990    5.3599    2.8305 C.ar      1 RES1    0.0000
     10 H4         8.8315    5.1786    2.4101 H         1 RES1    0.0000
     11 C6         7.7741    6.6321    3.4096 C.ar      1 RES1    0.0000
     12 H5         8.4607    7.2871    3.3724 H         1 RES1    0.0000
     13 C7         5.6132    5.9431    4.0653 C.ar      1 RES1    0.0000
     14 C8         6.5872    6.9363    4.0220 C.ar      1 RES1    0.0000
     15 H6         6.4353    7.7922    4.4036 H         1 RES1    0.0000
     16 C9         4.2147    2.5633    3.4003 C.2       1 RES1    0.0000
     17 H7         3.3867    2.2780    3.7673 H         1 RES1    0.0000
     18 C10        4.8462    1.6526    2.6400 C.2       1 RES1    0.0000
     19 H8         5.6936    1.8536    2.2638 H         1 RES1    0.0000
     20 C11        4.2341    0.3723    2.3954 C.2       1 RES1    0.0000
     21 H9         3.4209    0.2279    2.8676 H         1 RES1    0.0000
     22 N2         4.5930   -0.6020    1.6545 N.2       1 RES1    0.0000
     23 O1         5.8098   -0.2961    1.0080 O.3       1 RES1    0.0000
     24 C12        6.2685   -1.4553    0.2872 C.3       1 RES1    0.0000
     25 H10        5.6102   -1.6966   -0.3972 H         1 RES1    0.0000
     26 H11        6.3831   -2.2035    0.9097 H         1 RES1    0.0000
     27 H12        7.1263   -1.2543   -0.1425 H         1 RES1    0.0000
@<TRIPOS>BOND
     1    1    2 1
     2    3    1 1
     3    4    3 1
     4    5    6 1
     5    6    3 2
     6    7    5 ar
     7    8    7 1
     8    9    7 ar
     9   10    9 1
    10   11    9 ar
    11   12   11 1
    12   13    1 1
    13   14   11 ar
    14   15   14 1
    15   16    6 1
    16   17   16 1
    17   18   16 2
    18   19   18 1
    19   20   18 1
    20   21   20 1
    21   22   20 2
    22   23   22 1
    23   24   23 1
    24   25   24 1
    25   26   24 1
    26   27   24 1
    27    5   13 ar
    28   13   14 ar
@<TRIPOS>SUBSTRUCTURE
     1 RES1 1

@<TRIPOS>CRYSIN
  14.8930    8.9720    7.7420  90.0000  90.0000  90.0000  29 1

