# MOL2 file generated by ConQuest
# Please check atom types

@<TRIPOS>MOLECULE
SOVNUN
    22    22     1
SMALL
USER_CHARGES
****
Generated from CSD

@<TRIPOS>ATOM
      1 O1         8.3651    2.6896    2.8219 O.2       1 RES1   -1.0000
      2 O2        13.9946    0.6246    1.3273 O.2       1 RES1    0.0000
      3 O3        14.4719    1.9057    3.0111 O.2       1 RES1    0.0000
      4 N1         9.6218    2.3318    2.6764 N.pl3     1 RES1    1.0000
      5 N2        13.6671    1.3836    2.2382 N.pl3     1 RES1    0.0000
      6 N3         9.9541    3.3008    4.7374 N.3       1 RES1    0.0000
      7 H1         9.1446    3.4397    4.7003 H         1 RES1    0.0000
      8 C1        10.4994    2.6693    3.6956 C.ar      1 RES1    0.0000
      9 C2        11.8520    2.3548    3.5529 C.ar      1 RES1    0.0000
     10 H2        12.4828    2.5883    4.2244 H         1 RES1    0.0000
     11 C3        12.2443    1.6942    2.4054 C.ar      1 RES1    0.0000
     12 C4        11.3595    1.3310    1.4055 C.ar      1 RES1    0.0000
     13 H3        11.6620    0.8657    0.6352 H         1 RES1    0.0000
     14 C5        10.0211    1.6608    1.5539 C.ar      1 RES1    0.0000
     15 C6         8.9595    1.3275    0.5740 C.3       1 RES1    0.0000
     16 H4         8.5291    2.1521    0.2659 H         1 RES1    0.0000
     17 H5         8.2925    0.7498    0.9993 H         1 RES1    0.0000
     18 H6         9.3559    0.8599   -0.1914 H         1 RES1    0.0000
     19 C7        10.7096    3.6659    5.9170 C.3       1 RES1    0.0000
     20 H7        10.1188    4.1173    6.5551 H         1 RES1    0.0000
     21 H8        11.4384    4.2697    5.6641 H         1 RES1    0.0000
     22 H9        11.0811    2.8593    6.3298 H         1 RES1    0.0000
@<TRIPOS>BOND
     1    1    4 1
     2    2    5 2
     3    3    5 2
     4    4    8 ar
     5    5   11 1
     6    6    7 1
     7    8    6 1
     8    9    8 ar
     9   10    9 1
    10   11    9 ar
    11   12   11 ar
    12   13   12 1
    13   14    4 ar
    14   15   14 1
    15   16   15 1
    16   17   15 1
    17   18   15 1
    18   19    6 1
    19   20   19 1
    20   21   19 1
    21   22   19 1
    22   12   14 ar
@<TRIPOS>SUBSTRUCTURE
     1 RES1 1

@<TRIPOS>CRYSIN
  12.5880    3.8390   17.8800  90.0000 108.6800  90.0000 231 1

