# MOL2 file generated by ConQuest
# Please check atom types

@<TRIPOS>MOLECULE
SOWCIS
    46    48     1
SMALL
NO_CHARGES
****
Generated from CSD

@<TRIPOS>ATOM
      1 N1         5.1886    1.3905    6.4364 N.am      1 RES1    0.0000
      2 N2         8.3143    1.7809    8.2223 N.pl3     1 RES1    0.0000
      3 O1         6.7307   -0.0979    5.5865 O.2       1 RES1    0.0000
      4 O2         7.3035    1.1615    8.5219 O.2       1 RES1    0.0000
      5 O3         9.1296    2.2049    9.0178 O.2       1 RES1    0.0000
      6 N3         7.8097    2.5909    4.6330 N.am      1 RES1    0.0000
      7 H1         8.6515    2.8249    4.5296 H         1 RES1    0.0000
      8 O4         5.8569    2.1483    3.5704 O.2       1 RES1    0.0000
      9 O5         7.6861    2.9359    2.4586 O.3       1 RES1    0.0000
     10 C1         6.3914    1.0163    5.9473 C.2       1 RES1    0.0000
     11 C2         7.3187    2.2809    5.9709 C.3       1 RES1    0.0000
     12 C3         6.4225    3.3234    6.6041 C.ar      1 RES1    0.0000
     13 C4         6.6427    4.6243    7.0030 C.ar      1 RES1    0.0000
     14 H2         7.4910    5.0349    6.8857 H         1 RES1    0.0000
     15 C5         5.5781    5.3230    7.5873 C.ar      1 RES1    0.0000
     16 H3         5.7050    6.2210    7.8689 H         1 RES1    0.0000
     17 C6         4.3403    4.7206    7.7612 C.ar      1 RES1    0.0000
     18 H4         3.6288    5.2258    8.1375 H         1 RES1    0.0000
     19 C7         4.1134    3.3867    7.3951 C.ar      1 RES1    0.0000
     20 C8         5.1886    2.7354    6.8317 C.ar      1 RES1    0.0000
     21 C9         2.8212    2.6281    7.5683 C.3       1 RES1    0.0000
     22 H5         2.0574    3.2279    7.3762 H         1 RES1    0.0000
     23 H6         2.7422    2.3206    8.5059 H         1 RES1    0.0000
     24 C10        2.7695    1.4167    6.6280 C.3       1 RES1    0.0000
     25 H7         1.9838    0.8625    6.8612 H         1 RES1    0.0000
     26 H8         2.6483    1.7369    5.6986 H         1 RES1    0.0000
     27 C11        4.0243    0.5500    6.6926 C.3       1 RES1    0.0000
     28 H9         4.1004    0.1318    7.5864 H         1 RES1    0.0000
     29 H10        3.9724   -0.1706    6.0150 H         1 RES1    0.0000
     30 C12        8.5953    1.9928    6.7762 C.3       1 RES1    0.0000
     31 H11        9.0355    1.1852    6.4089 H         1 RES1    0.0000
     32 H12        9.2212    2.7523    6.6754 H         1 RES1    0.0000
     33 C13        7.0008    2.5284    3.5395 C.2       1 RES1    0.0000
     34 C14        7.1394    2.6948    1.0903 C.3       1 RES1    0.0000
     35 C15        5.8692    3.4982    0.8908 C.3       1 RES1    0.0000
     36 H13        5.1676    3.1527    1.4822 H         1 RES1    0.0000
     37 H14        5.5775    3.4205   -0.0425 H         1 RES1    0.0000
     38 H15        6.0412    4.4393    1.1021 H         1 RES1    0.0000
     39 C16        6.9333    1.2038    0.8908 C.3       1 RES1    0.0000
     40 H16        7.7703    0.7299    1.0809 H         1 RES1    0.0000
     41 H17        6.6640    1.0315   -0.0350 H         1 RES1    0.0000
     42 H18        6.2330    0.8862    1.4992 H         1 RES1    0.0000
     43 C17        8.2516    3.2034    0.1949 C.3       1 RES1    0.0000
     44 H19        8.3548    4.1698    0.3196 H         1 RES1    0.0000
     45 H20        8.0286    3.0167   -0.7411 H         1 RES1    0.0000
     46 H21        9.0897    2.7531    0.4268 H         1 RES1    0.0000
@<TRIPOS>BOND
     1    1   10 1
     2    2    4 2
     3    3   10 2
     4    5    2 2
     5    6    7 1
     6    8   33 2
     7    9   33 1
     8   10   11 1
     9   11    6 1
    10   12   11 1
    11   13   12 ar
    12   14   13 1
    13   15   13 ar
    14   16   15 1
    15   17   15 ar
    16   18   17 1
    17   19   17 ar
    18   20    1 1
    19   21   19 1
    20   22   21 1
    21   23   21 1
    22   24   21 1
    23   25   24 1
    24   26   24 1
    25   27    1 1
    26   28   27 1
    27   29   27 1
    28   30    2 1
    29   31   30 1
    30   32   30 1
    31   33    6 1
    32   34    9 1
    33   35   34 1
    34   36   35 1
    35   37   35 1
    36   38   35 1
    37   39   34 1
    38   40   39 1
    39   41   39 1
    40   42   39 1
    41   43   34 1
    42   44   43 1
    43   45   43 1
    44   46   43 1
    45   11   30 1
    46   12   20 ar
    47   19   20 ar
    48   24   27 1
@<TRIPOS>SUBSTRUCTURE
     1 RES1 1

@<TRIPOS>CRYSIN
   9.6031    8.4478   10.8364  90.0000 101.5272  90.0000   4 1

