# MOL2 file generated by ConQuest
# Please check atom types

@<TRIPOS>MOLECULE
SOWXUX
    29    31     1
SMALL
NO_CHARGES
****
Generated from CSD

@<TRIPOS>ATOM
      1 O1         4.8738    5.7120    9.9889 O.3       1 RES1    0.0000
      2 O2         1.8249    0.1914    9.5530 O.2       1 RES1    0.0000
      3 O3         2.0650    0.2219    7.4265 O.2       1 RES1    0.0000
      4 O4         4.5682    5.4510    5.8648 O.2       1 RES1    0.0000
      5 O5         3.6282    3.7442    4.9628 O.2       1 RES1    0.0000
      6 N1         2.7542    2.1409   10.9962 N.3       1 RES1    0.0000
      7 N2         4.2861    4.6586   10.6393 N.2       1 RES1    0.0000
      8 N3         4.7757    5.6205    8.6155 N.2       1 RES1    0.0000
      9 N4         2.2092    0.7352    8.5194 N.pl3     1 RES1    0.0000
     10 N5         3.9851    4.3696    5.9385 N.pl3     1 RES1    0.0000
     11 C1         2.7671    2.7249   12.2932 C.ar      1 RES1    0.0000
     12 C2         2.1724    3.9502   12.5341 C.ar      1 RES1    0.0000
     13 C3         2.1193    4.4330   13.8127 C.ar      1 RES1    0.0000
     14 C4         2.6240    3.6905   14.8608 C.ar      1 RES1    0.0000
     15 C5         3.1808    2.4640   14.6146 C.ar      1 RES1    0.0000
     16 C6         3.2747    1.9690   13.3334 C.ar      1 RES1    0.0000
     17 C7         3.0908    2.6469    9.8243 C.2       1 RES1    0.0000
     18 C8         3.8003    3.9209    9.6742 C.2       1 RES1    0.0000
     19 C9         4.1043    4.4988    8.4193 C.2       1 RES1    0.0000
     20 C10        3.7251    3.8344    7.2342 C.2       1 RES1    0.0000
     21 C11        3.1400    2.6176    7.3475 C.2       1 RES1    0.0000
     22 C12        2.8457    2.0275    8.5878 C.2       1 RES1    0.0000
     23 H1         2.4435    1.2802   10.8764 H         1 RES1    0.0000
     24 H2         1.8313    4.4501   11.8244 H         1 RES1    0.0000
     25 H3         1.6592    5.2669   14.0497 H         1 RES1    0.0000
     26 H4         2.6010    4.0477   15.8142 H         1 RES1    0.0000
     27 H5         3.4999    1.9507   15.1821 H         1 RES1    0.0000
     28 H6         3.6068    1.0485   13.0885 H         1 RES1    0.0000
     29 H7         2.9099    2.1702    6.5179 H         1 RES1    0.0000
@<TRIPOS>BOND
     1    1    7 1
     2    2    9 2
     3    3    9 2
     4    4   10 2
     5    5   10 2
     6    6   11 1
     7    7   18 2
     8    8    1 1
     9    9   22 1
    10   10   20 1
    11   11   12 ar
    12   12   13 ar
    13   13   14 ar
    14   14   15 ar
    15   15   16 ar
    16   16   11 ar
    17   17    6 1
    18   18   17 1
    19   19    8 2
    20   20   19 1
    21   21   20 2
    22   22   17 2
    23   23    6 1
    24   24   12 1
    25   25   13 1
    26   26   14 1
    27   27   15 1
    28   28   16 1
    29   29   21 1
    30   18   19 1
    31   21   22 1
@<TRIPOS>SUBSTRUCTURE
     1 RES1 1

@<TRIPOS>CRYSIN
   7.6680   12.1920   13.2180  90.0000  95.0100  90.0000 231 1

