# MOL2 file generated by ConQuest
# Please check atom types

@<TRIPOS>MOLECULE
SOXBUC
    30    32     1
SMALL
NO_CHARGES
****
Generated from CSD

@<TRIPOS>ATOM
      1 O1         2.9529    1.7178    9.8547 O.3       1 RES1    0.0000
      2 N1         3.2010    3.0793   10.1365 N.2       1 RES1    0.0000
      3 C1         2.3631    4.8529   11.4927 C.ar      1 RES1    0.0000
      4 C2         1.6807    5.1902   12.6626 C.ar      1 RES1    0.0000
      5 C3         1.6541    6.5149   13.0975 C.ar      1 RES1    0.0000
      6 C4         2.3107    7.5033   12.3637 C.ar      1 RES1    0.0000
      7 C5         2.9932    7.1671   11.1937 C.ar      1 RES1    0.0000
      8 C6         3.0190    5.8414   10.7588 C.ar      1 RES1    0.0000
      9 C7         2.3736    3.4613   11.0210 C.2       1 RES1    0.0000
     10 C8         1.4833    2.3823   11.5135 C.3       1 RES1    0.0000
     11 C9         1.6323    1.3246   10.4440 C.3       1 RES1    0.0000
     12 C10        1.7862   -0.1340   10.8973 C.3       1 RES1    0.0000
     13 C11        1.4938   -0.9125    9.6036 C.3       1 RES1    0.0000
     14 C12        0.9177    0.0078    8.6198 C.3       1 RES1    0.0000
     15 C13        0.6139    1.2889    9.3279 C.3       1 RES1    0.0000
     16 H1         1.1763    4.4229   13.2311 H         1 RES1    0.0000
     17 H2         1.1280    6.7796   14.0029 H         1 RES1    0.0000
     18 H3         2.2882    8.5331   12.7043 H         1 RES1    0.0000
     19 H4         3.5048    7.9300   10.6216 H         1 RES1    0.0000
     20 H5         3.5451    5.5845    9.8498 H         1 RES1    0.0000
     21 H6         1.8128    2.0104   12.4715 H         1 RES1    0.0000
     22 H7         0.4592    2.7141   11.5894 H         1 RES1    0.0000
     23 H8         1.0877   -0.3797   11.6875 H         1 RES1    0.0000
     24 H9         2.7958   -0.3127   11.2464 H         1 RES1    0.0000
     25 H10        0.8057   -1.7200    9.8253 H         1 RES1    0.0000
     26 H11        2.4090   -1.3291    9.2128 H         1 RES1    0.0000
     27 H12        1.5953    0.1564    7.7916 H         1 RES1    0.0000
     28 H13       -0.0081   -0.4133    8.2572 H         1 RES1    0.0000
     29 H14       -0.3948    1.3291    9.7150 H         1 RES1    0.0000
     30 H15        0.7735    2.1221    8.6492 H         1 RES1    0.0000
@<TRIPOS>BOND
     1    1    2 1
     2    2    9 2
     3    3    4 ar
     4    4    5 ar
     5    5    6 ar
     6    6    7 ar
     7    7    8 ar
     8    8    3 ar
     9    9    3 1
    10   10    9 1
    11   11    1 1
    12   12   11 1
    13   13   12 1
    14   14   13 1
    15   15   11 1
    16   16    4 1
    17   17    5 1
    18   18    6 1
    19   19    7 1
    20   20    8 1
    21   21   10 1
    22   22   10 1
    23   23   12 1
    24   24   12 1
    25   25   13 1
    26   26   13 1
    27   27   14 1
    28   28   14 1
    29   29   15 1
    30   30   15 1
    31   10   11 1
    32   14   15 1
@<TRIPOS>SUBSTRUCTURE
     1 RES1 1

@<TRIPOS>CRYSIN
   8.0570   11.1690   12.2510  90.0000  90.0000  90.0000  19 1

