# MOL2 file generated by ConQuest
# Please check atom types

@<TRIPOS>MOLECULE
SOXGUI
    55    56     1
SMALL
NO_CHARGES
****
Generated from CSD

@<TRIPOS>ATOM
      1 N1         1.0921    5.5632   -1.4768 N.2       1 RES1    0.0000
      2 N2         7.2928    4.0268    5.7394 N.2       1 RES1    0.0000
      3 O1         2.3454    5.1250   -1.0449 O.3       1 RES1    0.0000
      4 O2         7.0639    4.1734    4.3708 O.3       1 RES1    0.0000
      5 O3        -1.3420    6.4894   -1.3014 O.3       1 RES1    0.0000
      6 H1        -0.5758    6.3630   -1.0379 H         1 RES1    0.0000
      7 O4        -3.9028    6.8781   -5.1583 O.3       1 RES1    0.0000
      8 O5         6.8154    3.6133    8.2901 O.3       1 RES1    0.0000
      9 H2         6.6326    3.7706    7.5066 H         1 RES1    0.0000
     10 O6        10.4250    3.2439   11.2251 O.3       1 RES1    0.0000
     11 C1         2.4095    5.1956    0.3838 C.3       1 RES1    0.0000
     12 H3         1.7240    4.6342    0.7784 H         1 RES1    0.0000
     13 H4         2.2681    6.1084    0.6819 H         1 RES1    0.0000
     14 C2         3.7642    4.7227    0.7977 C.3       1 RES1    0.0000
     15 H5         4.4322    5.2633    0.3480 H         1 RES1    0.0000
     16 H6         3.8773    3.8071    0.4988 H         1 RES1    0.0000
     17 C3         4.0183    4.7789    2.2811 C.3       1 RES1    0.0000
     18 H7         3.4070    4.1738    2.7295 H         1 RES1    0.0000
     19 H8         3.8321    5.6764    2.5988 H         1 RES1    0.0000
     20 C4         5.4364    4.4106    2.6567 C.3       1 RES1    0.0000
     21 H9         5.6330    3.5241    2.3151 H         1 RES1    0.0000
     22 H10        6.0473    5.0327    2.2307 H         1 RES1    0.0000
     23 C5         5.6752    4.4272    4.1268 C.3       1 RES1    0.0000
     24 H11        5.4284    5.2913    4.4915 H         1 RES1    0.0000
     25 H12        5.1346    3.7481    4.5579 H         1 RES1    0.0000
     26 C6         0.9638    5.5142   -2.7494 C.2       1 RES1    0.0000
     27 H13        1.6757    5.2258   -3.2746 H         1 RES1    0.0000
     28 C7        -0.2814    5.9053   -3.3780 C.ar      1 RES1    0.0000
     29 C8        -1.3859    6.3550   -2.6480 C.ar      1 RES1    0.0000
     30 C9        -2.5607    6.6527   -3.2740 C.ar      1 RES1    0.0000
     31 H14       -3.2915    6.9292   -2.7697 H         1 RES1    0.0000
     32 C10       -2.6798    6.5501   -4.6426 C.ar      1 RES1    0.0000
     33 C11       -1.6092    6.1325   -5.4047 C.ar      1 RES1    0.0000
     34 H15       -1.6781    6.0573   -6.3299 H         1 RES1    0.0000
     35 C12       -0.4292    5.8287   -4.7514 C.ar      1 RES1    0.0000
     36 H16        0.3011    5.5592   -5.2599 H         1 RES1    0.0000
     37 C13       -4.0952    6.7665   -6.5606 C.3       1 RES1    0.0000
     38 H17       -3.4335    7.2904   -7.0178 H         1 RES1    0.0000
     39 H18       -4.9712    7.0861   -6.7905 H         1 RES1    0.0000
     40 H19       -4.0118    5.8469   -6.8227 H         1 RES1    0.0000
     41 C14        8.5393    4.0154    6.0113 C.2       1 RES1    0.0000
     42 H20        9.1530    4.1451    5.3242 H         1 RES1    0.0000
     43 C15        9.0241    3.8086    7.3521 C.ar      1 RES1    0.0000
     44 C16        8.1696    3.6186    8.4504 C.ar      1 RES1    0.0000
     45 C17        8.6728    3.4207    9.7103 C.ar      1 RES1    0.0000
     46 H21        8.0912    3.2838   10.4232 H         1 RES1    0.0000
     47 C18       10.0310    3.4236    9.9310 C.ar      1 RES1    0.0000
     48 C19       10.9011    3.5963    8.8784 C.ar      1 RES1    0.0000
     49 H22       11.8208    3.5826    9.0172 H         1 RES1    0.0000
     50 C20       10.3858    3.7909    7.6152 C.ar      1 RES1    0.0000
     51 H23       10.9769    3.9158    6.9072 H         1 RES1    0.0000
     52 C21       11.8226    3.3429   11.5208 C.3       1 RES1    0.0000
     53 H24       12.2890    2.6114   11.1111 H         1 RES1    0.0000
     54 H25       11.9512    3.3113   12.4708 H         1 RES1    0.0000
     55 H26       12.1633    4.1720   11.1795 H         1 RES1    0.0000
@<TRIPOS>BOND
     1    1    3 1
     2    2    4 1
     3    3   11 1
     4    4   23 1
     5    5    6 1
     6    7   32 1
     7    8    9 1
     8   10   47 1
     9   11   12 1
    10   13   11 1
    11   14   11 1
    12   15   14 1
    13   16   14 1
    14   17   14 1
    15   18   17 1
    16   19   17 1
    17   20   17 1
    18   21   20 1
    19   22   20 1
    20   23   20 1
    21   24   23 1
    22   25   23 1
    23   26    1 2
    24   27   26 1
    25   28   26 1
    26   29    5 1
    27   30   29 ar
    28   31   30 1
    29   32   30 ar
    30   33   32 ar
    31   34   33 1
    32   35   28 ar
    33   36   35 1
    34   37    7 1
    35   38   37 1
    36   39   37 1
    37   40   37 1
    38   41    2 2
    39   42   41 1
    40   43   41 1
    41   44    8 1
    42   45   44 ar
    43   46   45 1
    44   47   45 ar
    45   48   47 ar
    46   49   48 1
    47   50   43 ar
    48   51   50 1
    49   52   10 1
    50   53   52 1
    51   54   52 1
    52   55   52 1
    53   28   29 ar
    54   33   35 ar
    55   43   44 ar
    56   48   50 ar
@<TRIPOS>SUBSTRUCTURE
     1 RES1 1

@<TRIPOS>CRYSIN
   7.3324    7.6214   20.3720  81.5250  89.9280  67.8700   2 1

