# MOL2 file generated by ConQuest
# Please check atom types

@<TRIPOS>MOLECULE
SOXZAH
    30    31     1
SMALL
NO_CHARGES
****
Generated from CSD

@<TRIPOS>ATOM
      1 C1         5.3434   16.1885    1.3974 C.2       1 RES1    0.0000
      2 C2         4.0899   15.9275    0.9118 C.2       1 RES1    0.0000
      3 H1         3.1726   16.1727    1.2340 H         1 RES1    0.0000
      4 C3         3.3619   14.5688   -1.0951 C.3       1 RES1    0.0000
      5 H2         2.5890   15.2041   -1.2511 H         1 RES1    0.0000
      6 H3         3.8410   14.5159   -1.9595 H         1 RES1    0.0000
      7 C4         2.9220   13.2318   -0.5719 C.3       1 RES1    0.0000
      8 H4         3.7463   12.6061   -0.4799 H         1 RES1    0.0000
      9 H5         2.5558   13.3132    0.3485 H         1 RES1    0.0000
     10 H6         2.1696   12.9296   -1.1654 H         1 RES1    0.0000
     11 N1         4.3272   15.1996   -0.1914 N.2       1 RES1    0.0000
     12 N2         5.6447   15.0065   -0.3753 N.2       1 RES1    0.0000
     13 N3         6.2726   15.6163    0.5981 N.2       1 RES1    0.0000
     14 N4         5.8105   16.9290    2.4999 N.2       1 RES1    0.0000
     15 O1         7.0237   16.9664    2.6387 O.2       1 RES1    0.0000
     16 C1B        5.3563   18.2215    4.3155 C.2       1 RES1    0.0000
     17 C2B        6.6098   18.4825    4.8010 C.2       1 RES1    0.0000
     18 H1B        7.5271   18.2373    4.4788 H         1 RES1    0.0000
     19 C3B        7.3377   19.8412    6.8080 C.3       1 RES1    0.0000
     20 H2B        8.1106   19.2059    6.9639 H         1 RES1    0.0000
     21 H3B        6.8587   19.8941    7.6723 H         1 RES1    0.0000
     22 C4B        7.7776   21.1782    6.2847 C.3       1 RES1    0.0000
     23 H4B        6.9533   21.8039    6.1927 H         1 RES1    0.0000
     24 H5B        8.1439   21.0968    5.3643 H         1 RES1    0.0000
     25 H6B        8.5301   21.4804    6.8782 H         1 RES1    0.0000
     26 N1B        6.3725   19.2104    5.9042 N.2       1 RES1    0.0000
     27 N2B        5.0549   19.4035    6.0881 N.2       1 RES1    0.0000
     28 N3B        4.4270   18.7937    5.1147 N.2       1 RES1    0.0000
     29 N4B        4.8891   17.4810    3.2129 N.2       1 RES1    0.0000
     30 O1B        3.6759   17.4436    3.0741 O.2       1 RES1    0.0000
@<TRIPOS>BOND
     1    1    2 1
     2    2    3 1
     3    4    5 1
     4    6    4 1
     5    7    4 1
     6    8    7 1
     7    9    7 1
     8   10    7 1
     9   11    2 1
    10   12   11 1
    11   13    1 1
    12   14    1 1
    13   15   14 1
    14   16   17 1
    15   17   18 1
    16   19   20 1
    17   21   19 1
    18   22   19 1
    19   23   22 1
    20   24   22 1
    21   25   22 1
    22   26   17 1
    23   27   26 1
    24   28   16 1
    25   29   14 1
    26   30   29 1
    27    4   11 1
    28   12   13 1
    29   16   29 1
    30   19   26 1
    31   27   28 1
@<TRIPOS>SUBSTRUCTURE
     1 RES1 1

@<TRIPOS>CRYSIN
   5.6304   17.2050    5.7403  90.0000  95.6100  90.0000 231 1

