# MOL2 file generated by ConQuest
# Please check atom types

@<TRIPOS>MOLECULE
SOYCIT
    19    19     1
SMALL
NO_CHARGES
****
Generated from CSD

@<TRIPOS>ATOM
      1 C1         3.6668   -0.1059   -0.0207 C.2       1 RES1    0.0000
      2 O1         2.4066   -0.0770    0.5051 O.3       1 RES1    0.0000
      3 C2         2.1215   -1.3614    0.8907 C.2       1 RES1    0.0000
      4 C3         3.1662   -2.1769    0.6024 C.2       1 RES1    0.0000
      5 C4         4.1624   -1.3710    0.0198 C.2       1 RES1    0.0000
      6 C5         4.2130    1.1380   -0.4948 C.2       1 RES1    0.0000
      7 C6         3.5204    2.2751   -0.4440 C.2       1 RES1    0.0000
      8 N1         4.0502    3.5094   -0.9466 N.pl3     1 RES1    0.0000
      9 O2         5.0845    3.5027   -1.5954 O.2       1 RES1    0.0000
     10 O3         3.4090    4.5184   -0.7074 O.2       1 RES1    0.0000
     11 C7         5.6553    1.0668   -0.9500 C.2       1 RES1    0.0000
     12 O4         6.5599    1.4288   -0.2642 O.2       1 RES1    0.0000
     13 O5         5.7409    0.4891   -2.1307 O.3       1 RES1    0.0000
     14 C8         7.0858    0.3052   -2.6445 C.3       1 RES1    0.0000
     15 C9         0.8848   -1.6117    1.5576 C.2       1 RES1    0.0000
     16 C10        0.0090   -0.6797    1.8863 C.2       1 RES1    0.0000
     17 N2        -1.1809   -1.0167    2.6109 N.pl3     1 RES1    0.0000
     18 O6        -1.9454   -0.1011    2.8734 O.2       1 RES1    0.0000
     19 O7        -1.4077   -2.1788    2.9215 O.2       1 RES1    0.0000
@<TRIPOS>BOND
     1    1    2 1
     2    2    3 1
     3    3    4 2
     4    4    5 1
     5    5    1 2
     6    6    1 1
     7    7    6 2
     8    8    7 1
     9    9    8 2
    10   10    8 2
    11   11    6 1
    12   12   11 2
    13   13   11 1
    14   14   13 1
    15   15    3 1
    16   16   15 2
    17   17   16 1
    18   18   17 2
    19   19   17 2
@<TRIPOS>SUBSTRUCTURE
     1 RES1 1

@<TRIPOS>CRYSIN
  14.0860    9.6280    8.7990  90.0000 102.0400  90.0000  14 1

