# MOL2 file generated by ConQuest
# Please check atom types

@<TRIPOS>MOLECULE
SOYDIV
    46    47     1
SMALL
NO_CHARGES
****
Generated from CSD

@<TRIPOS>ATOM
      1 C1         2.9760    6.5788    7.2431 C.2       1 RES1    0.0000
      2 C2         2.6721    7.1609    5.9771 C.2       1 RES1    0.0000
      3 C3         2.6912    6.9594    3.4975 C.3       1 RES1    0.0000
      4 H1         3.1080    7.8550    3.5635 H         1 RES1    0.0000
      5 H2         1.9343    7.0217    2.8628 H         1 RES1    0.0000
      6 C4         3.7209    5.9616    2.9600 C.3       1 RES1    0.0000
      7 N1         3.4986    7.4997    8.0054 N.2       1 RES1    0.0000
      8 N2         3.0171    8.4138    5.9815 N.2       1 RES1    0.0000
      9 N3         2.8697    5.2884    7.7722 N.2       1 RES1    0.0000
     10 N4         2.1899    6.5651    4.8049 N.3       1 RES1    0.0000
     11 N5         0.8640    6.0532    4.8819 N.pl3     1 RES1    0.0000
     12 N6         3.0861    4.6698    2.4518 N.pl3     1 RES1    0.0000
     13 N7         4.4722    6.5846    1.7923 N.pl3     1 RES1    0.0000
     14 N8         4.7715    5.5654    3.9862 N.pl3     1 RES1    0.0000
     15 O1         3.5589    8.6331    7.2395 O.3       1 RES1    0.0000
     16 O2         0.3683    5.6896    3.8298 O.2       1 RES1    0.0000
     17 O3         0.3820    6.0111    5.9895 O.2       1 RES1    0.0000
     18 O4         2.5155    4.0117    3.2963 O.2       1 RES1    0.0000
     19 O5         3.1776    4.4214    1.2812 O.2       1 RES1    0.0000
     20 O6         3.8273    7.3471    1.1072 O.2       1 RES1    0.0000
     21 O7         5.6279    6.2770    1.6492 O.2       1 RES1    0.0000
     22 O8         5.1328    6.4713    4.7092 O.2       1 RES1    0.0000
     23 O9         5.1580    4.4199    3.9846 O.2       1 RES1    0.0000
     24 C1B        2.4494    3.1560    7.4154 C.2       1 RES1    0.0000
     25 C2B        2.7534    2.5739    8.6813 C.2       1 RES1    0.0000
     26 C3B        2.7342    2.7754   11.1610 C.3       1 RES1    0.0000
     27 H1B        2.3175    1.8798   11.0950 H         1 RES1    0.0000
     28 H2B        3.4912    2.7131   11.7957 H         1 RES1    0.0000
     29 C4B        1.7046    3.7732   11.6985 C.3       1 RES1    0.0000
     30 N1B        1.9269    2.2351    6.6531 N.2       1 RES1    0.0000
     31 N2B        2.4083    1.3210    8.6769 N.2       1 RES1    0.0000
     32 N3B        2.5558    4.4464    6.8863 N.2       1 RES1    0.0000
     33 N4B        3.2356    3.1697    9.8536 N.3       1 RES1    0.0000
     34 N5B        4.5615    3.6816    9.7766 N.pl3     1 RES1    0.0000
     35 N6B        2.3394    5.0650   12.2067 N.pl3     1 RES1    0.0000
     36 N7B        0.9533    3.1502   12.8662 N.pl3     1 RES1    0.0000
     37 N8B        0.6539    4.1694   10.6723 N.pl3     1 RES1    0.0000
     38 O1B        1.8665    1.1017    7.4190 O.3       1 RES1    0.0000
     39 O2B        5.0572    4.0452   10.8287 O.2       1 RES1    0.0000
     40 O3B        5.0434    3.7237    8.6690 O.2       1 RES1    0.0000
     41 O4B        2.9100    5.7231   11.3622 O.2       1 RES1    0.0000
     42 O5B        2.2479    5.3134   13.3773 O.2       1 RES1    0.0000
     43 O6B        1.5981    2.3877   13.5513 O.2       1 RES1    0.0000
     44 O7B       -0.2024    3.4578   13.0093 O.2       1 RES1    0.0000
     45 O8B        0.2926    3.2635    9.9493 O.2       1 RES1    0.0000
     46 O9B        0.2675    5.3149   10.6739 O.2       1 RES1    0.0000
@<TRIPOS>BOND
     1    1    2 1
     2    2    8 2
     3    3    4 1
     4    5    3 1
     5    6    3 1
     6    7    1 2
     7    8   15 1
     8    9    1 1
     9   10    2 1
    10   11   10 1
    11   12    6 1
    12   13    6 1
    13   14    6 1
    14   15    7 1
    15   16   11 2
    16   17   11 2
    17   18   12 2
    18   19   12 2
    19   20   13 2
    20   21   13 2
    21   22   14 2
    22   23   14 2
    23   24   25 1
    24   25   31 2
    25   26   27 1
    26   28   26 1
    27   29   26 1
    28   30   24 2
    29   31   38 1
    30   32    9 2
    31   33   25 1
    32   34   33 1
    33   35   29 1
    34   36   29 1
    35   37   29 1
    36   38   30 1
    37   39   34 2
    38   40   34 2
    39   41   35 2
    40   42   35 2
    41   43   36 2
    42   44   36 2
    43   45   37 2
    44   46   37 2
    45    3   10 1
    46   24   32 1
    47   26   33 1
@<TRIPOS>SUBSTRUCTURE
     1 RES1 1

@<TRIPOS>CRYSIN
   7.6324    9.7348   14.8237  90.0000  98.5620  90.0000 231 1

