# MOL2 file generated by ConQuest
# Please check atom types

@<TRIPOS>MOLECULE
SOYJOF
    43    46     1
SMALL
NO_CHARGES
****
Generated from CSD

@<TRIPOS>ATOM
      1 O1         7.5429    2.0879   -2.1132 O.2       1 RES1    0.0000
      2 O2         6.5333    0.2094   -2.4472 O.2       1 RES1    0.0000
      3 N1         1.9608    1.7575    2.3750 N.pl3     1 RES1    0.0000
      4 N2         1.6109   -0.1189    3.4705 N.2       1 RES1    0.0000
      5 N3         2.6784    2.7883    1.7735 N.3       1 RES1    0.0000
      6 N4         6.6214    1.3154   -1.9009 N.pl3     1 RES1    0.0000
      7 C1         0.4206    0.3009    2.8888 C.2       1 RES1    0.0000
      8 C2         2.5084    0.7736    3.1336 C.2       1 RES1    0.0000
      9 C3         0.6155    1.4648    2.1882 C.2       1 RES1    0.0000
     10 C4         3.6443    2.4111    0.8464 C.ar      1 RES1    0.0000
     11 C5         3.5528    1.2076    0.1444 C.ar      1 RES1    0.0000
     12 C6         4.5227    0.8569   -0.7586 C.ar      1 RES1    0.0000
     13 C7         5.5819    1.7016   -0.9667 C.ar      1 RES1    0.0000
     14 C8         5.6835    2.9052   -0.2986 C.ar      1 RES1    0.0000
     15 C9         4.7105    3.2670    0.6015 C.ar      1 RES1    0.0000
     16 C10       -0.8316   -0.4229    3.1775 C.ar      1 RES1    0.0000
     17 C11       -1.9232    0.2277    3.6970 C.ar      1 RES1    0.0000
     18 C12       -3.0396   -0.4656    4.0961 C.ar      1 RES1    0.0000
     19 C13       -3.1039   -1.8165    3.9645 C.ar      1 RES1    0.0000
     20 C14       -2.0343   -2.4792    3.4125 C.ar      1 RES1    0.0000
     21 C15       -0.8915   -1.8012    3.0162 C.ar      1 RES1    0.0000
     22 C16       -0.2939    2.2831    1.3800 C.ar      1 RES1    0.0000
     23 C17       -0.3969    3.6574    1.5541 C.ar      1 RES1    0.0000
     24 C18       -1.3037    4.3791    0.7898 C.ar      1 RES1    0.0000
     25 C19       -2.0835    3.7489   -0.1514 C.ar      1 RES1    0.0000
     26 C20       -1.9756    2.4020   -0.3255 C.ar      1 RES1    0.0000
     27 C21       -1.0902    1.6650    0.4289 C.ar      1 RES1    0.0000
     28 H1         2.8750    3.4734    2.4387 H         1 RES1    0.0000
     29 H2         3.5494    0.7319    3.4252 H         1 RES1    0.0000
     30 H3         2.7098    0.5489    0.3114 H         1 RES1    0.0000
     31 H4         4.4512   -0.0712   -1.3021 H         1 RES1    0.0000
     32 H5         6.5246    3.5578   -0.4812 H         1 RES1    0.0000
     33 H6         4.7737    4.2185    1.1181 H         1 RES1    0.0000
     34 H7        -1.8999    1.3011    3.7932 H         1 RES1    0.0000
     35 H8        -3.8755    0.0712    4.5151 H         1 RES1    0.0000
     36 H9        -3.9794   -2.3583    4.2886 H         1 RES1    0.0000
     37 H10       -2.0845   -3.5476    3.2837 H         1 RES1    0.0000
     38 H11       -0.0652   -2.3380    2.5901 H         1 RES1    0.0000
     39 H12        0.2270    4.1575    2.2788 H         1 RES1    0.0000
     40 H13       -1.3912    5.4484    0.9341 H         1 RES1    0.0000
     41 H14       -2.7731    4.3201   -0.7502 H         1 RES1    0.0000
     42 H15       -2.5912    1.9110   -1.0615 H         1 RES1    0.0000
     43 H16       -1.0220    0.5997    0.2831 H         1 RES1    0.0000
@<TRIPOS>BOND
     1    1    6 2
     2    2    6 2
     3    3    5 1
     4    4    7 1
     5    5   10 1
     6    6   13 1
     7    7    9 2
     8    8    3 1
     9    9    3 1
    10   10   11 ar
    11   11   12 ar
    12   12   13 ar
    13   13   14 ar
    14   14   15 ar
    15   15   10 ar
    16   16    7 1
    17   17   16 ar
    18   18   17 ar
    19   19   18 ar
    20   20   19 ar
    21   21   16 ar
    22   22    9 1
    23   23   22 ar
    24   24   23 ar
    25   25   24 ar
    26   26   25 ar
    27   27   22 ar
    28   28    5 1
    29   29    8 1
    30   30   11 1
    31   31   12 1
    32   32   14 1
    33   33   15 1
    34   34   17 1
    35   35   18 1
    36   36   19 1
    37   37   20 1
    38   38   21 1
    39   39   23 1
    40   40   24 1
    41   41   25 1
    42   42   26 1
    43   43   27 1
    44    4    8 2
    45   20   21 ar
    46   26   27 ar
@<TRIPOS>SUBSTRUCTURE
     1 RES1 1

@<TRIPOS>CRYSIN
  12.2530   10.1650   14.4090  90.0000 100.8000  90.0000 231 1

