# MOL2 file generated by ConQuest
# Please check atom types

@<TRIPOS>MOLECULE
SOYRII
    18    18     1
SMALL
NO_CHARGES
****
Generated from CSD

@<TRIPOS>ATOM
      1 O1        -4.4061    5.9507   13.0730 O.2       1 RES1    0.0000
      2 O2        -2.6105    6.5932   12.0908 O.2       1 RES1    0.0000
      3 O3        -1.9088    0.4686   11.5189 O.3       1 RES1    0.0000
      4 H1        -2.4459   -0.0691   11.8266 H         1 RES1    0.0000
      5 N1        -3.3590    5.7138   12.4997 N.pl3     1 RES1    0.0000
      6 C1        -1.8254    4.0563   11.5892 C.ar      1 RES1    0.0000
      7 H2        -1.2778    4.7460   11.2885 H         1 RES1    0.0000
      8 C2        -1.5020    2.7476   11.3475 C.ar      1 RES1    0.0000
      9 H3        -0.7332    2.5422   10.8670 H         1 RES1    0.0000
     10 C3        -2.3120    1.7300   11.8168 C.ar      1 RES1    0.0000
     11 C4        -3.4647    1.9967   12.5503 C.ar      1 RES1    0.0000
     12 C5        -3.7954    3.3185   12.7652 C.ar      1 RES1    0.0000
     13 H4        -4.5702    3.5300   13.2331 H         1 RES1    0.0000
     14 C6        -2.9850    4.3273   12.2903 C.ar      1 RES1    0.0000
     15 C7        -4.3175    0.8908   13.0856 C.3       1 RES1    0.0000
     16 H5        -3.7842    0.3147   13.6392 H         1 RES1    0.0000
     17 H6        -4.6818    0.3855   12.3550 H         1 RES1    0.0000
     18 H7        -5.0327    1.2615   13.6069 H         1 RES1    0.0000
@<TRIPOS>BOND
     1    1    5 2
     2    2    5 2
     3    3    4 1
     4    5   14 1
     5    6    7 1
     6    8    6 ar
     7    9    8 1
     8   10    3 1
     9   11   10 ar
    10   12   11 ar
    11   13   12 1
    12   14    6 ar
    13   15   11 1
    14   16   15 1
    15   17   15 1
    16   18   15 1
    17    8   10 ar
    18   12   14 ar
@<TRIPOS>SUBSTRUCTURE
     1 RES1 1

@<TRIPOS>CRYSIN
   5.6210    8.7420   14.3000  90.0000 100.7100  90.0000 231 1

