# MOL2 file generated by ConQuest
# Please check atom types

@<TRIPOS>MOLECULE
SOYVIN
    23    22     1
SMALL
NO_CHARGES
****
Generated from CSD

@<TRIPOS>ATOM
      1 C1         2.3872    2.9933   10.2251 C.2       1 RES1    0.0000
      2 C2         1.1087    3.5278    9.8147 C.1       1 RES1    0.0000
      3 C3         3.3668    2.6877    9.1268 C.2       1 RES1    0.0000
      4 C4         5.1301    4.0125   10.2677 C.3       1 RES1    0.0000
      5 H1         4.3669    4.4883   10.6818 H         1 RES1    0.0000
      6 H2         5.7186    4.6905    9.8497 H         1 RES1    0.0000
      7 C5         5.9057    3.2846   11.3510 C.3       1 RES1    0.0000
      8 H3         5.2956    2.7114   11.8600 H         1 RES1    0.0000
      9 H4         6.3178    3.9390   11.9530 H         1 RES1    0.0000
     10 H5         6.6042    2.7353   10.9387 H         1 RES1    0.0000
     11 C6         5.5663    2.7374    8.1528 C.3       1 RES1    0.0000
     12 H6         5.3118    1.8557    7.7830 H         1 RES1    0.0000
     13 H7         6.4768    2.6573    8.5339 H         1 RES1    0.0000
     14 C7         5.5771    3.7631    7.0404 C.3       1 RES1    0.0000
     15 H8         4.6910    3.8029    6.6245 H         1 RES1    0.0000
     16 H9         6.2431    3.5083    6.3677 H         1 RES1    0.0000
     17 H10        5.8047    4.6427    7.4082 H         1 RES1    0.0000
     18 N1         2.6291    2.6198   11.4301 N.2       1 RES1    0.0000
     19 N2         0.1027    3.9611    9.4814 N.1       1 RES1    0.0000
     20 N3         4.6214    3.1090    9.2219 N.am      1 RES1    0.0000
     21 O1         1.5468    2.8254   12.2477 O.3       1 RES1    0.0000
     22 H11        1.7296    2.5642   13.0250 H         1 RES1    0.0000
     23 O2         2.9131    2.0279    8.1791 O.2       1 RES1    0.0000
@<TRIPOS>BOND
     1    1    2 1
     2    2   19 3
     3    3    1 1
     4    4    5 1
     5    6    4 1
     6    7    4 1
     7    8    7 1
     8    9    7 1
     9   10    7 1
    10   11   12 1
    11   13   11 1
    12   14   11 1
    13   15   14 1
    14   16   14 1
    15   17   14 1
    16   18    1 2
    17   20    3 1
    18   21   18 1
    19   22   21 1
    20   23    3 2
    21    4   20 1
    22   11   20 1
@<TRIPOS>SUBSTRUCTURE
     1 RES1 1

@<TRIPOS>CRYSIN
   8.5424    7.9608   13.2705  90.0000  99.0600  90.0000  14 1

