# MOL2 file generated by ConQuest
# Please check atom types

@<TRIPOS>MOLECULE
SOZFIY
    39    42     1
SMALL
USER_CHARGES
****
Generated from CSD

@<TRIPOS>ATOM
      1 C1         1.2263    4.9781    5.7314 C.3       1 RES1    0.0000
      2 H1         2.0260    4.9070    6.2580 H         1 RES1    0.0000
      3 H2         0.5906    5.5332    6.1873 H         1 RES1    0.0000
      4 H3         1.4377    5.3672    4.8798 H         1 RES1    0.0000
      5 C2         0.6668    3.6722    5.5343 C.ar      1 RES1    0.0000
      6 C3        -0.6776    3.4551    5.9728 C.ar      1 RES1    0.0000
      7 H4        -1.1745    4.1354    6.3686 H         1 RES1    0.0000
      8 C4        -1.1986    2.2189    5.7894 C.ar      1 RES1    0.0000
      9 H5        -2.0641    2.0596    6.0874 H         1 RES1    0.0000
     10 C5        -0.5224    1.1873    5.1860 C.ar      1 RES1    0.0000
     11 H6        -0.9331    0.3602    5.0734 H         1 RES1    0.0000
     12 C6         0.7635    1.3866    4.7516 C.ar      1 RES1    0.0000
     13 H7         1.2436    0.7041    4.3405 H         1 RES1    0.0000
     14 C7         1.3367    2.6680    4.9505 C.ar      1 RES1    0.0000
     15 C8         2.7549    2.8503    4.4668 C.2       1 RES1    0.0000
     16 C9         3.0352    2.8200    3.0279 C.2       1 RES1    0.0000
     17 N1         2.0446    2.6606    2.2561 N.2       1 RES1    0.0000
     18 C10        2.3154    2.6399    0.8126 C.3       1 RES1    0.0000
     19 H8         1.5340    2.9630    0.3380 H         1 RES1    0.0000
     20 H9         2.4765    1.7253    0.5316 H         1 RES1    0.0000
     21 C11        3.4980    3.4825    0.4473 C.3       1 RES1    0.0000
     22 H10        3.6792    3.3906   -0.5009 H         1 RES1    0.0000
     23 H11        3.2984    4.4149    0.6269 H         1 RES1    0.0000
     24 C12        4.6955    3.0734    1.2242 C.3       1 RES1    0.0000
     25 H12        5.0168    2.2167    0.9019 H         1 RES1    0.0000
     26 H13        5.4021    3.7264    1.1032 H         1 RES1    0.0000
     27 N2         4.3554    2.9712    2.6490 N.3       1 RES1    0.0000
     28 C13        5.3829    2.9882    3.5824 C.ar      1 RES1    0.0000
     29 C14        6.7372    2.9667    3.2219 C.ar      1 RES1    0.0000
     30 H14        6.9844    2.9163    2.3277 H         1 RES1    0.0000
     31 C15        7.7058    3.0201    4.2114 C.ar      1 RES1    0.0000
     32 H15        8.6033    3.0060    3.9671 H         1 RES1    0.0000
     33 C16        7.3828    3.0920    5.5143 C.ar      1 RES1    0.0000
     34 H16        8.0515    3.1535    6.1581 H         1 RES1    0.0000
     35 C17        6.0757    3.0742    5.8883 C.ar      1 RES1    0.0000
     36 H17        5.8503    3.1038    6.7896 H         1 RES1    0.0000
     37 C18        5.0853    3.0112    4.9314 C.ar      1 RES1    0.0000
     38 N3         3.7195    2.9719    5.3412 N.pl3     1 RES1    1.0000
     39 O1         3.4985    3.0327    6.6087 O.2       1 RES1   -1.0000
@<TRIPOS>BOND
     1    1    2 1
     2    3    1 1
     3    4    1 1
     4    5    1 1
     5    6    5 ar
     6    7    6 1
     7    8    6 ar
     8    9    8 1
     9   10    8 ar
    10   11   10 1
    11   12   10 ar
    12   13   12 1
    13   14    5 ar
    14   15   14 1
    15   16   15 1
    16   17   16 2
    17   18   17 1
    18   19   18 1
    19   20   18 1
    20   21   18 1
    21   22   21 1
    22   23   21 1
    23   24   21 1
    24   25   24 1
    25   26   24 1
    26   27   16 1
    27   28   27 1
    28   29   28 ar
    29   30   29 1
    30   31   29 ar
    31   32   31 1
    32   33   31 ar
    33   34   33 1
    34   35   33 ar
    35   36   35 1
    36   37   28 ar
    37   38   15 2
    38   39   38 1
    39   12   14 ar
    40   24   27 1
    41   35   37 ar
    42   37   38 1
@<TRIPOS>SUBSTRUCTURE
     1 RES1 1

@<TRIPOS>CRYSIN
  12.5837    7.4112   15.4940  90.0000  97.4120  90.0000  14 1

