# MOL2 file generated by ConQuest
# Please check atom types

@<TRIPOS>MOLECULE
SOZMAX
    41    44     1
SMALL
NO_CHARGES
****
Generated from CSD

@<TRIPOS>ATOM
      1 C1         4.0312   11.6770   20.9601 C.ar      1 RES1    0.0000
      2 C2         3.7656   11.0088   22.1429 C.ar      1 RES1    0.0000
      3 H1         3.0396   10.4298   22.1939 H         1 RES1    0.0000
      4 C3         4.5695   11.1965   23.2421 C.ar      1 RES1    0.0000
      5 H2         4.4085   10.7309   24.0315 H         1 RES1    0.0000
      6 C4         5.6055   12.0745   23.1569 C.ar      1 RES1    0.0000
      7 H3         6.1591   12.2062   23.8932 H         1 RES1    0.0000
      8 C5         5.8433   12.7733   21.9854 C.ar      1 RES1    0.0000
      9 H4         6.5484   13.3790   21.9627 H         1 RES1    0.0000
     10 C6         5.0736   12.6058   20.8449 C.ar      1 RES1    0.0000
     11 C7         5.3957   13.4541   19.6056 C.3       1 RES1    0.0000
     12 C8         4.1859   14.1755   18.9278 C.3       1 RES1    0.0000
     13 H5         3.3503   13.7396   19.1588 H         1 RES1    0.0000
     14 H6         4.1409   15.1052   19.1983 H         1 RES1    0.0000
     15 C9         4.4636   14.0589   17.4461 C.2       1 RES1    0.0000
     16 C10        6.0665   12.6477   18.4396 C.3       1 RES1    0.0000
     17 H7         5.9771   11.6819   18.5759 H         1 RES1    0.0000
     18 C11        6.3499   14.5333   19.9711 C.1       1 RES1    0.0000
     19 C12        7.6218   12.6727   16.8221 C.3       1 RES1    0.0000
     20 H8         7.8291   11.7294   16.7284 H         1 RES1    0.0000
     21 H9         8.3528   13.1915   16.4498 H         1 RES1    0.0000
     22 C13        6.2903   13.0135   16.1075 C.3       1 RES1    0.0000
     23 H10        6.3594   13.9020   15.7009 H         1 RES1    0.0000
     24 C14        5.9067   12.0042   15.0449 C.ar      1 RES1    0.0000
     25 C15        4.7680   11.2436   15.1336 C.ar      1 RES1    0.0000
     26 H11        4.2151   11.3239   15.8768 H         1 RES1    0.0000
     27 C16        4.4357   10.3561   14.1201 C.ar      1 RES1    0.0000
     28 H12        3.6565    9.8526   14.1873 H         1 RES1    0.0000
     29 C17        5.2384   10.2136   13.0276 C.ar      1 RES1    0.0000
     30 H13        5.0038    9.6255   12.3477 H         1 RES1    0.0000
     31 C18        6.3943   10.9444   12.9405 C.ar      1 RES1    0.0000
     32 H14        6.9618   10.8353   12.2114 H         1 RES1    0.0000
     33 C19        6.7158   11.8446   13.9399 C.ar      1 RES1    0.0000
     34 H15        7.4912   12.3515   13.8652 H         1 RES1    0.0000
     35 N1         3.1639   11.2838   19.8287 N.pl3     1 RES1    0.0000
     36 N2         7.0524   15.3968   20.1922 N.1       1 RES1    0.0000
     37 N3         5.3792   13.0743   17.2455 N.am      1 RES1    0.0000
     38 O1         3.6147   11.3435   18.7014 O.2       1 RES1    0.0000
     39 O2         2.0467   10.8787   20.0875 O.2       1 RES1    0.0000
     40 O3         7.4087   13.0112   18.1967 O.3       1 RES1    0.0000
     41 O4         3.9463   14.7070   16.5614 O.2       1 RES1    0.0000
@<TRIPOS>BOND
     1    1    2 ar
     2    2    3 1
     3    4    2 ar
     4    5    4 1
     5    6    4 ar
     6    7    6 1
     7    8    6 ar
     8    9    8 1
     9   10    1 ar
    10   11   10 1
    11   12   11 1
    12   13   12 1
    13   14   12 1
    14   15   12 1
    15   16   11 1
    16   17   16 1
    17   18   11 1
    18   19   20 1
    19   21   19 1
    20   22   19 1
    21   23   22 1
    22   24   22 1
    23   25   24 ar
    24   26   25 1
    25   27   25 ar
    26   28   27 1
    27   29   27 ar
    28   30   29 1
    29   31   29 ar
    30   32   31 1
    31   33   24 ar
    32   34   33 1
    33   35    1 1
    34   36   18 3
    35   37   15 1
    36   38   35 2
    37   39   35 2
    38   40   16 1
    39   41   15 2
    40    8   10 ar
    41   16   37 1
    42   19   40 1
    43   22   37 1
    44   31   33 ar
@<TRIPOS>SUBSTRUCTURE
     1 RES1 1

@<TRIPOS>CRYSIN
   6.3404   13.2073   19.7595  90.0000  90.0000  90.0000  19 1

