# MOL2 file generated by ConQuest
# Please check atom types

@<TRIPOS>MOLECULE
SPZXAN
    86    93     1
SMALL
NO_CHARGES
****
Generated from CSD

@<TRIPOS>ATOM
      1 O1         5.1703   14.2518    0.3460 O.3       1 RES1    0.0000
      2 O2         3.5035   12.2077    2.4971 O.3       1 RES1    0.0000
      3 O3        13.4747   19.3949   -0.6764 O.3       1 RES1    0.0000
      4 O4        14.9155   18.3974   -2.0946 O.2       1 RES1    0.0000
      5 N1         4.5114   12.9926    0.5809 N.3       1 RES1    0.0000
      6 N2         4.7387   11.5167    2.3193 N.2       1 RES1    0.0000
      7 C1        12.8946   18.0866   -0.3502 C.3       1 RES1    0.0000
      8 C2        13.7527   17.2444    0.6061 C.3       1 RES1    0.0000
      9 C3        12.7473   16.4840    1.4873 C.3       1 RES1    0.0000
     10 C4        11.3903   16.8193    0.8794 C.3       1 RES1    0.0000
     11 C5        11.5617   18.2829    0.3808 C.3       1 RES1    0.0000
     12 C6        10.3735   18.6345   -0.5124 C.3       1 RES1    0.0000
     13 C7         9.0369   18.4178    0.2132 C.3       1 RES1    0.0000
     14 C8         8.8795   17.0032    0.8001 C.3       1 RES1    0.0000
     15 C9        10.1120   16.6189    1.6892 C.3       1 RES1    0.0000
     16 C10       10.0041   15.1839    2.2040 C.3       1 RES1    0.0000
     17 C11        8.6586   14.9019    2.8593 C.3       1 RES1    0.0000
     18 C12        7.5123   15.2657    1.9523 C.3       1 RES1    0.0000
     19 C13        7.5301   16.7498    1.4969 C.3       1 RES1    0.0000
     20 C14        6.3914   16.9337    0.4968 C.3       1 RES1    0.0000
     21 C15        5.0103   16.5086    1.0422 C.3       1 RES1    0.0000
     22 C16        5.0091   15.0817    1.5570 C.3       1 RES1    0.0000
     23 C17        6.1439   14.8487    2.5374 C.3       1 RES1    0.0000
     24 C18        3.6343   14.6525    2.0952 C.3       1 RES1    0.0000
     25 C19        3.3791   13.2502    1.5066 C.3       1 RES1    0.0000
     26 C20        5.3048   12.0441    1.2909 C.2       1 RES1    0.0000
     27 C21       14.4610   19.3908   -1.5913 C.2       1 RES1    0.0000
     28 C22       14.8723   20.8054   -1.8622 C.3       1 RES1    0.0000
     29 C23       11.7140   19.3009    1.5144 C.3       1 RES1    0.0000
     30 C24        7.3333   17.7105    2.6941 C.3       1 RES1    0.0000
     31 C25        6.6390   11.6271    0.8097 C.ar      1 RES1    0.0000
     32 C26        7.4425   10.8831    1.6519 C.ar      1 RES1    0.0000
     33 C27        8.7119   10.4865    1.2284 C.ar      1 RES1    0.0000
     34 C28        9.1575   10.8422   -0.0138 C.ar      1 RES1    0.0000
     35 C29        8.3730   11.5617   -0.8590 C.ar      1 RES1    0.0000
     36 C30        7.1023   11.9746   -0.4511 C.ar      1 RES1    0.0000
     37 C31        2.0374   13.1153    0.8194 C.ar      1 RES1    0.0000
     38 C32        0.9762   12.4652    1.4213 C.ar      1 RES1    0.0000
     39 C33       -0.2513   12.4203    0.7755 C.ar      1 RES1    0.0000
     40 C34       -0.4252   13.0008   -0.4734 C.ar      1 RES1    0.0000
     41 C35        0.6322   13.6508   -1.0482 C.ar      1 RES1    0.0000
     42 C36        1.8647   13.7122   -0.3838 C.ar      1 RES1    0.0000
     43 H1        12.6686   17.5797   -1.3095 H         1 RES1    0.0000
     44 H2        14.2808   17.7432    0.9731 H         1 RES1    0.0000
     45 H3        14.3696   16.6394    0.1682 H         1 RES1    0.0000
     46 H4        12.8463   16.8029    2.4509 H         1 RES1    0.0000
     47 H5        12.9352   15.5355    1.5498 H         1 RES1    0.0000
     48 H6        11.2469   16.2306    0.0300 H         1 RES1    0.0000
     49 H7        10.3837   19.6238   -0.7689 H         1 RES1    0.0000
     50 H8        10.3329   18.0703   -1.3756 H         1 RES1    0.0000
     51 H9         8.2257   18.7244   -0.4565 H         1 RES1    0.0000
     52 H10        9.0000   19.0515    0.8770 H         1 RES1    0.0000
     53 H11        8.9493   16.3532   -0.0300 H         1 RES1    0.0000
     54 H12       10.1425   17.2526    2.4929 H         1 RES1    0.0000
     55 H13       10.1044   14.5952    1.4116 H         1 RES1    0.0000
     56 H14       10.8153   14.8405    2.8353 H         1 RES1    0.0000
     57 H15        8.5685   15.4538    3.6703 H         1 RES1    0.0000
     58 H16        8.6319   13.9002    3.0756 H         1 RES1    0.0000
     59 H17        7.6545   14.7179    1.1293 H         1 RES1    0.0000
     60 H18        6.5374   16.3941   -0.4746 H         1 RES1    0.0000
     61 H19        6.3470   17.8659    0.1682 H         1 RES1    0.0000
     62 H20        4.7476   17.0891    1.7540 H         1 RES1    0.0000
     63 H21        4.3160   16.5985    0.2163 H         1 RES1    0.0000
     64 H22        6.2328   13.9411    2.7752 H         1 RES1    0.0000
     65 H23        5.9154   15.4538    3.3940 H         1 RES1    0.0000
     66 H24        2.8815   15.2902    1.8081 H         1 RES1    0.0000
     67 H25        3.6940   14.7179    3.0696 H         1 RES1    0.0000
     68 H26       15.6644   20.8094   -2.4689 H         1 RES1    0.0000
     69 H27       15.1693   21.3000   -1.0632 H         1 RES1    0.0000
     70 H28       14.1411   21.3818   -2.2646 H         1 RES1    0.0000
     71 H29       10.8788   19.5421    1.9763 H         1 RES1    0.0000
     72 H30       11.9324   20.1962    1.1053 H         1 RES1    0.0000
     73 H31       12.4401   19.0924    2.0364 H         1 RES1    0.0000
     74 H32        7.3498   18.7244    2.3788 H         1 RES1    0.0000
     75 H33        6.4232   17.7432    3.1837 H         1 RES1    0.0000
     76 H34        7.9338   17.7023    3.2017 H         1 RES1    0.0000
     77 H35        7.1848   10.5887    2.6611 H         1 RES1    0.0000
     78 H36        9.3047    9.9755    1.8141 H         1 RES1    0.0000
     79 H37       10.0156   10.6296   -0.3064 H         1 RES1    0.0000
     80 H38        8.7081   11.8970   -1.7060 H         1 RES1    0.0000
     81 H39        6.5882   12.3467   -1.0392 H         1 RES1    0.0000
     82 H40        1.0917   12.1014    2.2406 H         1 RES1    0.0000
     83 H41       -1.1044   11.8970    1.2134 H         1 RES1    0.0000
     84 H42       -1.3329   12.9599   -0.9912 H         1 RES1    0.0000
     85 H43        0.5205   14.1864   -2.0664 H         1 RES1    0.0000
     86 H44        2.7419   14.1864   -0.9431 H         1 RES1    0.0000
@<TRIPOS>BOND
     1    1    5 1
     2    2    6 1
     3    3    7 1
     4    4   27 2
     5    5   25 1
     6    6   26 2
     7    7    8 1
     8    8    9 1
     9    9   10 1
    10   10   11 1
    11   11    7 1
    12   12   11 1
    13   13   12 1
    14   14   13 1
    15   15   10 1
    16   16   15 1
    17   17   16 1
    18   18   17 1
    19   19   14 1
    20   20   19 1
    21   21   20 1
    22   22    1 1
    23   23   18 1
    24   24   22 1
    25   25    2 1
    26   26    5 1
    27   27    3 1
    28   28   27 1
    29   29   11 1
    30   30   19 1
    31   31   26 1
    32   32   31 ar
    33   33   32 ar
    34   34   33 ar
    35   35   34 ar
    36   36   31 ar
    37   37   25 1
    38   38   37 ar
    39   39   38 ar
    40   40   39 ar
    41   41   40 ar
    42   42   37 ar
    43   43    7 1
    44   44    8 1
    45   45    8 1
    46   46    9 1
    47   47    9 1
    48   48   10 1
    49   49   12 1
    50   50   12 1
    51   51   13 1
    52   52   13 1
    53   53   14 1
    54   54   15 1
    55   55   16 1
    56   56   16 1
    57   57   17 1
    58   58   17 1
    59   59   18 1
    60   60   20 1
    61   61   20 1
    62   62   21 1
    63   63   21 1
    64   64   23 1
    65   65   23 1
    66   66   24 1
    67   67   24 1
    68   68   28 1
    69   69   28 1
    70   70   28 1
    71   71   29 1
    72   72   29 1
    73   73   29 1
    74   74   30 1
    75   75   30 1
    76   76   30 1
    77   77   32 1
    78   78   33 1
    79   79   34 1
    80   80   35 1
    81   81   36 1
    82   82   38 1
    83   83   39 1
    84   84   40 1
    85   85   41 1
    86   86   42 1
    87   14   15 1
    88   18   19 1
    89   21   22 1
    90   22   23 1
    91   24   25 1
    92   35   36 ar
    93   41   42 ar
@<TRIPOS>SUBSTRUCTURE
     1 RES1 1

@<TRIPOS>CRYSIN
  12.6940   40.8830    6.0070  90.0000  90.0000  90.0000  19 1

