# MOL2 file generated by ConQuest
# Please check atom types

@<TRIPOS>MOLECULE
SUDFOM
    28    30     1
SMALL
NO_CHARGES
****
Generated from CSD

@<TRIPOS>ATOM
      1 N1        10.6164   -0.1351    2.7337 N.2       1 RES1    0.0000
      2 N2        12.6552    2.0435   -0.1860 N.pl3     1 RES1    0.0000
      3 N3        10.0877   -2.1180    1.5648 N.am      1 RES1    0.0000
      4 O1         9.9499   -2.2821   -0.7183 O.2       1 RES1    0.0000
      5 O2        13.0075    2.4875   -1.2575 O.2       1 RES1    0.0000
      6 O3        13.3794    1.5954    0.6661 O.2       1 RES1    0.0000
      7 O4        10.9159    1.7512    1.4108 O.3       1 RES1    0.0000
      8 C1        10.3199   -1.4120    2.6809 C.2       1 RES1    0.0000
      9 C2        10.1524   -1.5692    0.2646 C.2       1 RES1    0.0000
     10 C3        10.4774   -0.1793    0.3092 C.2       1 RES1    0.0000
     11 C4        10.5453    0.8411   -0.7843 C.3       1 RES1    0.0000
     12 C5        11.1403    2.0104    0.0496 C.3       1 RES1    0.0000
     13 C6         9.2137    1.2162   -1.4341 C.ar      1 RES1    0.0000
     14 C7        10.6577    0.4054    1.5101 C.2       1 RES1    0.0000
     15 C8         9.2048    1.6161   -2.7469 C.ar      1 RES1    0.0000
     16 C9         8.0037    1.9732   -3.3577 C.ar      1 RES1    0.0000
     17 C10        6.8243    1.9305   -2.6539 C.ar      1 RES1    0.0000
     18 C11        6.8384    1.5623   -1.3511 C.ar      1 RES1    0.0000
     19 C12        8.0350    1.1955   -0.7434 C.ar      1 RES1    0.0000
     20 H1        10.2734   -1.9249    3.4809 H         1 RES1    0.0000
     21 H2         9.7478   -3.0625    1.6522 H         1 RES1    0.0000
     22 H3        11.1694    0.5557   -1.4341 H         1 RES1    0.0000
     23 H4        10.8291    2.8998   -0.2061 H         1 RES1    0.0000
     24 H5         9.9832    1.7029   -3.2534 H         1 RES1    0.0000
     25 H6         8.0036    2.2311   -4.2250 H         1 RES1    0.0000
     26 H7         5.9712    2.2669   -3.0862 H         1 RES1    0.0000
     27 H8         5.8852    1.5085   -0.8446 H         1 RES1    0.0000
     28 H9         8.0952    0.7984    0.2105 H         1 RES1    0.0000
@<TRIPOS>BOND
     1    1    8 2
     2    2    5 2
     3    3    8 1
     4    4    9 2
     5    6    2 2
     6    7   12 1
     7    8   20 1
     8    9    3 1
     9   10    9 1
    10   11   10 1
    11   12    2 1
    12   13   11 1
    13   14    1 1
    14   15   13 ar
    15   16   15 ar
    16   17   16 ar
    17   18   17 ar
    18   19   13 ar
    19   21    3 1
    20   22   11 1
    21   23   12 1
    22   24   15 1
    23   25   16 1
    24   26   17 1
    25   27   18 1
    26   28   19 1
    27    7   14 1
    28   10   14 2
    29   11   12 1
    30   18   19 ar
@<TRIPOS>SUBSTRUCTURE
     1 RES1 1

@<TRIPOS>CRYSIN
  13.2410   13.7890    6.4830  90.0000 104.2200  90.0000  14 1

