# MOL2 file generated by ConQuest
# Please check atom types

@<TRIPOS>MOLECULE
SUFZIC01
    41    42     1
SMALL
NO_CHARGES
****
Generated from CSD

@<TRIPOS>ATOM
      1 O1         2.4935    2.0137    1.3023 O.3       1 RES1    0.0000
      2 O2         1.8265    2.7849   -1.2942 O.3       1 RES1    0.0000
      3 O3        -0.2606    0.6368   -2.0059 O.3       1 RES1    0.0000
      4 O4        -1.7317   -0.1033    1.2208 O.3       1 RES1    0.0000
      5 O5         0.7572    0.6543    2.5541 O.3       1 RES1    0.0000
      6 O6         4.4684    5.1585    4.6994 O.2       1 RES1    0.0000
      7 O7         3.4526    4.6609    6.5509 O.2       1 RES1    0.0000
      8 N1         3.6641    4.4921    5.3509 N.pl3     1 RES1    0.0000
      9 C1         3.3555    2.8295    0.4974 C.3       1 RES1    0.0000
     10 C2         2.4043    2.3004    2.6218 C.ar      1 RES1    0.0000
     11 C3         3.1387    3.2660    3.2875 C.ar      1 RES1    0.0000
     12 C4         2.9091    3.4420    4.6530 C.ar      1 RES1    0.0000
     13 C5         2.0029    2.6922    5.3716 C.ar      1 RES1    0.0000
     14 C6         1.2642    1.7154    4.6935 C.ar      1 RES1    0.0000
     15 C7         1.4444    1.5292    3.3246 C.ar      1 RES1    0.0000
     16 C8        -0.3104   -0.0888    3.1659 C.3       1 RES1    0.0000
     17 C9        -0.9509   -0.9259    2.0889 C.3       1 RES1    0.0000
     18 C10       -1.4511   -0.2158   -0.1763 C.3       1 RES1    0.0000
     19 C11       -0.2286    0.5796   -0.5825 C.3       1 RES1    0.0000
     20 C12        0.9932    0.8769   -2.6169 C.3       1 RES1    0.0000
     21 C13        1.4378    2.3232   -2.5916 C.3       1 RES1    0.0000
     22 C14        3.1395    2.3847   -0.9228 C.3       1 RES1    0.0000
     23 H1         4.2859    2.7403    0.7346 H         1 RES1    0.0000
     24 H2         3.1008    3.7491    0.5904 H         1 RES1    0.0000
     25 H3         3.7590    3.7685    2.8219 H         1 RES1    0.0000
     26 H4         1.9776    2.9003    6.3132 H         1 RES1    0.0000
     27 H5         0.7186    1.1883    5.1994 H         1 RES1    0.0000
     28 H6        -0.9269    0.5093    3.5190 H         1 RES1    0.0000
     29 H7         0.0830   -0.7178    3.8290 H         1 RES1    0.0000
     30 H8        -0.2597   -1.3968    1.6094 H         1 RES1    0.0000
     31 H9        -1.5217   -1.6248    2.5237 H         1 RES1    0.0000
     32 H10       -2.2554    0.2328   -0.6280 H         1 RES1    0.0000
     33 H11       -1.3436   -1.1398   -0.4384 H         1 RES1    0.0000
     34 H12       -0.2687    1.4793   -0.1975 H         1 RES1    0.0000
     35 H13        0.6899    0.1358   -0.3258 H         1 RES1    0.0000
     36 H14        0.8937    0.5723   -3.5723 H         1 RES1    0.0000
     37 H15        1.7119    0.3007   -2.2413 H         1 RES1    0.0000
     38 H16        2.1860    2.4056   -3.1951 H         1 RES1    0.0000
     39 H17        0.7020    2.8955   -2.8495 H         1 RES1    0.0000
     40 H18        3.8088    2.8178   -1.4633 H         1 RES1    0.0000
     41 H19        3.2352    1.4356   -0.9972 H         1 RES1    0.0000
@<TRIPOS>BOND
     1    1    9 1
     2    2   21 1
     3    3   19 1
     4    4   17 1
     5    5   15 1
     6    6    8 2
     7    7    8 2
     8    8   12 1
     9    9   22 1
    10   10    1 1
    11   11   10 ar
    12   12   11 ar
    13   13   12 ar
    14   14   13 ar
    15   15   10 ar
    16   16    5 1
    17   17   16 1
    18   18    4 1
    19   19   18 1
    20   20    3 1
    21   21   20 1
    22   22    2 1
    23   23    9 1
    24   24    9 1
    25   25   11 1
    26   26   13 1
    27   27   14 1
    28   28   16 1
    29   29   16 1
    30   30   17 1
    31   31   17 1
    32   32   18 1
    33   33   18 1
    34   34   19 1
    35   35   19 1
    36   36   20 1
    37   37   20 1
    38   38   21 1
    39   39   21 1
    40   40   22 1
    41   41   22 1
    42   14   15 ar
@<TRIPOS>SUBSTRUCTURE
     1 RES1 1

@<TRIPOS>CRYSIN
  15.0965    4.8500   19.7472  90.0000  90.0000  90.0000  29 1

