# MOL2 file generated by ConQuest
# Please check atom types

@<TRIPOS>MOLECULE
SUHSIX
    72    72     1
SMALL
NO_CHARGES
****
Generated from CSD

@<TRIPOS>ATOM
      1 C1        -0.5072    2.4651   11.8305 C.2       1 RES1    0.0000
      2 C2        -0.2049    1.0033   11.9025 C.3       1 RES1    0.0000
      3 O1         0.2196    3.1332   10.8193 O.3       1 RES1    0.0000
      4 C3         1.2395    3.9476   11.2169 C.2       1 RES1    0.0000
      5 O2         1.4943    4.1525   12.3875 O.2       1 RES1    0.0000
      6 N1         1.8956    4.4596   10.1698 N.am      1 RES1    0.0000
      7 C4         3.1260    5.2285   10.4457 C.3       1 RES1    0.0000
      8 C5         4.3458    4.5584    9.8510 C.3       1 RES1    0.0000
      9 C6         3.0152    6.6710    9.9710 C.3       1 RES1    0.0000
     10 C7         1.4618    4.3401    8.7748 C.3       1 RES1    0.0000
     11 C8         1.5332    2.9317    8.2246 C.3       1 RES1    0.0000
     12 C9         0.1042    4.9962    8.5468 C.3       1 RES1    0.0000
     13 C10       -1.3567    3.0939   12.5606 C.2       1 RES1    0.0000
     14 C11       -2.1387    3.7400   13.3866 C.2       1 RES1    0.0000
     15 C12       -3.6162    3.9556   13.1261 C.3       1 RES1    0.0000
     16 C13       -4.4348    3.3155   14.2555 C.3       1 RES1    0.0000
     17 C14       -3.8961    5.4602   13.0507 C.3       1 RES1    0.0000
     18 C15       -4.0216    3.2941   11.8082 C.3       1 RES1    0.0000
     19 C16       -1.5127    4.3234   14.6600 C.3       1 RES1    0.0000
     20 O3        -0.4076    5.1578   14.3618 O.3       1 RES1    0.0000
     21 C17       -1.1516    3.2754   15.6952 C.3       1 RES1    0.0000
     22 C18       -0.8786    3.8722   17.0542 C.3       1 RES1    0.0000
     23 O4         0.0425    2.5899   15.1999 O.3       1 RES1    0.0000
     24 C19        0.3314    1.4264   15.7723 C.2       1 RES1    0.0000
     25 O5        -0.3382    0.8818   16.6052 O.2       1 RES1    0.0000
     26 C20        1.6167    0.8491   15.2701 C.ar      1 RES1    0.0000
     27 C21        2.0003   -0.3865   15.7826 C.ar      1 RES1    0.0000
     28 C22        3.1543   -0.9712   15.3490 C.ar      1 RES1    0.0000
     29 C23        3.9789   -0.3785   14.4252 C.ar      1 RES1    0.0000
     30 C24        3.5815    0.8551   13.9334 C.ar      1 RES1    0.0000
     31 C25        2.4210    1.4738   14.3344 C.ar      1 RES1    0.0000
     32 N2         3.5528   -2.2815   15.9128 N.pl3     1 RES1    0.0000
     33 O6         2.7870   -2.8229   16.6737 O.2       1 RES1    0.0000
     34 O7         4.6187   -2.7454   15.5889 O.2       1 RES1    0.0000
     35 N3         4.4517    1.5072   12.9530 N.pl3     1 RES1    0.0000
     36 O8         5.3977    0.9025   12.5160 O.2       1 RES1    0.0000
     37 O9         4.1906    2.6273   12.6326 O.2       1 RES1    0.0000
     38 H1        -0.7278    0.5981   12.5983 H         1 RES1    0.0000
     39 H2         0.7281    0.8778   12.0876 H         1 RES1    0.0000
     40 H3        -0.4217    0.5941   11.0610 H         1 RES1    0.0000
     41 H4         3.2261    5.2452   11.4003 H         1 RES1    0.0000
     42 H5         5.1071    5.0890   10.0978 H         1 RES1    0.0000
     43 H6         4.2803    4.5196    8.8930 H         1 RES1    0.0000
     44 H7         4.4481    3.6699   10.2007 H         1 RES1    0.0000
     45 H8         3.8294    7.1309   10.1869 H         1 RES1    0.0000
     46 H9         2.2867    7.0648   10.4577 H         1 RES1    0.0000
     47 H10        2.8463    6.7424    9.0284 H         1 RES1    0.0000
     48 H11        2.1057    4.8354    8.2640 H         1 RES1    0.0000
     49 H12        1.4269    2.9183    7.2700 H         1 RES1    0.0000
     50 H13        0.8116    2.4484    8.6342 H         1 RES1    0.0000
     51 H14        2.3680    2.5205    8.4594 H         1 RES1    0.0000
     52 H15       -0.0881    4.9836    7.6059 H         1 RES1    0.0000
     53 H16        0.1879    5.9047    8.8450 H         1 RES1    0.0000
     54 H17       -0.6097    4.5677    9.0250 H         1 RES1    0.0000
     55 H18       -4.1844    3.7307   15.0833 H         1 RES1    0.0000
     56 H19       -4.3008    2.3670   14.3190 H         1 RES1    0.0000
     57 H20       -5.3595    3.4964   14.0722 H         1 RES1    0.0000
     58 H21       -4.8271    5.5616   12.8416 H         1 RES1    0.0000
     59 H22       -3.3663    5.8093   12.3309 H         1 RES1    0.0000
     60 H23       -3.6953    5.9408   13.8579 H         1 RES1    0.0000
     61 H24       -3.5258    3.7347   11.1141 H         1 RES1    0.0000
     62 H25       -4.9584    3.4590   11.6865 H         1 RES1    0.0000
     63 H26       -3.8553    2.3489   11.7688 H         1 RES1    0.0000
     64 H27       -2.1987    4.8641   15.0593 H         1 RES1    0.0000
     65 H28        0.1566    4.7112   13.8631 H         1 RES1    0.0000
     66 H29       -1.8917    2.6753   15.8117 H         1 RES1    0.0000
     67 H30       -1.7338    4.1632   17.3798 H         1 RES1    0.0000
     68 H31       -0.2795    4.6211   17.0148 H         1 RES1    0.0000
     69 H32       -0.5204    3.2067   17.6455 H         1 RES1    0.0000
     70 H33        1.4525   -0.8257   16.4372 H         1 RES1    0.0000
     71 H34        4.7939   -0.7957   14.1356 H         1 RES1    0.0000
     72 H35        2.1736    2.3256   13.9676 H         1 RES1    0.0000
@<TRIPOS>BOND
     1    1    2 1
     2    2   38 1
     3    3    1 1
     4    4    3 1
     5    5    4 2
     6    6    4 1
     7    7    6 1
     8    8    7 1
     9    9    7 1
    10   10    6 1
    11   11   10 1
    12   12   10 1
    13   13    1 2
    14   14   13 2
    15   15   14 1
    16   16   15 1
    17   17   15 1
    18   18   15 1
    19   19   14 1
    20   20   19 1
    21   21   19 1
    22   22   21 1
    23   23   21 1
    24   24   23 1
    25   25   24 2
    26   26   24 1
    27   27   26 ar
    28   28   27 ar
    29   29   28 ar
    30   30   29 ar
    31   31   26 ar
    32   32   28 1
    33   33   32 2
    34   34   32 2
    35   35   30 1
    36   36   35 2
    37   37   35 2
    38   39    2 1
    39   40    2 1
    40   41    7 1
    41   42    8 1
    42   43    8 1
    43   44    8 1
    44   45    9 1
    45   46    9 1
    46   47    9 1
    47   48   10 1
    48   49   11 1
    49   50   11 1
    50   51   11 1
    51   52   12 1
    52   53   12 1
    53   54   12 1
    54   55   16 1
    55   56   16 1
    56   57   16 1
    57   58   17 1
    58   59   17 1
    59   60   17 1
    60   61   18 1
    61   62   18 1
    62   63   18 1
    63   64   19 1
    64   65   20 1
    65   66   21 1
    66   67   22 1
    67   68   22 1
    68   69   22 1
    69   70   27 1
    70   71   29 1
    71   72   31 1
    72   30   31 ar
@<TRIPOS>SUBSTRUCTURE
     1 RES1 1

@<TRIPOS>CRYSIN
  12.1920    6.6750   17.2970  90.0000  97.7700  90.0000   4 1

