# MOL2 file generated by ConQuest
# Please check atom types

@<TRIPOS>MOLECULE
SUKVID
    41    43     1
SMALL
NO_CHARGES
****
Generated from CSD

@<TRIPOS>ATOM
      1 C1         7.1877    3.2941    1.5376 C.ar      1 RES1    0.0000
      2 C2         8.5557    3.3007    1.1680 C.ar      1 RES1    0.0000
      3 C3         9.5244    3.3178    2.1639 C.ar      1 RES1    0.0000
      4 C4         9.1385    3.3086    3.4730 C.ar      1 RES1    0.0000
      5 N1        10.1417    3.3191    4.5450 N.pl3     1 RES1    0.0000
      6 O1         9.8310    3.2848    5.6707 O.2       1 RES1    0.0000
      7 C5         7.8025    3.2908    3.8552 C.ar      1 RES1    0.0000
      8 O2        11.3308    3.4465    4.1613 O.2       1 RES1    0.0000
      9 C6         6.8406    3.2584    2.8861 C.ar      1 RES1    0.0000
     10 C7         6.2210    3.2736    0.4119 C.2       1 RES1    0.0000
     11 O3         6.4962    3.4003   -0.7533 O.2       1 RES1    0.0000
     12 O4         4.9438    3.1951    0.8619 O.3       1 RES1    0.0000
     13 C8         2.3043    4.2431    1.7464 C.3       1 RES1    0.0000
     14 C9         2.5822    3.0611    0.9254 C.3       1 RES1    0.0000
     15 C10        3.7906    3.2551   -0.0451 C.3       1 RES1    0.0000
     16 C11        3.7953    4.5995   -0.7335 C.3       1 RES1    0.0000
     17 C12        2.4312    5.0734   -1.2428 C.2       1 RES1    0.0000
     18 C13        1.4921    5.4542   -0.3724 C.2       1 RES1    0.0000
     19 C14        1.6982    5.4608    1.0763 C.3       1 RES1    0.0000
     20 C15        0.8281    4.6286    1.9847 C.3       1 RES1    0.0000
     21 C16        3.8351    2.0724   -1.0128 C.3       1 RES1    0.0000
     22 C17        2.2560    5.1104   -2.7267 C.3       1 RES1    0.0000
     23 H1         8.8364    3.3211    0.1255 H         1 RES1    0.0000
     24 H2        10.5744    3.3271    1.9100 H         1 RES1    0.0000
     25 H3         7.5249    3.2776    4.8991 H         1 RES1    0.0000
     26 H4         5.7956    3.2419    3.1542 H         1 RES1    0.0000
     27 H5         0.5429    5.7809   -0.7716 H         1 RES1    0.0000
     28 H6         2.9843    2.1173   -1.6772 H         1 RES1    0.0000
     29 H7         3.8019    1.1504   -0.4500 H         1 RES1    0.0000
     30 H8         4.7462    2.1113   -1.5898 H         1 RES1    0.0000
     31 H9         1.2050    5.2444   -2.9440 H         1 RES1    0.0000
     32 H10        2.5987    4.1831   -3.1640 H         1 RES1    0.0000
     33 H11        2.8171    5.9327   -3.1443 H         1 RES1    0.0000
     34 H12        3.1585    4.2174    2.4954 H         1 RES1    0.0000
     35 H13        2.9080    2.2876    1.4769 H         1 RES1    0.0000
     36 H14        1.7915    3.0578    0.2045 H         1 RES1    0.0000
     37 H15        4.0190    5.2925   -0.0818 H         1 RES1    0.0000
     38 H16        4.3595    4.8246   -1.4868 H         1 RES1    0.0000
     39 H17        1.9058    6.5208    1.3556 H         1 RES1    0.0000
     40 H18        0.8853    4.8490    3.0540 H         1 RES1    0.0000
     41 H19        0.2402    3.7501    1.4995 H         1 RES1    0.0000
@<TRIPOS>BOND
     1    1    2 ar
     2    2    3 ar
     3    3    4 ar
     4    4    5 1
     5    5    6 2
     6    7    4 ar
     7    8    5 2
     8    9    1 ar
     9   10    1 1
    10   11   10 2
    11   12   10 1
    12   13   14 1
    13   14   15 1
    14   15   12 1
    15   16   15 1
    16   17   16 1
    17   18   17 2
    18   19   13 1
    19   20   13 1
    20   21   15 1
    21   22   17 1
    22   23    2 1
    23   24    3 1
    24   25    7 1
    25   26    9 1
    26   27   18 1
    27   28   21 1
    28   29   21 1
    29   30   21 1
    30   31   22 1
    31   32   22 1
    32   33   22 1
    33   34   13 1
    34   35   14 1
    35   36   14 1
    36   37   16 1
    37   38   16 1
    38   39   19 1
    39   40   20 1
    40   41   20 1
    41    7    9 ar
    42   18   19 1
    43   19   20 1
@<TRIPOS>SUBSTRUCTURE
     1 RES1 1

@<TRIPOS>CRYSIN
  33.4390    6.6000   14.2050  90.0000  96.7600  90.0000  15 1

