# MOL2 file generated by ConQuest
# Please check atom types

@<TRIPOS>MOLECULE
SULSID
    37    38     1
SMALL
NO_CHARGES
****
Generated from CSD

@<TRIPOS>ATOM
      1 C1        10.2377    4.4209   15.4604 C.ar      1 RES1    0.0000
      2 C2        10.4912    3.5679   16.5395 C.ar      1 RES1    0.0000
      3 C3        10.8076    3.9899   17.8147 C.ar      1 RES1    0.0000
      4 H1        10.9871    3.3828   18.4963 H         1 RES1    0.0000
      5 C4        10.8468    5.3495   18.0360 C.ar      1 RES1    0.0000
      6 C5        10.6024    6.2616   17.0250 C.ar      1 RES1    0.0000
      7 H2        10.6353    7.1751   17.1946 H         1 RES1    0.0000
      8 C6        10.3080    5.7940   15.7582 C.ar      1 RES1    0.0000
      9 H3        10.1506    6.4089   15.0786 H         1 RES1    0.0000
     10 C7         9.9529    3.9156   14.1244 C.2       1 RES1    0.0000
     11 H4         9.8898    2.9939   14.0160 H         1 RES1    0.0000
     12 C8         9.7750    4.6844   13.0397 C.2       1 RES1    0.0000
     13 H5         9.8526    5.6029   13.1642 H         1 RES1    0.0000
     14 C9         9.4733    4.2337   11.6889 C.ar      1 RES1    0.0000
     15 C10        9.2503    5.1892   10.6914 C.ar      1 RES1    0.0000
     16 H6         9.3200    6.0909   10.9062 H         1 RES1    0.0000
     17 C11        8.9272    4.8305    9.3889 C.ar      1 RES1    0.0000
     18 C12        8.8346    3.4737    9.0837 C.ar      1 RES1    0.0000
     19 C13        9.0622    2.4839   10.0482 C.ar      1 RES1    0.0000
     20 C14        9.3796    2.8835   11.3360 C.ar      1 RES1    0.0000
     21 H7         9.5352    2.2352   11.9851 H         1 RES1    0.0000
     22 C15        8.6787    5.8747    8.3328 C.3       1 RES1    0.0000
     23 H8         8.7875    6.7487    8.7154 H         1 RES1    0.0000
     24 H9         7.7851    5.7823    7.9951 H         1 RES1    0.0000
     25 H10        9.3057    5.7598    7.6155 H         1 RES1    0.0000
     26 C16        8.9631    1.0299    9.6791 C.3       1 RES1    0.0000
     27 H11        8.6256    0.9489    8.7841 H         1 RES1    0.0000
     28 H12        8.3668    0.5850   10.2860 H         1 RES1    0.0000
     29 H13        9.8326    0.6263    9.7316 H         1 RES1    0.0000
     30 N1        11.1600    5.8184   19.3820 N.pl3     1 RES1    0.0000
     31 N2        10.4435    2.1061   16.3663 N.pl3     1 RES1    0.0000
     32 O1        11.4766    1.4856   16.5346 O.2       1 RES1    0.0000
     33 O2         9.3860    1.5921   16.0759 O.2       1 RES1    0.0000
     34 O3        11.3298    4.9786   20.2523 O.2       1 RES1    0.0000
     35 O4        11.2433    7.0200   19.5694 O.2       1 RES1    0.0000
     36 O5         8.5127    3.0300    7.8376 O.3       1 RES1    0.0000
     37 H14        8.4702    3.6394    7.3764 H         1 RES1    0.0000
@<TRIPOS>BOND
     1    1    2 ar
     2    2    3 ar
     3    3    4 1
     4    5    3 ar
     5    6    5 ar
     6    7    6 1
     7    8    1 ar
     8    9    8 1
     9   10    1 1
    10   11   10 1
    11   12   10 2
    12   13   12 1
    13   14   12 1
    14   15   14 ar
    15   16   15 1
    16   17   15 ar
    17   18   17 ar
    18   19   18 ar
    19   20   14 ar
    20   21   20 1
    21   22   17 1
    22   23   22 1
    23   24   22 1
    24   25   22 1
    25   26   19 1
    26   27   26 1
    27   28   26 1
    28   29   26 1
    29   30    5 1
    30   31    2 1
    31   32   31 2
    32   33   31 2
    33   34   30 2
    34   35   30 2
    35   36   18 1
    36   37   36 1
    37    6    8 ar
    38   19   20 ar
@<TRIPOS>SUBSTRUCTURE
     1 RES1 1

@<TRIPOS>CRYSIN
   6.9348    7.8591   15.3115  81.8960  77.8270  64.1160   2 1

