# MOL2 file generated by ConQuest
# Please check atom types

@<TRIPOS>MOLECULE
SUMBAE
    54    55     1
SMALL
NO_CHARGES
****
Generated from CSD

@<TRIPOS>ATOM
      1 O1        -2.5472   -1.9938   -3.7909 O.3       1 RES1    0.0000
      2 O2        -2.2156   -4.1017   -4.5407 O.2       1 RES1    0.0000
      3 O3         0.0869   -2.7497   -6.8739 O.2       1 RES1    0.0000
      4 O4        -0.6697   -4.6394   -7.8925 O.3       1 RES1    0.0000
      5 O5        -0.3082   -7.6556  -10.3140 O.2       1 RES1    0.0000
      6 N1         0.7158   -4.9744   -8.2298 N.3       1 RES1    0.0000
      7 N2         0.4647   -7.2904   -8.1954 N.am      1 RES1    0.0000
      8 N3        -2.5758   -2.3635   -5.9739 N.am      1 RES1    0.0000
      9 C1         0.5725   -5.4938   -9.6146 C.3       1 RES1    0.0000
     10 C2         0.1833   -6.9344   -9.4537 C.2       1 RES1    0.0000
     11 C3         1.0846   -6.1831   -7.4381 C.3       1 RES1    0.0000
     12 C4         0.1424   -8.6160   -7.6773 C.3       1 RES1    0.0000
     13 C5         2.6379   -6.2433   -7.5111 C.3       1 RES1    0.0000
     14 C6         3.2849   -5.1524   -6.6829 C.3       1 RES1    0.0000
     15 C7         3.1854   -7.6099   -7.1292 C.3       1 RES1    0.0000
     16 C8         0.5594   -6.1301   -6.0211 C.3       1 RES1    0.0000
     17 C9        -0.8050   -3.4480   -7.2686 C.2       1 RES1    0.0000
     18 C10       -2.2971   -3.1386   -7.1656 C.3       1 RES1    0.0000
     19 C11       -2.4352   -2.9131   -4.7553 C.2       1 RES1    0.0000
     20 C12       -2.4091   -2.4256   -2.4372 C.3       1 RES1    0.0000
     21 C13       -2.7001   -2.3516   -8.4347 C.3       1 RES1    0.0000
     22 C14       -4.1367   -2.5296   -8.8434 C.ar      1 RES1    0.0000
     23 C15       -4.4624   -3.4215   -9.8656 C.ar      1 RES1    0.0000
     24 C16       -5.7751   -3.5959  -10.2593 C.ar      1 RES1    0.0000
     25 C17       -6.7841   -2.8948   -9.6629 C.ar      1 RES1    0.0000
     26 C18       -6.4876   -2.0175   -8.6503 C.ar      1 RES1    0.0000
     27 C19       -5.1646   -1.8249   -8.2523 C.ar      1 RES1    0.0000
     28 H1         1.3960   -5.4217  -10.0845 H         1 RES1    0.0000
     29 H2        -0.1013   -5.0164  -10.0834 H         1 RES1    0.0000
     30 H3        -0.5140   -8.5384   -6.9951 H         1 RES1    0.0000
     31 H4         0.9260   -9.0158   -7.3180 H         1 RES1    0.0000
     32 H5        -0.1953   -9.1573   -8.3810 H         1 RES1    0.0000
     33 H6         2.8797   -6.0872   -8.4164 H         1 RES1    0.0000
     34 H7         3.2310   -5.3806   -5.7615 H         1 RES1    0.0000
     35 H8         2.8326   -4.3308   -6.8320 H         1 RES1    0.0000
     36 H9         4.1962   -5.0629   -6.9339 H         1 RES1    0.0000
     37 H10        2.9122   -7.8254   -6.2453 H         1 RES1    0.0000
     38 H11        4.1346   -7.5935   -7.1721 H         1 RES1    0.0000
     39 H12        2.8524   -8.2645   -7.7320 H         1 RES1    0.0000
     40 H13        0.9091   -6.8623   -5.5266 H         1 RES1    0.0000
     41 H14        0.8286   -5.3158   -5.6145 H         1 RES1    0.0000
     42 H15       -0.3898   -6.1803   -6.0339 H         1 RES1    0.0000
     43 H16       -2.7852   -3.9529   -7.1335 H         1 RES1    0.0000
     44 H17       -2.8611   -1.4606   -6.0543 H         1 RES1    0.0000
     45 H18       -3.2345   -2.3105   -1.9824 H         1 RES1    0.0000
     46 H19       -1.7360   -1.9098   -2.0081 H         1 RES1    0.0000
     47 H20       -2.1638   -3.3430   -2.4211 H         1 RES1    0.0000
     48 H21       -2.5499   -1.4278   -8.2716 H         1 RES1    0.0000
     49 H22       -2.1490   -2.6410   -9.1523 H         1 RES1    0.0000
     50 H23       -3.7738   -3.9145  -10.2969 H         1 RES1    0.0000
     51 H24       -5.9787   -4.2112  -10.9534 H         1 RES1    0.0000
     52 H25       -7.6834   -3.0135   -9.9472 H         1 RES1    0.0000
     53 H26       -7.1863   -1.5391   -8.2190 H         1 RES1    0.0000
     54 H27       -4.9689   -1.1996   -7.5636 H         1 RES1    0.0000
@<TRIPOS>BOND
     1    1   19 1
     2    2   19 2
     3    3   17 2
     4    4    6 1
     5    5   10 2
     6    6    9 1
     7    7   10 1
     8    8   18 1
     9    9   10 1
    10   11    6 1
    11   12    7 1
    12   13   11 1
    13   14   13 1
    14   15   13 1
    15   16   11 1
    16   17    4 1
    17   18   17 1
    18   19    8 1
    19   20    1 1
    20   21   18 1
    21   22   21 1
    22   23   22 ar
    23   24   23 ar
    24   25   24 ar
    25   26   25 ar
    26   27   22 ar
    27   28    9 1
    28   29    9 1
    29   30   12 1
    30   31   12 1
    31   32   12 1
    32   33   13 1
    33   34   14 1
    34   35   14 1
    35   36   14 1
    36   37   15 1
    37   38   15 1
    38   39   15 1
    39   40   16 1
    40   41   16 1
    41   42   16 1
    42   43   18 1
    43   44    8 1
    44   45   20 1
    45   46   20 1
    46   47   20 1
    47   48   21 1
    48   49   21 1
    49   50   23 1
    50   51   24 1
    51   52   25 1
    52   53   26 1
    53   54   27 1
    54    7   11 1
    55   26   27 ar
@<TRIPOS>SUBSTRUCTURE
     1 RES1 1

@<TRIPOS>CRYSIN
  10.0800    9.1290   11.6100  90.0000 112.4900  90.0000   4 1

