# MOL2 file generated by ConQuest
# Please check atom types

@<TRIPOS>MOLECULE
SUMYAA
    57    58     1
SMALL
NO_CHARGES
****
Generated from CSD

@<TRIPOS>ATOM
      1 C1         3.5178   -0.6795   12.6525 C.3       1 RES1    0.0000
      2 C2         4.6118   -1.1893   11.6950 C.3       1 RES1    0.0000
      3 C3         5.6844   -2.0165   12.3710 C.3       1 RES1    0.0000
      4 C4         5.0975   -3.2660   13.0160 C.3       1 RES1    0.0000
      5 C5         3.9741   -2.8434   13.9523 C.3       1 RES1    0.0000
      6 C6         2.9290   -1.9710   13.2827 C.3       1 RES1    0.0000
      7 C7         4.1388    0.1921   13.7523 C.2       1 RES1    0.0000
      8 O1         5.2007    0.7439   13.6988 O.2       1 RES1    0.0000
      9 O2         3.3171    0.3026   14.8075 O.3       1 RES1    0.0000
     10 C8         3.7860    1.1594   15.8750 C.3       1 RES1    0.0000
     11 C9         2.4017    0.1949   11.9088 C.3       1 RES1    0.0000
     12 C10        1.0535    0.1430   12.6656 C.3       1 RES1    0.0000
     13 C11        2.8052    1.6649   11.8156 C.3       1 RES1    0.0000
     14 C12        2.1473   -0.3979   10.5366 C.2       1 RES1    0.0000
     15 C13        2.3218    0.1934    9.3652 C.2       1 RES1    0.0000
     16 C14        6.1769   -4.0814   13.7034 C.3       1 RES1    0.0000
     17 O3         5.2352   -0.0568   11.0137 O.3       1 RES1    0.0000
     18 C15        5.7098   -0.2640    9.7896 C.2       1 RES1    0.0000
     19 O4         5.6343   -1.2869    9.1579 O.2       1 RES1    0.0000
     20 C16        6.4025    0.9652    9.2765 C.ar      1 RES1    0.0000
     21 C17        6.6636    2.0475   10.1149 C.ar      1 RES1    0.0000
     22 C18        7.3943    3.1087    9.6139 C.ar      1 RES1    0.0000
     23 C19        7.8831    3.1398    8.3269 C.ar      1 RES1    0.0000
     24 C20        7.5774    2.0589    7.5246 C.ar      1 RES1    0.0000
     25 C21        6.8421    0.9731    7.9591 C.ar      1 RES1    0.0000
     26 N1         7.6800    4.2565   10.4916 N.pl3     1 RES1    0.0000
     27 O5         7.4851    4.1212   11.6890 O.2       1 RES1    0.0000
     28 O6         8.0910    5.2763    9.9683 O.2       1 RES1    0.0000
     29 N2         8.0642    2.0832    6.1393 N.pl3     1 RES1    0.0000
     30 O7         7.3658    1.5692    5.2905 O.2       1 RES1    0.0000
     31 O8         9.1276    2.6269    5.9232 O.2       1 RES1    0.0000
     32 H1         4.1809   -1.7232   11.0443 H         1 RES1    0.0000
     33 H2         6.1134   -1.5050   13.0701 H         1 RES1    0.0000
     34 H3         6.3383   -2.2967   11.7334 H         1 RES1    0.0000
     35 H4         4.7003   -3.8453   12.3379 H         1 RES1    0.0000
     36 H5         4.3550   -2.3814   14.7391 H         1 RES1    0.0000
     37 H6         3.5255   -3.6745   14.3761 H         1 RES1    0.0000
     38 H7         2.4384   -2.4697   12.5825 H         1 RES1    0.0000
     39 H8         2.2039   -1.7194   13.9515 H         1 RES1    0.0000
     40 H9         3.8603    2.0448   15.5866 H         1 RES1    0.0000
     41 H10        3.1422    1.1277   16.5511 H         1 RES1    0.0000
     42 H11        4.6794    0.8136   16.2481 H         1 RES1    0.0000
     43 H12        1.1306    0.3581   13.6116 H         1 RES1    0.0000
     44 H13        0.6478   -0.7647   12.6410 H         1 RES1    0.0000
     45 H14        0.3617    0.7650   12.2672 H         1 RES1    0.0000
     46 H15        3.6480    1.8041   11.3904 H         1 RES1    0.0000
     47 H16        2.8418    2.0729   12.7071 H         1 RES1    0.0000
     48 H17        2.1365    2.1752   11.2827 H         1 RES1    0.0000
     49 H18        1.7698   -1.3190   10.6182 H         1 RES1    0.0000
     50 H19        2.1818   -0.2044    8.5401 H         1 RES1    0.0000
     51 H20        2.5879    1.1855    9.3723 H         1 RES1    0.0000
     52 H21        5.7908   -4.7722   14.1515 H         1 RES1    0.0000
     53 H22        6.6408   -3.5136   14.3345 H         1 RES1    0.0000
     54 H23        6.9690   -4.4364   12.9671 H         1 RES1    0.0000
     55 H24        6.3526    2.0526   10.9736 H         1 RES1    0.0000
     56 H25        8.3801    3.8327    8.0294 H         1 RES1    0.0000
     57 H26        6.6539    0.2534    7.3865 H         1 RES1    0.0000
@<TRIPOS>BOND
     1    1    2 1
     2    2    3 1
     3    3    4 1
     4    4    5 1
     5    5    6 1
     6    6    1 1
     7    7    1 1
     8    8    7 2
     9    9    7 1
    10   10    9 1
    11   11    1 1
    12   12   11 1
    13   13   11 1
    14   14   11 1
    15   15   14 2
    16   16    4 1
    17   17    2 1
    18   18   17 1
    19   19   18 2
    20   20   18 1
    21   21   20 ar
    22   22   21 ar
    23   23   22 ar
    24   24   23 ar
    25   25   20 ar
    26   26   22 1
    27   27   26 2
    28   28   26 2
    29   29   24 1
    30   30   29 2
    31   31   29 2
    32   32    2 1
    33   33    3 1
    34   34    3 1
    35   35    4 1
    36   36    5 1
    37   37    5 1
    38   38    6 1
    39   39    6 1
    40   40   10 1
    41   41   10 1
    42   42   10 1
    43   43   12 1
    44   44   12 1
    45   45   12 1
    46   46   13 1
    47   47   13 1
    48   48   13 1
    49   49   14 1
    50   50   15 1
    51   51   15 1
    52   52   16 1
    53   53   16 1
    54   54   16 1
    55   55   21 1
    56   56   23 1
    57   57   25 1
    58   24   25 ar
@<TRIPOS>SUBSTRUCTURE
     1 RES1 1

@<TRIPOS>CRYSIN
   7.7336    9.3074   15.6240  97.9110  94.3000 102.9460   2 1

