# MOL2 file generated by ConQuest
# Please check atom types

@<TRIPOS>MOLECULE
SUNREZ
    44    45     1
SMALL
NO_CHARGES
****
Generated from CSD

@<TRIPOS>ATOM
      1 O1         5.9055    0.9746    8.6276 O.3       1 RES1    0.0000
      2 N1         8.2664    4.3813    2.2119 N.2       1 RES1    0.0000
      3 C1         6.4680    3.3993   -0.7823 C.3       1 RES1    0.0000
      4 H1         5.6691    3.8925   -0.9855 H         1 RES1    0.0000
      5 H2         6.5858    2.7007   -1.4304 H         1 RES1    0.0000
      6 H3         7.2251    3.9888   -0.8075 H         1 RES1    0.0000
      7 O2         8.5040    3.3684    1.2365 O.3       1 RES1    0.0000
      8 C2         9.4452    6.5227    4.2500 C.3       1 RES1    0.0000
      9 H4         9.8288    7.3928    4.1157 H         1 RES1    0.0000
     10 H5         9.8845    5.8886    3.6775 H         1 RES1    0.0000
     11 H6         9.5621    6.2608    5.1658 H         1 RES1    0.0000
     12 O3         5.8478    5.4666    4.2458 O.3       1 RES1    0.0000
     13 C3         6.9762    0.7104    9.4653 C.3       1 RES1    0.0000
     14 H7         6.6507    0.4286   10.3232 H         1 RES1    0.0000
     15 H8         7.5047    1.5053    9.5686 H         1 RES1    0.0000
     16 H9         7.5166    0.0141    9.0842 H         1 RES1    0.0000
     17 O4         6.3533    2.8240    0.5246 O.3       1 RES1    0.0000
     18 C4         8.2457    1.3022    0.2023 C.3       1 RES1    0.0000
     19 H10        8.5385    1.7249   -0.6077 H         1 RES1    0.0000
     20 H11        7.6396    0.5883   -0.0101 H         1 RES1    0.0000
     21 H12        9.0055    0.9488    0.6715 H         1 RES1    0.0000
     22 C5         7.9947    6.5638    3.9251 C.3       1 RES1    0.0000
     23 H13        7.8933    6.7916    2.9875 H         1 RES1    0.0000
     24 H14        7.5802    7.2695    4.4456 H         1 RES1    0.0000
     25 C6         7.2473    5.2581    4.1929 C.3       1 RES1    0.0000
     26 H15        7.5347    4.9211    5.0668 H         1 RES1    0.0000
     27 C7         5.0705    1.7977    6.6121 C.ar      1 RES1    0.0000
     28 H16        4.2180    1.7061    6.9731 H         1 RES1    0.0000
     29 C8         7.4415    1.5863    6.8279 C.ar      1 RES1    0.0000
     30 H17        8.1894    1.3527    7.3265 H         1 RES1    0.0000
     31 C9         5.2175    2.2803    5.3312 C.ar      1 RES1    0.0000
     32 H18        4.4633    2.5116    4.8384 H         1 RES1    0.0000
     33 C10        7.5380    2.3226    1.0803 C.3       1 RES1    0.0000
     34 C11        6.1620    1.4537    7.3601 C.ar      1 RES1    0.0000
     35 C12        7.1676    1.7707    2.4402 C.3       1 RES1    0.0000
     36 H19        7.9499    1.3785    2.8582 H         1 RES1    0.0000
     37 H20        6.4979    1.0756    2.3395 H         1 RES1    0.0000
     38 C13        7.5718    2.0783    5.5335 C.ar      1 RES1    0.0000
     39 H21        8.4255    2.1770    5.1750 H         1 RES1    0.0000
     40 C14        7.4495    4.1414    3.1680 C.2       1 RES1    0.0000
     41 C15        6.6191    2.8881    3.3233 C.3       1 RES1    0.0000
     42 H22        5.7176    3.0964    3.0001 H         1 RES1    0.0000
     43 C16        6.4830    2.4247    4.7637 C.ar      1 RES1    0.0000
     44 H23        5.8817    5.8358    4.9022 H         1 RES1    0.0000
@<TRIPOS>BOND
     1    1   13 1
     2    2    7 1
     3    3    4 1
     4    5    3 1
     5    6    3 1
     6    7   33 1
     7    8    9 1
     8   10    8 1
     9   11    8 1
    10   12   25 1
    11   13   14 1
    12   15   13 1
    13   16   13 1
    14   17    3 1
    15   18   19 1
    16   20   18 1
    17   21   18 1
    18   22    8 1
    19   23   22 1
    20   24   22 1
    21   25   22 1
    22   26   25 1
    23   27   28 1
    24   29   30 1
    25   31   27 ar
    26   32   31 1
    27   33   17 1
    28   34    1 1
    29   35   33 1
    30   36   35 1
    31   37   35 1
    32   38   29 ar
    33   39   38 1
    34   40    2 2
    35   41   35 1
    36   42   41 1
    37   43   31 ar
    38   44   12 1
    39   18   33 1
    40   25   40 1
    41   27   34 ar
    42   29   34 ar
    43   38   43 ar
    44   40   41 1
    45   41   43 1
@<TRIPOS>SUBSTRUCTURE
     1 RES1 1

@<TRIPOS>CRYSIN
  15.9960   11.7420   10.6670  90.0000 128.1000  90.0000   9 1

