# MOL2 file generated by ConQuest
# Please check atom types

@<TRIPOS>MOLECULE
SUNRUP
    44    46     1
SMALL
NO_CHARGES
****
Generated from CSD

@<TRIPOS>ATOM
      1 N1         1.8388    4.3291    3.2201 N.2       1 RES1    0.0000
      2 O1         0.4465    4.5219    3.1857 O.3       1 RES1    0.0000
      3 O2         4.4098    2.5146    4.6383 O.3       1 RES1    0.0000
      4 H1         4.3889    3.2910    5.2238 H         1 RES1    0.0000
      5 O3         0.9364    1.6871    9.7523 O.3       1 RES1    0.0000
      6 C1        -0.4352    3.4827    3.6956 C.3       1 RES1    0.0000
      7 H2        -0.5416    3.5986    4.6623 H         1 RES1    0.0000
      8 C2        -1.7695    3.7295    3.0185 C.3       1 RES1    0.0000
      9 H3        -2.0201    4.6591    3.1372 H         1 RES1    0.0000
     10 H4        -2.4477    3.1814    3.4418 H         1 RES1    0.0000
     11 C3        -1.7243    3.4075    1.5234 C.3       1 RES1    0.0000
     12 H5        -2.6146    3.4896    1.1480 H         1 RES1    0.0000
     13 H6        -1.1488    4.0451    1.0734 H         1 RES1    0.0000
     14 C4        -1.2017    1.9959    1.2887 C.3       1 RES1    0.0000
     15 H7        -1.1469    1.8271    0.3357 H         1 RES1    0.0000
     16 H8        -1.8199    1.3554    1.6722 H         1 RES1    0.0000
     17 C5         0.1798    1.8088    1.9198 C.3       1 RES1    0.0000
     18 H9         0.4806    0.8981    1.7758 H         1 RES1    0.0000
     19 H10        0.8139    2.4067    1.4961 H         1 RES1    0.0000
     20 C6         0.1258    2.0997    3.4198 C.3       1 RES1    0.0000
     21 H11       -0.4616    1.4386    3.8417 H         1 RES1    0.0000
     22 C7         1.5052    2.0205    4.0941 C.3       1 RES1    0.0000
     23 H12        1.9509    1.2080    3.7775 H         1 RES1    0.0000
     24 C8         2.3102    3.2095    3.6246 C.2       1 RES1    0.0000
     25 C9         1.3943    1.9350    5.6113 C.ar      1 RES1    0.0000
     26 C10        0.8836    0.7672    6.1781 C.ar      1 RES1    0.0000
     27 H13        0.6453    0.0608    5.6217 H         1 RES1    0.0000
     28 C11        0.7231    0.6318    7.5544 C.ar      1 RES1    0.0000
     29 H14        0.3860   -0.1578    7.9114 H         1 RES1    0.0000
     30 C12        1.0701    1.6854    8.3903 C.ar      1 RES1    0.0000
     31 C13        1.5829    2.8509    7.8389 C.ar      1 RES1    0.0000
     32 H15        1.8238    3.5561    8.3942 H         1 RES1    0.0000
     33 C14        1.7419    2.9737    6.4673 C.ar      1 RES1    0.0000
     34 H16        2.0867    3.7627    6.1149 H         1 RES1    0.0000
     35 C15        3.8111    3.0942    3.4683 C.3       1 RES1    0.0000
     36 H17        4.1893    3.9865    3.3237 H         1 RES1    0.0000
     37 C16        4.1677    2.2059    2.2912 C.3       1 RES1    0.0000
     38 H18        5.1194    2.2099    2.1654 H         1 RES1    0.0000
     39 H19        3.7396    2.5370    1.4981 H         1 RES1    0.0000
     40 H20        3.8704    1.3095    2.4658 H         1 RES1    0.0000
     41 C17        0.5952    0.4614   10.3828 C.3       1 RES1    0.0000
     42 H21        0.6041    0.5790   11.3345 H         1 RES1    0.0000
     43 H22        1.2327   -0.2123   10.1389 H         1 RES1    0.0000
     44 H23       -0.2810    0.1894   10.0996 H         1 RES1    0.0000
@<TRIPOS>BOND
     1    1    2 1
     2    2    6 1
     3    3    4 1
     4    5   30 1
     5    6    7 1
     6    8    6 1
     7    9    8 1
     8   10    8 1
     9   11    8 1
    10   12   11 1
    11   13   11 1
    12   14   11 1
    13   15   14 1
    14   16   14 1
    15   17   14 1
    16   18   17 1
    17   19   17 1
    18   20    6 1
    19   21   20 1
    20   22   20 1
    21   23   22 1
    22   24    1 2
    23   25   22 1
    24   26   25 ar
    25   27   26 1
    26   28   26 ar
    27   29   28 1
    28   30   28 ar
    29   31   30 ar
    30   32   31 1
    31   33   25 ar
    32   34   33 1
    33   35    3 1
    34   36   35 1
    35   37   35 1
    36   38   37 1
    37   39   37 1
    38   40   37 1
    39   41    5 1
    40   42   41 1
    41   43   41 1
    42   44   41 1
    43   17   20 1
    44   22   24 1
    45   24   35 1
    46   31   33 ar
@<TRIPOS>SUBSTRUCTURE
     1 RES1 1

@<TRIPOS>CRYSIN
  25.0130    5.7385   22.0860  90.0000 110.2470  90.0000  15 1

