# MOL2 file generated by ConQuest
# Please check atom types

@<TRIPOS>MOLECULE
SUNWIH01
    32    33     1
SMALL
NO_CHARGES
****
Generated from CSD

@<TRIPOS>ATOM
      1 O1         5.2916    9.6296   10.2904 O.2       1 RES1    0.0000
      2 O2         5.3245    8.3701   12.0421 O.2       1 RES1    0.0000
      3 O3         3.6316    5.4506    4.4104 O.2       1 RES1    0.0000
      4 N1         5.1503    8.5430   10.8419 N.pl3     1 RES1    0.0000
      5 C1         4.7621    7.3851   10.0302 C.ar      1 RES1    0.0000
      6 C2         4.4410    6.2019   10.6710 C.ar      1 RES1    0.0000
      7 H1         4.4271    6.1379   11.6187 H         1 RES1    0.0000
      8 C3         4.1409    5.1146    9.8654 C.ar      1 RES1    0.0000
      9 H2         3.9090    4.2882   10.2727 H         1 RES1    0.0000
     10 C4         4.1692    5.1995    8.4712 C.ar      1 RES1    0.0000
     11 C5         3.8569    3.9645    7.6584 C.3       1 RES1    0.0000
     12 H3         3.9151    3.1653    8.2405 H         1 RES1    0.0000
     13 H4         4.5282    3.8679    6.9376 H         1 RES1    0.0000
     14 C6         2.4578    4.0414    7.0415 C.3       1 RES1    0.0000
     15 H5         1.7810    3.9300    7.7550 H         1 RES1    0.0000
     16 H6         2.3454    3.2983    6.3972 H         1 RES1    0.0000
     17 C7         4.7556    7.5254    8.6518 C.ar      1 RES1    0.0000
     18 H7         4.9524    8.3677    8.2581 H         1 RES1    0.0000
     19 C8         4.4598    6.4295    7.8430 C.ar      1 RES1    0.0000
     20 C9         2.2150    5.3802    6.3184 C.3       1 RES1    0.0000
     21 H8         1.4596    5.2899    5.6846 H         1 RES1    0.0000
     22 H9         1.9870    6.0837    6.9767 H         1 RES1    0.0000
     23 C10        3.4659    5.7581    5.5759 C.2       1 RES1    0.0000
     24 C11        4.5399    6.5709    6.3191 C.3       1 RES1    0.0000
     25 C12        4.2806    8.0292    5.8653 C.3       1 RES1    0.0000
     26 H10        3.4197    8.3341    6.2210 H         1 RES1    0.0000
     27 H11        4.2617    8.0681    4.8858 H         1 RES1    0.0000
     28 H12        4.9962    8.6083    6.2014 H         1 RES1    0.0000
     29 C13        5.9412    6.1569    5.8468 C.3       1 RES1    0.0000
     30 H13        6.6113    6.7371    6.2651 H         1 RES1    0.0000
     31 H14        5.9960    6.2433    4.8721 H         1 RES1    0.0000
     32 H15        6.1098    5.2260    6.1016 H         1 RES1    0.0000
@<TRIPOS>BOND
     1    1    4 2
     2    2    4 2
     3    3   23 2
     4    4    5 1
     5    5    6 ar
     6    6    7 1
     7    8    6 ar
     8    9    8 1
     9   10    8 ar
    10   11   10 1
    11   12   11 1
    12   13   11 1
    13   14   11 1
    14   15   14 1
    15   16   14 1
    16   17    5 ar
    17   18   17 1
    18   19   10 ar
    19   20   14 1
    20   21   20 1
    21   22   20 1
    22   23   20 1
    23   24   19 1
    24   25   24 1
    25   26   25 1
    26   27   25 1
    27   28   25 1
    28   29   24 1
    29   30   29 1
    30   31   29 1
    31   32   29 1
    32   17   19 ar
    33   23   24 1
@<TRIPOS>SUBSTRUCTURE
     1 RES1 1

@<TRIPOS>CRYSIN
   7.4206    8.1681    9.8337  85.6300  85.6170  73.2550   2 1

