# MOL2 file generated by ConQuest
# Please check atom types

@<TRIPOS>MOLECULE
SUQKIA
    83    88     1
SMALL
NO_CHARGES
****
Generated from CSD

@<TRIPOS>ATOM
      1 O1         3.0346    2.9973   14.7767 O.3       1 RES1    0.0000
      2 O2         2.9984    2.8722   12.6417 O.3       1 RES1    0.0000
      3 O3         4.8034    3.8159   13.6121 O.2       1 RES1    0.0000
      4 C1         3.7348    3.2977   13.6460 C.2       1 RES1    0.0000
      5 O4         4.7351    3.2471   20.7560 O.2       1 RES1    0.0000
      6 C2         3.5769    3.3204   16.0143 C.ar      1 RES1    0.0000
      7 C3         5.0847    2.0997    4.1842 C.3       1 RES1    0.0000
      8 C4         2.2716    3.8414    8.0572 C.2       1 RES1    0.0000
      9 H1         1.6197    4.4140    8.3914 H         1 RES1    0.0000
     10 O5         5.3961    5.2054   20.1376 O.2       1 RES1    0.0000
     11 C5         4.4283    3.8501   18.5399 C.ar      1 RES1    0.0000
     12 C6         4.1528    3.1714    4.7914 C.3       1 RES1    0.0000
     13 H2         4.7331    3.9293    5.0114 H         1 RES1    0.0000
     14 O6         7.3367    0.3126   -0.1458 O.2       1 RES1    0.0000
     15 C7         2.8540    3.0031    8.9134 C.2       1 RES1    0.0000
     16 C8         2.4028    2.9471   10.3552 C.3       1 RES1    0.0000
     17 H3         1.9225    2.1180   10.5097 H         1 RES1    0.0000
     18 H4         1.7953    3.6824   10.5300 H         1 RES1    0.0000
     19 C9         2.5892    3.9285    6.5979 C.3       1 RES1    0.0000
     20 H5         3.0366    4.7713    6.4236 H         1 RES1    0.0000
     21 H6         1.7600    3.9259    6.0947 H         1 RES1    0.0000
     22 C10        4.5872    1.9474   11.0228 C.3       1 RES1    0.0000
     23 H7         4.1810    1.0774   11.1571 H         1 RES1    0.0000
     24 H8         5.3386    2.0296   11.6312 H         1 RES1    0.0000
     25 C11        4.0680    4.5816   16.3010 C.ar      1 RES1    0.0000
     26 H9         4.1023    5.2399   15.6459 H         1 RES1    0.0000
     27 N1         4.8875    4.1315   19.9077 N.pl3     1 RES1    0.0000
     28 C12        3.9533    2.0304    8.5110 C.3       1 RES1    0.0000
     29 C13        5.0735    2.0742    9.5747 C.3       1 RES1    0.0000
     30 H10        5.6988    1.3553    9.3957 H         1 RES1    0.0000
     31 H11        5.5545    2.9117    9.4824 H         1 RES1    0.0000
     32 C14        6.1744    1.8345    5.2258 C.3       1 RES1    0.0000
     33 H12        6.7171    2.6314    5.3326 H         1 RES1    0.0000
     34 H13        6.7504    1.1199    4.9120 H         1 RES1    0.0000
     35 C15        5.5750    1.4424    6.5867 C.3       1 RES1    0.0000
     36 H14        5.1418    0.5789    6.5000 H         1 RES1    0.0000
     37 H15        6.2963    1.3462    7.2290 H         1 RES1    0.0000
     38 C16        3.4753    2.7846    6.0986 C.3       1 RES1    0.0000
     39 H16        2.9196    1.9917    5.9494 H         1 RES1    0.0000
     40 C17        4.3445    0.8100    3.8256 C.3       1 RES1    0.0000
     41 H17        3.9308    0.4491    4.6137 H         1 RES1    0.0000
     42 H18        4.9682    0.1711    3.4718 H         1 RES1    0.0000
     43 H19        3.6714    0.9993    3.1684 H         1 RES1    0.0000
     44 C18        3.5811    3.0306   11.3072 C.3       1 RES1    0.0000
     45 H20        4.0075    3.9098   11.2336 H         1 RES1    0.0000
     46 C19        5.5417    2.8655    2.9105 C.3       1 RES1    0.0000
     47 H21        6.1610    3.5641    3.2092 H         1 RES1    0.0000
     48 C20        3.9237    2.5935   18.2602 C.ar      1 RES1    0.0000
     49 H22        3.8712    1.9434   18.9214 H         1 RES1    0.0000
     50 C21        7.9755    5.1931    0.2271 C.ar      1 RES1    0.0000
     51 H23        8.6477    5.7901    0.4639 H         1 RES1    0.0000
     52 C22        6.6472    3.2287    0.7272 C.ar      1 RES1    0.0000
     53 C23        6.3477    4.4405   -1.3385 C.ar      1 RES1    0.0000
     54 H24        5.9198    4.5323   -2.1590 H         1 RES1    0.0000
     55 C24        3.2889    3.6437    3.6278 C.3       1 RES1    0.0000
     56 H25        2.9670    4.5461    3.7751 H         1 RES1    0.0000
     57 H26        2.5300    3.0541    3.4947 H         1 RES1    0.0000
     58 C25        4.5568    2.4497    7.1386 C.3       1 RES1    0.0000
     59 H27        5.0509    3.2804    7.2979 H         1 RES1    0.0000
     60 C26        7.2964    5.3433   -0.9628 C.ar      1 RES1    0.0000
     61 H28        7.4871    6.0680   -1.5141 H         1 RES1    0.0000
     62 C27        6.0157    3.3792   -0.4960 C.ar      1 RES1    0.0000
     63 H29        5.3668    2.7670   -0.7596 H         1 RES1    0.0000
     64 C28        4.5060    4.8390   17.5906 C.ar      1 RES1    0.0000
     65 H30        4.8491    5.6752   17.8101 H         1 RES1    0.0000
     66 C29        7.6435    4.1394    1.0688 C.ar      1 RES1    0.0000
     67 H31        8.0956    4.0408    1.8761 H         1 RES1    0.0000
     68 C30        6.2206    2.1504    1.7214 C.3       1 RES1    0.0000
     69 H32        5.5434    1.5942    1.2822 H         1 RES1    0.0000
     70 C31        7.4033    1.2506    2.0680 C.3       1 RES1    0.0000
     71 H33        8.1199    1.7964    2.4292 H         1 RES1    0.0000
     72 H34        7.1319    0.6248    2.7581 H         1 RES1    0.0000
     73 C32        3.5006    2.3300   16.9707 C.ar      1 RES1    0.0000
     74 H35        3.1668    1.4909   16.7497 H         1 RES1    0.0000
     75 C33        3.3464    0.6151    8.4513 C.3       1 RES1    0.0000
     76 H36        2.8580    0.4422    9.2606 H         1 RES1    0.0000
     77 H37        4.0498   -0.0310    8.3583 H         1 RES1    0.0000
     78 H38        2.7520    0.5525    7.7006 H         1 RES1    0.0000
     79 C34        4.2562    3.5880    2.4208 C.3       1 RES1    0.0000
     80 H39        4.4676    4.4841    2.1157 H         1 RES1    0.0000
     81 H40        3.8530    3.0989    1.6875 H         1 RES1    0.0000
     82 C35        7.9261    0.4762    0.8827 C.2       1 RES1    0.0000
     83 H41        8.7708    0.0965    0.9584 H         1 RES1    0.0000
@<TRIPOS>BOND
     1    1    4 1
     2    2    4 1
     3    3    4 2
     4    5   27 2
     5    6    1 1
     6    7   12 1
     7    8    9 1
     8   10   27 2
     9   11   27 1
    10   12   13 1
    11   14   82 2
    12   15    8 2
    13   16   15 1
    14   17   16 1
    15   18   16 1
    16   19    8 1
    17   20   19 1
    18   21   19 1
    19   22   23 1
    20   24   22 1
    21   25    6 ar
    22   26   25 1
    23   28   15 1
    24   29   22 1
    25   30   29 1
    26   31   29 1
    27   32    7 1
    28   33   32 1
    29   34   32 1
    30   35   32 1
    31   36   35 1
    32   37   35 1
    33   38   12 1
    34   39   38 1
    35   40    7 1
    36   41   40 1
    37   42   40 1
    38   43   40 1
    39   44    2 1
    40   45   44 1
    41   46    7 1
    42   47   46 1
    43   48   11 ar
    44   49   48 1
    45   50   51 1
    46   52   62 ar
    47   53   54 1
    48   55   12 1
    49   56   55 1
    50   57   55 1
    51   58   28 1
    52   59   58 1
    53   60   50 ar
    54   61   60 1
    55   62   53 ar
    56   63   62 1
    57   64   11 ar
    58   65   64 1
    59   66   50 ar
    60   67   66 1
    61   68   46 1
    62   69   68 1
    63   70   68 1
    64   71   70 1
    65   72   70 1
    66   73    6 ar
    67   74   73 1
    68   75   28 1
    69   76   75 1
    70   77   75 1
    71   78   75 1
    72   79   46 1
    73   80   79 1
    74   81   79 1
    75   82   70 1
    76   83   82 1
    77   16   44 1
    78   19   38 1
    79   22   44 1
    80   25   64 ar
    81   28   29 1
    82   35   58 1
    83   38   58 1
    84   48   73 ar
    85   52   66 ar
    86   52   68 1
    87   53   60 ar
    88   55   79 1
@<TRIPOS>SUBSTRUCTURE
     1 RES1 1

@<TRIPOS>CRYSIN
  10.0918   11.4859   25.4903  90.0000  90.0000  90.0000  19 1

