# MOL2 file generated by ConQuest
# Please check atom types

@<TRIPOS>MOLECULE
SURDUG
    27    29     1
SMALL
NO_CHARGES
****
Generated from CSD

@<TRIPOS>ATOM
      1 O1         3.6699    3.9124    1.9318 O.3       1 RES1    0.0000
      2 O2         5.7021    3.7486    2.8947 O.2       1 RES1    0.0000
      3 O3         2.5790    0.5435    1.3883 O.3       1 RES1    0.0000
      4 O4         7.0997    1.9258    0.1936 O.2       1 RES1    0.0000
      5 O5         6.4924   -0.1283   -0.0466 O.2       1 RES1    0.0000
      6 N1         6.7932    0.8303    0.6403 N.pl3     1 RES1    0.0000
      7 C1         4.7360    3.1877    2.4149 C.2       1 RES1    0.0000
      8 C2         4.4681    1.7638    2.2464 C.2       1 RES1    0.0000
      9 C3         3.2472    1.6666    1.6900 C.2       1 RES1    0.0000
     10 C4         2.6490    3.0082    1.4455 C.3       1 RES1    0.0000
     11 H1         2.4740    3.1516    0.4811 H         1 RES1    0.0000
     12 H2         1.8032    3.1196    1.9481 H         1 RES1    0.0000
     13 C5         5.2980    0.5843    2.6480 C.3       1 RES1    0.0000
     14 H3         5.3447    0.5863    3.6468 H         1 RES1    0.0000
     15 C6         4.5513   -0.6865    2.2364 C.ar      1 RES1    0.0000
     16 C7         3.2622   -0.6548    1.6778 C.ar      1 RES1    0.0000
     17 C8         2.5560   -1.8127    1.3652 C.ar      1 RES1    0.0000
     18 H4         1.6853   -1.7559    0.9888 H         1 RES1    0.0000
     19 C9         3.1329   -3.0515    1.6068 C.ar      1 RES1    0.0000
     20 H5         2.6550   -3.8484    1.4089 H         1 RES1    0.0000
     21 C10        4.4311   -3.1217    2.1475 C.ar      1 RES1    0.0000
     22 H6         4.8395   -3.9661    2.3024 H         1 RES1    0.0000
     23 C11        5.1087   -1.9562    2.4515 C.ar      1 RES1    0.0000
     24 H7         5.9833   -2.0161    2.8186 H         1 RES1    0.0000
     25 C12        6.7529    0.6679    2.1260 C.3       1 RES1    0.0000
     26 H8         7.2107    1.4359    2.5519 H         1 RES1    0.0000
     27 H9         7.2400   -0.1559    2.3791 H         1 RES1    0.0000
@<TRIPOS>BOND
     1    1    7 1
     2    2    7 2
     3    3    9 1
     4    4    6 2
     5    5    6 2
     6    6   25 1
     7    7    8 1
     8    8    9 2
     9    9   10 1
    10   10    1 1
    11   11   10 1
    12   12   10 1
    13   13    8 1
    14   14   13 1
    15   15   13 1
    16   16    3 1
    17   17   16 ar
    18   18   17 1
    19   19   17 ar
    20   20   19 1
    21   21   19 ar
    22   22   21 1
    23   23   15 ar
    24   24   23 1
    25   25   13 1
    26   26   25 1
    27   27   25 1
    28   15   16 ar
    29   21   23 ar
@<TRIPOS>SUBSTRUCTURE
     1 RES1 1

@<TRIPOS>CRYSIN
   7.2010   10.3230    7.2110  90.0000  96.0960  90.0000   4 1

