# MOL2 file generated by ConQuest
# Please check atom types

@<TRIPOS>MOLECULE
SUVNUU
    42    45     1
SMALL
NO_CHARGES
****
Generated from CSD

@<TRIPOS>ATOM
      1 O1         7.9310   -0.4295    2.8954 O.3       1 RES1    0.0000
      2 O2         7.4618    0.5859    0.9484 O.2       1 RES1    0.0000
      3 N1         9.9460    0.3375    3.9449 N.3       1 RES1    0.0000
      4 O3        11.0655    4.7302    1.4411 O.2       1 RES1    0.0000
      5 O4         8.0692    1.7408    3.5374 O.3       1 RES1    0.0000
      6 N2        10.6927   -1.1735    0.8397 N.1       1 RES1    0.0000
      7 C1         8.8010    0.6137    3.1835 C.3       1 RES1    0.0000
      8 C2        10.1112    0.7262    2.5061 C.3       1 RES1    0.0000
      9 C3        10.7259    2.1003    2.2292 C.3       1 RES1    0.0000
     10 H1        10.9341    2.1401    1.2723 H         1 RES1    0.0000
     11 C4         6.3908   -1.4950    1.4614 C.3       1 RES1    0.0000
     12 H2         5.8562   -1.3507    0.6781 H         1 RES1    0.0000
     13 H3         5.8190   -1.6090    2.2233 H         1 RES1    0.0000
     14 H4         6.9255   -2.2844    1.3421 H         1 RES1    0.0000
     15 C5         7.2762   -0.3280    1.6785 C.2       1 RES1    0.0000
     16 C6        12.0368    2.2366    2.9843 C.ar      1 RES1    0.0000
     17 C7        12.0498    2.5758    4.3276 C.ar      1 RES1    0.0000
     18 H5        11.2582    2.8184    4.7517 H         1 RES1    0.0000
     19 C8        13.2350    2.5554    5.0421 C.ar      1 RES1    0.0000
     20 H6        13.2495    2.7866    5.9434 H         1 RES1    0.0000
     21 C9        14.3918    2.1870    4.3924 C.ar      1 RES1    0.0000
     22 N3        15.6515    2.1415    5.1569 N.pl3     1 RES1    0.0000
     23 O5        16.6266    1.6264    4.6303 O.2       1 RES1    0.0000
     24 C10       13.2303    1.9078    2.3573 C.ar      1 RES1    0.0000
     25 H7        13.2272    1.7014    1.4507 H         1 RES1    0.0000
     26 C11       14.4250    1.8815    3.0562 C.ar      1 RES1    0.0000
     27 H8        15.2239    1.6639    2.6327 H         1 RES1    0.0000
     28 O6        15.6683    2.6279    6.2626 O.2       1 RES1    0.0000
     29 C12        9.6964    3.1738    2.5117 C.2       1 RES1    0.0000
     30 C13        9.9840    4.5066    1.9660 C.2       1 RES1    0.0000
     31 C14        8.8888    5.5396    2.0187 C.3       1 RES1    0.0000
     32 H9         8.3159    5.4376    1.2422 H         1 RES1    0.0000
     33 H10        9.2834    6.4246    1.9847 H         1 RES1    0.0000
     34 C15        8.0550    5.4123    3.2731 C.3       1 RES1    0.0000
     35 H11        7.3282    6.0552    3.2473 H         1 RES1    0.0000
     36 H12        8.6033    5.6093    4.0490 H         1 RES1    0.0000
     37 C16        7.4854    4.0043    3.3957 C.3       1 RES1    0.0000
     38 H13        7.1432    3.8747    4.2940 H         1 RES1    0.0000
     39 H14        6.7452    3.9036    2.7767 H         1 RES1    0.0000
     40 C17        8.5149    2.9628    3.1067 C.2       1 RES1    0.0000
     41 C18       10.4329   -0.3310    1.5680 C.1       1 RES1    0.0000
     42 H15       10.0458   -0.5065    4.1242 H         1 RES1    0.0000
@<TRIPOS>BOND
     1    1    7 1
     2    2   15 2
     3    3    7 1
     4    4   30 2
     5    5    7 1
     6    6   41 3
     7    7    8 1
     8    8    3 1
     9    9    8 1
    10   10    9 1
    11   11   12 1
    12   13   11 1
    13   14   11 1
    14   15    1 1
    15   16    9 1
    16   17   16 ar
    17   18   17 1
    18   19   17 ar
    19   20   19 1
    20   21   19 ar
    21   22   21 1
    22   23   22 2
    23   24   16 ar
    24   25   24 1
    25   26   21 ar
    26   27   26 1
    27   28   22 2
    28   29    9 1
    29   30   29 1
    30   31   30 1
    31   32   31 1
    32   33   31 1
    33   34   31 1
    34   35   34 1
    35   36   34 1
    36   37   34 1
    37   38   37 1
    38   39   37 1
    39   40    5 1
    40   41    8 1
    41   42    3 1
    42   11   15 1
    43   24   26 ar
    44   29   40 2
    45   37   40 1
@<TRIPOS>SUBSTRUCTURE
     1 RES1 1

@<TRIPOS>CRYSIN
  11.5192   14.4309   10.9492  90.0000 101.0640  90.0000  14 1

