# MOL2 file generated by ConQuest
# Please check atom types

@<TRIPOS>MOLECULE
SUVPIK
    52    56     1
SMALL
NO_CHARGES
****
Generated from CSD

@<TRIPOS>ATOM
      1 O1         2.3520    2.0427    3.7140 O.3       1 RES1    0.0000
      2 O2         4.6104   -5.8935    0.3657 O.2       1 RES1    0.0000
      3 N1         3.0201    0.1056    2.4895 N.3       1 RES1    0.0000
      4 O3         8.0400   -0.3620    2.6220 O.2       1 RES1    0.0000
      5 O4         4.1156    2.2230    2.3134 O.3       1 RES1    0.0000
      6 O5         3.7864    2.7521    5.2887 O.2       1 RES1    0.0000
      7 C1         3.3632    1.3332    3.0782 C.3       1 RES1    0.0000
      8 C2         5.3881   -0.2843    3.3325 C.3       1 RES1    0.0000
      9 H1         5.8987   -0.2760    4.1688 H         1 RES1    0.0000
     10 C3         5.3940   -1.7066    2.8039 C.ar      1 RES1    0.0000
     11 C4         1.5018    4.8723    9.3480 C.ar      1 RES1    0.0000
     12 H2         1.5044    5.1597   10.2327 H         1 RES1    0.0000
     13 C5         1.4422    5.7677    8.3230 C.ar      1 RES1    0.0000
     14 H3         1.3828    6.6765    8.5104 H         1 RES1    0.0000
     15 C6         1.4695    5.3405    7.0092 C.ar      1 RES1    0.0000
     16 H4         1.4427    5.9665    6.3214 H         1 RES1    0.0000
     17 C7         1.5343    4.0159    6.7100 C.ar      1 RES1    0.0000
     18 C8         1.4719    3.5137    5.2960 C.3       1 RES1    0.0000
     19 H5         1.3291    4.2704    4.7066 H         1 RES1    0.0000
     20 H6         0.7032    2.9281    5.2106 H         1 RES1    0.0000
     21 C9         2.6924    2.7717    4.8335 C.2       1 RES1    0.0000
     22 C10        3.9566    0.1068    3.6618 C.3       1 RES1    0.0000
     23 C11        5.5924   -2.7557    3.6848 C.ar      1 RES1    0.0000
     24 H7         5.7847   -2.5794    4.5773 H         1 RES1    0.0000
     25 C12        5.5065   -4.0594    3.2463 C.ar      1 RES1    0.0000
     26 H8         5.6370   -4.7640    3.8400 H         1 RES1    0.0000
     27 C13        5.2283   -4.3087    1.9288 C.ar      1 RES1    0.0000
     28 N2         5.0781   -5.6952    1.4683 N.pl3     1 RES1    0.0000
     29 C14        1.6001    3.1366    7.7501 C.ar      1 RES1    0.0000
     30 H9         1.6759    2.2277    7.5688 H         1 RES1    0.0000
     31 C15        1.5572    3.5535    9.0482 C.ar      1 RES1    0.0000
     32 H10        1.5664    2.9252    9.7348 H         1 RES1    0.0000
     33 O6         5.3966   -6.5907    2.2095 O.2       1 RES1    0.0000
     34 C16        5.0536   -3.2904    1.0154 C.ar      1 RES1    0.0000
     35 H11        4.8863   -3.4752    0.1197 H         1 RES1    0.0000
     36 C17        5.1347   -1.9857    1.4688 C.ar      1 RES1    0.0000
     37 H12        5.0145   -1.2851    0.8703 H         1 RES1    0.0000
     38 C18        6.0017    0.7413    2.4099 C.2       1 RES1    0.0000
     39 C19        5.3857    1.8576    1.9824 C.2       1 RES1    0.0000
     40 C20        6.0216    2.8849    1.1001 C.3       1 RES1    0.0000
     41 H13        6.3537    3.6162    1.6450 H         1 RES1    0.0000
     42 H14        5.3572    3.2424    0.4907 H         1 RES1    0.0000
     43 C21        7.1620    2.2940    0.3077 C.3       1 RES1    0.0000
     44 H15        6.8124    1.6799   -0.3566 H         1 RES1    0.0000
     45 H16        7.6368    3.0014   -0.1559 H         1 RES1    0.0000
     46 C22        8.1049    1.5679    1.2161 C.3       1 RES1    0.0000
     47 H17        8.5688    2.2157    1.7683 H         1 RES1    0.0000
     48 H18        8.7688    1.1103    0.6769 H         1 RES1    0.0000
     49 C23        7.4242    0.5601    2.1129 C.2       1 RES1    0.0000
     50 C24        3.4759   -0.3271    4.9606 C.1       1 RES1    0.0000
     51 N3         3.1579   -0.6809    5.9921 N.1       1 RES1    0.0000
     52 H19        2.3158   -0.1095    2.7087 H         1 RES1    0.0000
@<TRIPOS>BOND
     1    1    7 1
     2    2   28 2
     3    3    7 1
     4    4   49 2
     5    5    7 1
     6    6   21 2
     7    7   22 1
     8    8    9 1
     9   10    8 1
    10   11   12 1
    11   13   11 ar
    12   14   13 1
    13   15   13 ar
    14   16   15 1
    15   17   15 ar
    16   18   17 1
    17   19   18 1
    18   20   18 1
    19   21    1 1
    20   22    3 1
    21   23   10 ar
    22   24   23 1
    23   25   23 ar
    24   26   25 1
    25   27   25 ar
    26   28   27 1
    27   29   17 ar
    28   30   29 1
    29   31   11 ar
    30   32   31 1
    31   33   28 2
    32   34   27 ar
    33   35   34 1
    34   36   10 ar
    35   37   36 1
    36   38    8 1
    37   39    5 1
    38   40   39 1
    39   41   40 1
    40   42   40 1
    41   43   40 1
    42   44   43 1
    43   45   43 1
    44   46   43 1
    45   47   46 1
    46   48   46 1
    47   49   38 1
    48   50   22 1
    49   51   50 3
    50   52    3 1
    51    8   22 1
    52   18   21 1
    53   29   31 ar
    54   34   36 ar
    55   38   39 2
    56   46   49 1
@<TRIPOS>SUBSTRUCTURE
     1 RES1 1

@<TRIPOS>CRYSIN
   7.8756   12.1142   12.4328  86.9130  76.4780  73.2040   2 1

