# MOL2 file generated by ConQuest
# Please check atom types

@<TRIPOS>MOLECULE
SUWXIS
    75    68     2
SMALL
NO_CHARGES
****
Generated from CSD

@<TRIPOS>ATOM
      1 N1         6.2480   17.1236    1.8898 N.pl3     1 RES1    0.0000
      2 O1         5.6356   16.9873    3.0353 O.2       1 RES1    0.0000
      3 O2         7.5716   20.4830    2.3523 O.3       1 RES1    0.0000
      4 C1         6.1753   16.1486    0.9425 C.ar      1 RES1    0.0000
      5 C2         6.8410   16.2600   -0.2709 C.ar      1 RES1    0.0000
      6 C3         7.5683   17.4214   -0.5436 C.ar      1 RES1    0.0000
      7 C4         7.6136   18.4087    0.4414 C.ar      1 RES1    0.0000
      8 H1         8.0966   19.2081    0.2681 H         1 RES1    0.0000
      9 C5         6.9820   18.2629    1.6552 C.ar      1 RES1    0.0000
     10 C6         6.7841   15.1173   -1.2659 C.3       1 RES1    0.0000
     11 H2         5.9206   15.1545   -1.7482 H         1 RES1    0.0000
     12 H3         6.8114   14.2633   -0.7664 H         1 RES1    0.0000
     13 C7         7.8871   15.1311   -2.2689 C.3       1 RES1    0.0000
     14 H4         7.7059   14.4578   -2.9718 H         1 RES1    0.0000
     15 H5         8.7406   14.8942   -1.8272 H         1 RES1    0.0000
     16 C8         8.0010   16.5037   -2.8950 C.3       1 RES1    0.0000
     17 H6         7.1493   16.7257   -3.3485 H         1 RES1    0.0000
     18 H7         8.7151   16.4884   -3.5804 H         1 RES1    0.0000
     19 C9         8.3271   17.6193   -1.8352 C.3       1 RES1    0.0000
     20 H8         8.0930   18.5037   -2.2120 H         1 RES1    0.0000
     21 H9         9.2981   17.6170   -1.6446 H         1 RES1    0.0000
     22 C10        7.0715   19.2196    2.8131 C.3       1 RES1    0.0000
     23 H10        6.1720   19.3367    3.2333 H         1 RES1    0.0000
     24 C11        8.9091   20.6773    2.8316 C.3       1 RES1    0.0000
     25 H11        8.9219   21.3643    3.5442 H         1 RES1    0.0000
     26 H12        9.4984   20.9768    2.0936 H         1 RES1    0.0000
     27 C12        9.3809   19.3522    3.3736 C.3       1 RES1    0.0000
     28 H13       10.0213   19.4761    4.1182 H         1 RES1    0.0000
     29 H14        9.8054   18.8053    2.6659 H         1 RES1    0.0000
     30 C13        8.0839   18.7197    3.8583 C.3       1 RES1    0.0000
     31 H15        7.8480   19.0335    4.7678 H         1 RES1    0.0000
     32 H16        8.1431   17.7318    3.8583 H         1 RES1    0.0000
     33 N2         6.0087   13.8510    1.6688 N.pl3     1 RES1    0.0000
     34 O3         7.3067   13.9060    1.7772 O.2       1 RES1    0.0000
     35 C14        5.3290   14.9813    1.3104 C.ar      1 RES1    0.0000
     36 C15        3.9367   15.0242    1.2710 C.ar      1 RES1    0.0000
     37 C16        3.2184   13.8670    1.5746 C.ar      1 RES1    0.0000
     38 C17        3.9423   12.7131    1.8722 C.ar      1 RES1    0.0000
     39 H17        3.4658   11.9126    2.0574 H         1 RES1    0.0000
     40 C18        5.3274   12.6846    1.9102 C.ar      1 RES1    0.0000
     41 C19        3.2593   16.3141    0.8777 C.3       1 RES1    0.0000
     42 H18        3.6416   17.0565    1.4094 H         1 RES1    0.0000
     43 H19        3.4367   16.5006   -0.0789 H         1 RES1    0.0000
     44 C20        1.7197   16.2418    1.1233 C.3       1 RES1    0.0000
     45 H20        1.5375   16.3750    2.0887 H         1 RES1    0.0000
     46 H21        1.2761   16.9738    0.6266 H         1 RES1    0.0000
     47 C21        1.1413   14.9218    0.6861 C.3       1 RES1    0.0000
     48 H22        0.1548   14.9401    0.7763 H         1 RES1    0.0000
     49 H23        1.3645   14.7548   -0.2631 H         1 RES1    0.0000
     50 C22        1.7023   13.8509    1.5300 C.3       1 RES1    0.0000
     51 H24        1.3490   13.9539    2.4489 H         1 RES1    0.0000
     52 H25        1.3945   12.9754    1.1841 H         1 RES1    0.0000
     53 C23        6.0922   11.4438    2.2025 C.ar      1 RES1    0.0000
     54 C24        5.5961   10.5523    3.1500 C.ar      1 RES1    0.0000
     55 H26        4.8021   10.7641    3.6264 H         1 RES1    0.0000
     56 C25        6.2540    9.3515    3.4060 C.ar      1 RES1    0.0000
     57 H27        5.9097    8.7488    4.0540 H         1 RES1    0.0000
     58 C26        7.4053    9.0422    2.7151 C.ar      1 RES1    0.0000
     59 H28        7.8534    8.2220    2.8863 H         1 RES1    0.0000
     60 C27        7.9145    9.9255    1.7678 C.ar      1 RES1    0.0000
     61 H29        8.7106    9.7089    1.2976 H         1 RES1    0.0000
     62 C28        7.2632   11.1203    1.5103 C.ar      1 RES1    0.0000
     63 H30        7.6121   11.7212    0.8618 H         1 RES1    0.0000
     64 C29        7.3689   15.6247   -2.6923 Du        2 SUP2    0.0000
     65 C30        1.8053   16.2388    0.5773 Du        2 SUP2    0.0000
     66 C31        8.6031   16.4792   -2.5656 Du        2 SUP2    0.0000
     67 C32        1.1176   15.3567    1.5953 Du        2 SUP2    0.0000
     68 H31        7.5811   14.8345   -3.2498 Du        2 SUP2    0.0000
     69 H32        6.6666   16.1423   -3.1593 Du        2 SUP2    0.0000
     70 H33        1.6705   15.8697   -0.3306 Du        2 SUP2    0.0000
     71 H34        1.4118   17.1469    0.6036 Du        2 SUP2    0.0000
     72 H35        9.3199   15.9631   -2.1183 Du        2 SUP2    0.0000
     73 H36        8.9246   16.7334   -3.4669 Du        2 SUP2    0.0000
     74 H37        0.1439   15.3429    1.4144 Du        2 SUP2    0.0000
     75 H38        1.2570   15.7273    2.5015 Du        2 SUP2    0.0000
@<TRIPOS>BOND
     1    1    2 1
     2    3   22 1
     3    4    1 ar
     4    5    4 ar
     5    6    5 ar
     6    7    6 ar
     7    8    7 1
     8    9    1 ar
     9   10    5 1
    10   11   10 1
    11   12   10 1
    12   13   10 1
    13   14   13 1
    14   15   13 1
    15   16   13 1
    16   17   16 1
    17   18   16 1
    18   19    6 1
    19   20   19 1
    20   21   19 1
    21   22    9 1
    22   23   22 1
    23   24    3 1
    24   25   24 1
    25   26   24 1
    26   27   24 1
    27   28   27 1
    28   29   27 1
    29   30   22 1
    30   31   30 1
    31   32   30 1
    32   33   34 1
    33   35    4 1
    34   36   35 ar
    35   37   36 ar
    36   38   37 ar
    37   39   38 1
    38   40   33 ar
    39   41   36 1
    40   42   41 1
    41   43   41 1
    42   44   41 1
    43   45   44 1
    44   46   44 1
    45   47   44 1
    46   48   47 1
    47   49   47 1
    48   50   37 1
    49   51   50 1
    50   52   50 1
    51   53   40 1
    52   54   53 ar
    53   55   54 1
    54   56   54 ar
    55   57   56 1
    56   58   56 ar
    57   59   58 1
    58   60   58 ar
    59   61   60 1
    60   62   53 ar
    61   63   62 1
    62    7    9 ar
    63   16   19 1
    64   27   30 1
    65   33   35 ar
    66   38   40 ar
    67   47   50 1
    68   60   62 ar
@<TRIPOS>SUBSTRUCTURE
     1 RES1 1
     2 SUP2 64

@<TRIPOS>CRYSIN
   9.1086   15.3138   16.4463  90.0000  90.0000  90.0000  19 1

