# MOL2 file generated by ConQuest
# Please check atom types

@<TRIPOS>MOLECULE
SUWXUD
    36    40     1
SMALL
NO_CHARGES
****
Generated from CSD

@<TRIPOS>ATOM
      1 O1         5.4703    4.2266    1.7211 O.2       1 RES1    0.0000
      2 O2         7.4428    2.2396   -1.9384 O.3       1 RES1    0.0000
      3 O3         5.4814    3.9422   -3.4637 O.2       1 RES1    0.0000
      4 O4         6.8762    6.4070    0.1146 O.2       1 RES1    0.0000
      5 N1         6.8174    1.9453   -0.6651 N.3       1 RES1    0.0000
      6 N2         5.9479    5.4061   -1.7336 N.am      1 RES1    0.0000
      7 C1         7.0792    3.0790    0.2638 C.3       1 RES1    0.0000
      8 C2         5.6606    3.4026    0.8505 C.2       1 RES1    0.0000
      9 C3         4.7192    2.5448    0.1562 C.ar      1 RES1    0.0000
     10 C4         3.3272    2.4276    0.2749 C.ar      1 RES1    0.0000
     11 C5         2.6736    1.5857   -0.5783 C.ar      1 RES1    0.0000
     12 C6         3.3800    0.8490   -1.5454 C.ar      1 RES1    0.0000
     13 C7         4.7547    0.9349   -1.6537 C.ar      1 RES1    0.0000
     14 C8         5.4040    1.7976   -0.7901 C.ar      1 RES1    0.0000
     15 C9         7.4631    3.6669   -2.0377 C.3       1 RES1    0.0000
     16 C10        6.1575    4.2976   -2.5445 C.2       1 RES1    0.0000
     17 C11        6.8066    5.4940   -0.6623 C.2       1 RES1    0.0000
     18 C12        7.6412    4.2275   -0.6554 C.3       1 RES1    0.0000
     19 C13        8.0196    2.6911    1.3837 C.ar      1 RES1    0.0000
     20 C14        8.6240    3.6750    2.1613 C.ar      1 RES1    0.0000
     21 C15        9.4317    3.3346    3.2256 C.ar      1 RES1    0.0000
     22 C16        9.6480    1.9958    3.5387 C.ar      1 RES1    0.0000
     23 C17        9.0590    1.0130    2.7785 C.ar      1 RES1    0.0000
     24 C18        8.2494    1.3528    1.7037 C.ar      1 RES1    0.0000
     25 H1         2.9249    2.9837    1.0011 H         1 RES1    0.0000
     26 H2         1.6818    1.3989   -0.5249 H         1 RES1    0.0000
     27 H3         2.9420    0.2816   -2.1293 H         1 RES1    0.0000
     28 H4         5.1586    0.3538   -2.3800 H         1 RES1    0.0000
     29 H5         8.1970    3.9037   -2.6875 H         1 RES1    0.0000
     30 H6         5.3802    6.0039   -1.9308 H         1 RES1    0.0000
     31 H7         8.5200    4.4139   -0.3673 H         1 RES1    0.0000
     32 H8         8.4125    4.5535    2.0196 H         1 RES1    0.0000
     33 H9         9.7278    4.0100    3.8768 H         1 RES1    0.0000
     34 H10       10.2750    1.7276    4.3524 H         1 RES1    0.0000
     35 H11        9.1319    0.0357    2.9854 H         1 RES1    0.0000
     36 H12        7.8671    0.6939    1.1462 H         1 RES1    0.0000
@<TRIPOS>BOND
     1    1    8 2
     2    2    5 1
     3    3   16 2
     4    4   17 2
     5    5    7 1
     6    6   16 1
     7    7    8 1
     8    8    9 1
     9    9   10 ar
    10   10   11 ar
    11   11   12 ar
    12   12   13 ar
    13   13   14 ar
    14   14    5 1
    15   15    2 1
    16   16   15 1
    17   17    6 1
    18   18    7 1
    19   19    7 1
    20   20   19 ar
    21   21   20 ar
    22   22   21 ar
    23   23   22 ar
    24   24   19 ar
    25   25   10 1
    26   26   11 1
    27   27   12 1
    28   28   13 1
    29   29   15 1
    30   30    6 1
    31   31   18 1
    32   32   20 1
    33   33   21 1
    34   34   22 1
    35   35   23 1
    36   36   24 1
    37    9   14 ar
    38   15   18 1
    39   17   18 1
    40   23   24 ar
@<TRIPOS>SUBSTRUCTURE
     1 RES1 1

@<TRIPOS>CRYSIN
   8.4770   11.8820    7.2970 106.0000  99.0000  85.8900   2 1

