# MOL2 file generated by ConQuest
# Please check atom types

@<TRIPOS>MOLECULE
SUWYAK
    40    44     1
SMALL
NO_CHARGES
****
Generated from CSD

@<TRIPOS>ATOM
      1 N1         1.6490   -0.3446    4.7608 N.3       1 RES1    0.0000
      2 C1         2.3570    0.5901    5.6733 C.3       1 RES1    0.0000
      3 C2         1.5707    0.4195    7.0008 C.3       1 RES1    0.0000
      4 O1         2.6230   -0.7982    3.7935 O.3       1 RES1    0.0000
      5 C3         1.0593   -0.9876    6.8964 C.ar      1 RES1    0.0000
      6 C4         0.5134   -1.8255    7.8420 C.ar      1 RES1    0.0000
      7 C5         0.1177   -3.0916    7.4521 C.ar      1 RES1    0.0000
      8 C6         0.2488   -3.5023    6.1392 C.ar      1 RES1    0.0000
      9 C7         0.7635   -2.6479    5.1685 C.ar      1 RES1    0.0000
     10 C8         1.1510   -1.3950    5.5822 C.ar      1 RES1    0.0000
     11 C9         2.3681    2.0027    5.1249 C.ar      1 RES1    0.0000
     12 C10        1.9940    2.2967    3.8404 C.ar      1 RES1    0.0000
     13 C11        2.0441    3.6135    3.3620 C.ar      1 RES1    0.0000
     14 C12        2.4477    4.6275    4.1820 C.ar      1 RES1    0.0000
     15 C13        2.8016    4.3534    5.4744 C.ar      1 RES1    0.0000
     16 C14        2.7750    3.0355    5.9608 C.ar      1 RES1    0.0000
     17 C15        3.8695   -0.9370    4.5084 C.3       1 RES1    0.0000
     18 C16        4.0328   -2.3132    5.0985 C.2       1 RES1    0.0000
     19 O2         4.0074   -3.3768    4.5077 O.2       1 RES1    0.0000
     20 N2         4.2539   -2.1778    6.4445 N.am      1 RES1    0.0000
     21 C17        4.1812   -0.8577    6.8693 C.2       1 RES1    0.0000
     22 O3         4.3926   -0.5142    8.0052 O.2       1 RES1    0.0000
     23 C18        3.8214    0.0132    5.6958 C.3       1 RES1    0.0000
     24 C19        4.4863   -3.2953    7.3371 C.3       1 RES1    0.0000
     25 H1         2.1497    0.5736    7.7838 H         1 RES1    0.0000
     26 H2         0.7826    1.1241    6.9110 H         1 RES1    0.0000
     27 H3         0.4152   -1.4963    8.8331 H         1 RES1    0.0000
     28 H4        -0.3001   -3.6036    8.1578 H         1 RES1    0.0000
     29 H5         0.0325   -4.3633    5.9416 H         1 RES1    0.0000
     30 H6         0.8654   -2.8978    4.3168 H         1 RES1    0.0000
     31 H7         1.7632    1.5392    3.2463 H         1 RES1    0.0000
     32 H8         1.6582    3.7401    2.4118 H         1 RES1    0.0000
     33 H9         2.4034    5.5501    3.7730 H         1 RES1    0.0000
     34 H10        3.0847    5.0382    6.0394 H         1 RES1    0.0000
     35 H11        2.9425    2.8934    7.0021 H         1 RES1    0.0000
     36 H12        4.6059   -0.8015    3.7532 H         1 RES1    0.0000
     37 H13        4.4722    0.7035    5.6813 H         1 RES1    0.0000
     38 H14        5.4186   -3.4847    7.3015 H         1 RES1    0.0000
     39 H15        4.3661   -3.0608    8.2331 H         1 RES1    0.0000
     40 H16        4.0952   -4.1056    6.9116 H         1 RES1    0.0000
@<TRIPOS>BOND
     1    1    2 1
     2    2    3 1
     3    3    5 1
     4    4    1 1
     5    5    6 ar
     6    6    7 ar
     7    7    8 ar
     8    8    9 ar
     9    9   10 ar
    10   10    1 1
    11   11    2 1
    12   12   11 ar
    13   13   12 ar
    14   14   13 ar
    15   15   14 ar
    16   16   11 ar
    17   17    4 1
    18   18   17 1
    19   19   18 2
    20   20   18 1
    21   21   20 1
    22   22   21 2
    23   23    2 1
    24   24   20 1
    25   25    3 1
    26   26    3 1
    27   27    6 1
    28   28    7 1
    29   29    8 1
    30   30    9 1
    31   31   12 1
    32   32   13 1
    33   33   14 1
    34   34   15 1
    35   35   16 1
    36   36   17 1
    37   37   23 1
    38   38   24 1
    39   39   24 1
    40   40   24 1
    41    5   10 ar
    42   15   16 ar
    43   17   23 1
    44   21   23 1
@<TRIPOS>SUBSTRUCTURE
     1 RES1 1

@<TRIPOS>CRYSIN
  21.8800   11.0100    6.6230  90.0000  93.9000  90.0000 231 1

