# MOL2 file generated by ConQuest
# Please check atom types

@<TRIPOS>MOLECULE
SUYXOA
    26    26     1
SMALL
NO_CHARGES
****
Generated from CSD

@<TRIPOS>ATOM
      1 N1         3.9550    4.6327    6.2097 N.pl3     1 RES1    0.0000
      2 O1         5.0323    4.8299    6.7590 O.2       1 RES1    0.0000
      3 O2         3.4882    3.5207    6.0690 O.2       1 RES1    0.0000
      4 O3         0.2622    5.2743    3.0081 O.3       1 RES1    0.0000
      5 O4        -1.3295    7.2303    2.0795 O.3       1 RES1    0.0000
      6 C1         3.2411    5.7960    5.7454 C.2       1 RES1    0.0000
      7 H1         3.5393    6.6413    5.9941 H         1 RES1    0.0000
      8 C2         2.1788    5.6900    4.9795 C.2       1 RES1    0.0000
      9 H2         1.9258    4.8325    4.7214 H         1 RES1    0.0000
     10 C3         1.3620    6.7976    4.4986 C.ar      1 RES1    0.0000
     11 C4         0.4137    6.5585    3.5030 C.ar      1 RES1    0.0000
     12 C5        -0.4263    7.5832    3.0535 C.ar      1 RES1    0.0000
     13 C6        -0.3033    8.8531    3.5846 C.ar      1 RES1    0.0000
     14 H3        -0.8582    9.5386    3.2901 H         1 RES1    0.0000
     15 C7         0.6539    9.1010    4.5643 C.ar      1 RES1    0.0000
     16 H4         0.7405    9.9585    4.9125 H         1 RES1    0.0000
     17 C8         1.4731    8.0981    5.0214 C.ar      1 RES1    0.0000
     18 H5         2.1036    8.2788    5.6798 H         1 RES1    0.0000
     19 C9         0.8640    5.1002    1.7215 C.3       1 RES1    0.0000
     20 H6         0.4651    5.7104    1.0958 H         1 RES1    0.0000
     21 H7         0.7252    4.1992    1.4228 H         1 RES1    0.0000
     22 H8         1.8061    5.2755    1.7824 H         1 RES1    0.0000
     23 C10       -2.2023    8.2585    1.6094 C.3       1 RES1    0.0000
     24 H9        -2.7197    8.5982    2.3430 H         1 RES1    0.0000
     25 H10       -2.7911    7.8970    0.9429 H         1 RES1    0.0000
     26 H11       -1.6822    8.9692    1.2274 H         1 RES1    0.0000
@<TRIPOS>BOND
     1    1    2 2
     2    3    1 2
     3    4   11 1
     4    5   12 1
     5    6    1 1
     6    7    6 1
     7    8    6 2
     8    9    8 1
     9   10    8 1
    10   11   10 ar
    11   12   11 ar
    12   13   12 ar
    13   14   13 1
    14   15   13 ar
    15   16   15 1
    16   17   10 ar
    17   18   17 1
    18   19    4 1
    19   20   19 1
    20   21   19 1
    21   22   19 1
    22   23    5 1
    23   24   23 1
    24   25   23 1
    25   26   23 1
    26   15   17 ar
@<TRIPOS>SUBSTRUCTURE
     1 RES1 1

@<TRIPOS>CRYSIN
   5.3558   13.5897   14.2646  90.0000  97.0380  90.0000  14 1

