# MOL2 file generated by ConQuest
# Please check atom types

@<TRIPOS>MOLECULE
SUZCIB
    45    48     1
SMALL
NO_CHARGES
****
Generated from CSD

@<TRIPOS>ATOM
      1 N1         2.2479    1.0601   11.2100 N.am      1 RES1    0.0000
      2 O1         3.2567    2.0189   12.9630 O.2       1 RES1    0.0000
      3 N2         1.8373   -0.0727   10.5190 N.2       1 RES1    0.0000
      4 C1         2.8143    1.0107   12.4379 C.2       1 RES1    0.0000
      5 C2         1.4305    0.2975    9.3590 C.2       1 RES1    0.0000
      6 O2         5.3267    0.0456   12.2838 O.2       1 RES1    0.0000
      7 C3         1.9568    2.3214   10.4888 C.3       1 RES1    0.0000
      8 H1         2.7711    2.8608   10.4087 H         1 RES1    0.0000
      9 C4         0.8769    3.1058   11.2026 C.ar      1 RES1    0.0000
     10 C5         0.9446   -0.6799    8.3758 C.ar      1 RES1    0.0000
     11 C6        -0.2966    2.4952   11.6119 C.ar      1 RES1    0.0000
     12 H2        -0.4105    1.5822   11.4800 H         1 RES1    0.0000
     13 C7         1.5442    1.7788    9.1158 C.3       1 RES1    0.0000
     14 H3         0.6963    2.1538    8.8313 H         1 RES1    0.0000
     15 H4         2.2176    1.9731    8.4461 H         1 RES1    0.0000
     16 C8         2.7325   -0.2989   13.1748 C.ar      1 RES1    0.0000
     17 C9         3.8169   -0.9782   13.6958 C.ar      1 RES1    0.0000
     18 C10        1.0358    4.4585   11.4274 C.ar      1 RES1    0.0000
     19 H5         1.8206    4.8807   11.1597 H         1 RES1    0.0000
     20 C11        1.4669   -0.7703   13.5214 C.ar      1 RES1    0.0000
     21 H6         0.7125   -0.3535   13.1737 H         1 RES1    0.0000
     22 C12        0.8218   -2.0290    8.6929 C.ar      1 RES1    0.0000
     23 H7         1.0394   -2.3189    9.5490 H         1 RES1    0.0000
     24 C13       -1.2995    3.2277   12.2140 C.ar      1 RES1    0.0000
     25 H8        -2.0894    2.8125   12.4742 H         1 RES1    0.0000
     26 C14        0.0422    5.1924   12.0460 C.ar      1 RES1    0.0000
     27 H9         0.1643    6.1016   12.2037 H         1 RES1    0.0000
     28 C15       -1.1245    4.5810   12.4284 C.ar      1 RES1    0.0000
     29 H10       -1.7986    5.0785   12.8323 H         1 RES1    0.0000
     30 C16        3.6752   -2.0544   14.5592 C.ar      1 RES1    0.0000
     31 H11        4.4237   -2.4839   14.9068 H         1 RES1    0.0000
     32 C17        0.3851   -2.9416    7.7612 C.ar      1 RES1    0.0000
     33 H12        0.3045   -3.8388    7.9913 H         1 RES1    0.0000
     34 C18        1.3164   -1.8415   14.3686 C.ar      1 RES1    0.0000
     35 H13        0.4625   -2.1382   14.5879 H         1 RES1    0.0000
     36 N3         5.1657   -0.6024   13.2958 N.pl3     1 RES1    0.0000
     37 C19        0.6114   -0.2758    7.0894 C.ar      1 RES1    0.0000
     38 H14        0.6784    0.6214    6.8566 H         1 RES1    0.0000
     39 C20        0.0655   -2.5258    6.4838 C.ar      1 RES1    0.0000
     40 H15       -0.2262   -3.1427    5.8518 H         1 RES1    0.0000
     41 C21        0.1813   -1.1996    6.1511 C.ar      1 RES1    0.0000
     42 H16       -0.0315   -0.9188    5.2897 H         1 RES1    0.0000
     43 C22        2.4096   -2.4769   14.8935 C.ar      1 RES1    0.0000
     44 H17        2.2964   -3.1941   15.4749 H         1 RES1    0.0000
     45 O3         6.0912   -0.9814   13.9919 O.2       1 RES1    0.0000
@<TRIPOS>BOND
     1    1    3 1
     2    2    4 2
     3    3    5 2
     4    4    1 1
     5    5   10 1
     6    6   36 2
     7    7    1 1
     8    8    7 1
     9    9    7 1
    10   10   22 ar
    11   11    9 ar
    12   12   11 1
    13   13    5 1
    14   14   13 1
    15   15   13 1
    16   16    4 1
    17   17   16 ar
    18   18    9 ar
    19   19   18 1
    20   20   16 ar
    21   21   20 1
    22   22   23 1
    23   24   11 ar
    24   25   24 1
    25   26   18 ar
    26   27   26 1
    27   28   24 ar
    28   29   28 1
    29   30   17 ar
    30   31   30 1
    31   32   22 ar
    32   33   32 1
    33   34   20 ar
    34   35   34 1
    35   36   17 1
    36   37   10 ar
    37   38   37 1
    38   39   32 ar
    39   40   39 1
    40   41   37 ar
    41   42   41 1
    42   43   30 ar
    43   44   43 1
    44   45   36 2
    45    7   13 1
    46   26   28 ar
    47   34   43 ar
    48   39   41 ar
@<TRIPOS>SUBSTRUCTURE
     1 RES1 1

@<TRIPOS>CRYSIN
   7.8362   15.5733   15.3004  90.0000  99.0670  90.0000  14 1

