# MOL2 file generated by ConQuest
# Please check atom types

@<TRIPOS>MOLECULE
SUZKON
    67    67     1
SMALL
NO_CHARGES
****
Generated from CSD

@<TRIPOS>ATOM
      1 C1         6.4951    9.5573   20.7322 C.3       1 RES1    0.0000
      2 H1         5.5354    9.2826   20.6702 H         1 RES1    0.0000
      3 C2         7.2260    9.1221   19.4652 C.2       1 RES1    0.0000
      4 O1         8.4575    9.1649   19.3873 O.2       1 RES1    0.0000
      5 N1         6.4392    8.6615   18.4725 N.am      1 RES1    0.0000
      6 H2         5.5662    8.7061   18.5760 H         1 RES1    0.0000
      7 C3         6.9658    8.0925   17.2338 C.3       1 RES1    0.0000
      8 H3         7.9629    8.1646   17.2530 H         1 RES1    0.0000
      9 C4         6.4459    8.9126   16.0515 C.2       1 RES1    0.0000
     10 O2         5.2733    9.2978   16.0655 O.2       1 RES1    0.0000
     11 N2         7.2701    9.1635   15.0158 N.am      1 RES1    0.0000
     12 C5         8.6858    8.8106   14.9119 C.3       1 RES1    0.0000
     13 H4         8.7981    8.1017   14.2438 H         1 RES1    0.0000
     14 H5         9.0081    8.4933   15.7805 H         1 RES1    0.0000
     15 H6         9.1998    9.5993   14.6401 H         1 RES1    0.0000
     16 C6         6.7398    9.8157   13.8230 C.3       1 RES1    0.0000
     17 H7         5.8049   10.0670   13.9757 H         1 RES1    0.0000
     18 H8         6.7917    9.1992   13.0626 H         1 RES1    0.0000
     19 H9         7.2661   10.6194   13.6280 H         1 RES1    0.0000
     20 C7         6.5828    6.5811   17.0893 C.3       1 RES1    0.0000
     21 C8         6.9334    6.0702   15.6837 C.3       1 RES1    0.0000
     22 H10        6.6851    5.1248   15.6076 H         1 RES1    0.0000
     23 H11        7.8963    6.1678   15.5318 H         1 RES1    0.0000
     24 H12        6.4423    6.5921   15.0151 H         1 RES1    0.0000
     25 C9         7.3920    5.7934   18.1232 C.3       1 RES1    0.0000
     26 H13        8.3452    5.8524   17.9058 H         1 RES1    0.0000
     27 H14        7.1114    4.8540   18.1117 H         1 RES1    0.0000
     28 H15        7.2364    6.1691   19.0150 H         1 RES1    0.0000
     29 C10        5.0861    6.3621   17.3212 C.3       1 RES1    0.0000
     30 H16        4.8407    6.6997   18.2088 H         1 RES1    0.0000
     31 H17        4.8837    5.4052   17.2686 H         1 RES1    0.0000
     32 H18        4.5753    6.8423   16.6353 H         1 RES1    0.0000
     33 C11        7.1447    8.8580   21.9273 C.3       1 RES1    0.0000
     34 H19        8.1033    9.1025   21.9563 H         1 RES1    0.0000
     35 H20        6.7241    9.1919   22.7586 H         1 RES1    0.0000
     36 N3         7.0324    7.4124   21.8943 N.am      1 RES1    0.0000
     37 C12        8.0745    6.5516   21.8724 C.2       1 RES1    0.0000
     38 H21        8.9374    6.9136   21.7076 H         1 RES1    0.0000
     39 O3         7.9942    5.3545   22.0464 O.2       1 RES1    0.0000
     40 O4         5.8050    6.9074   22.3672 O.3       1 RES1    0.0000
     41 C13        5.0645    6.2736   21.2851 C.3       1 RES1    0.0000
     42 H22        5.6563    5.6771   20.7615 H         1 RES1    0.0000
     43 H23        4.6839    6.9559   20.6780 H         1 RES1    0.0000
     44 C14        3.9720    5.4864   21.9442 C.ar      1 RES1    0.0000
     45 C15        2.7608    6.0731   22.2512 C.ar      1 RES1    0.0000
     46 H24        2.5915    6.9728   21.9951 H         1 RES1    0.0000
     47 C16        1.7917    5.3517   22.9317 C.ar      1 RES1    0.0000
     48 H25        0.9581    5.7569   23.1413 H         1 RES1    0.0000
     49 C17        2.0355    4.0480   23.3041 C.ar      1 RES1    0.0000
     50 H26        1.3782    3.5607   23.7863 H         1 RES1    0.0000
     51 C18        3.2289    3.4549   22.9768 C.ar      1 RES1    0.0000
     52 H27        3.3907    2.5503   23.2190 H         1 RES1    0.0000
     53 C19        4.1945    4.1699   22.2970 C.ar      1 RES1    0.0000
     54 H28        5.0180    3.7529   22.0709 H         1 RES1    0.0000
     55 C20        6.5748   11.0789   20.9418 C.3       1 RES1    0.0000
     56 H29        6.1062   11.3035   21.7853 H         1 RES1    0.0000
     57 H30        7.5254   11.3289   21.0549 H         1 RES1    0.0000
     58 C21        5.9894   11.9223   19.8312 C.3       1 RES1    0.0000
     59 H31        5.0651   11.6177   19.6484 H         1 RES1    0.0000
     60 H32        6.5222   11.7869   19.0073 H         1 RES1    0.0000
     61 C22        5.9658   13.4103   20.1684 C.3       1 RES1    0.0000
     62 H33        5.4483   13.5359   21.0024 H         1 RES1    0.0000
     63 H34        6.8932   13.7087   20.3438 H         1 RES1    0.0000
     64 C23        5.3797   14.2830   19.1122 C.3       1 RES1    0.0000
     65 H35        4.4359   14.0508   18.9820 H         1 RES1    0.0000
     66 H36        5.8664   14.1511   18.2729 H         1 RES1    0.0000
     67 H37        5.4494   15.2208   19.3880 H         1 RES1    0.0000
@<TRIPOS>BOND
     1    1    2 1
     2    3    1 1
     3    4    3 2
     4    5    3 1
     5    6    5 1
     6    7    5 1
     7    8    7 1
     8    9    7 1
     9   10    9 2
    10   11    9 1
    11   12   11 1
    12   13   12 1
    13   14   12 1
    14   15   12 1
    15   16   11 1
    16   17   16 1
    17   18   16 1
    18   19   16 1
    19   20    7 1
    20   21   20 1
    21   22   21 1
    22   23   21 1
    23   24   21 1
    24   25   20 1
    25   26   25 1
    26   27   25 1
    27   28   25 1
    28   29   20 1
    29   30   29 1
    30   31   29 1
    31   32   29 1
    32   33    1 1
    33   34   33 1
    34   35   33 1
    35   36   33 1
    36   37   36 1
    37   38   37 1
    38   39   37 2
    39   40   36 1
    40   41   40 1
    41   42   41 1
    42   43   41 1
    43   44   41 1
    44   45   44 ar
    45   46   45 1
    46   47   45 ar
    47   48   47 1
    48   49   47 ar
    49   50   49 1
    50   51   49 ar
    51   52   51 1
    52   53   44 ar
    53   54   53 1
    54   55    1 1
    55   56   55 1
    56   57   55 1
    57   58   55 1
    58   59   58 1
    59   60   58 1
    60   61   58 1
    61   62   61 1
    62   63   61 1
    63   64   61 1
    64   65   64 1
    65   66   64 1
    66   67   64 1
    67   51   53 ar
@<TRIPOS>SUBSTRUCTURE
     1 RES1 1

@<TRIPOS>CRYSIN
  10.2470   12.0867   19.4269  90.0000  90.0000  90.0000  19 1

