# MOL2 file generated by ConQuest
# Please check atom types

@<TRIPOS>MOLECULE
SUZMIK
    29    29     1
SMALL
NO_CHARGES
****
Generated from CSD

@<TRIPOS>ATOM
      1 C1         2.6337    7.2644    9.3069 C.ar      1 RES1    0.0000
      2 C2         2.6267    8.6177    8.9548 C.ar      1 RES1    0.0000
      3 H1         3.1069    9.2236    9.4708 H         1 RES1    0.0000
      4 C3         1.9350    9.0694    7.8749 C.ar      1 RES1    0.0000
      5 H2         1.9490    9.9749    7.6638 H         1 RES1    0.0000
      6 C4         1.2130    8.1934    7.0905 C.ar      1 RES1    0.0000
      7 C5         1.1793    6.8539    7.4284 C.ar      1 RES1    0.0000
      8 H3         0.6790    6.2587    6.9188 H         1 RES1    0.0000
      9 C6         1.8868    6.3982    8.5209 C.ar      1 RES1    0.0000
     10 H4         1.8623    5.4937    8.7362 H         1 RES1    0.0000
     11 C7        -0.0394    7.8870    5.0744 C.3       1 RES1    0.0000
     12 H5        -0.7272    7.3812    5.5139 H         1 RES1    0.0000
     13 H6         0.6107    7.2879    4.7019 H         1 RES1    0.0000
     14 H7        -0.4280    8.4144    4.3719 H         1 RES1    0.0000
     15 C8         3.4490    6.8951   10.4303 C.2       1 RES1    0.0000
     16 H8         3.9037    7.5875   10.8525 H         1 RES1    0.0000
     17 C9         4.5525    5.4819   12.0383 C.3       1 RES1    0.0000
     18 H9         4.9757    6.3177   12.2884 H         1 RES1    0.0000
     19 H10        5.2447    4.8554   11.7754 H         1 RES1    0.0000
     20 C10        3.7798    4.9320   13.1950 C.2       1 RES1    0.0000
     21 C11        3.5322    3.1524   14.7118 C.3       1 RES1    0.0000
     22 H11        2.6167    3.0091   14.4615 H         1 RES1    0.0000
     23 H12        3.5682    3.7299   15.4771 H         1 RES1    0.0000
     24 H13        3.9423    2.3118   14.9255 H         1 RES1    0.0000
     25 N1         3.6264    5.7023   10.9263 N.pl3     1 RES1    0.0000
     26 O1         0.5875    8.7377    6.0089 O.3       1 RES1    0.0000
     27 O2         3.0337    4.6294   10.5125 O.2       1 RES1    0.0000
     28 O3         2.8396    5.4927   13.6948 O.2       1 RES1    0.0000
     29 O4         4.2419    3.7696   13.6095 O.3       1 RES1    0.0000
@<TRIPOS>BOND
     1    1    2 ar
     2    2    3 1
     3    4    2 ar
     4    5    4 1
     5    6    4 ar
     6    7    6 ar
     7    8    7 1
     8    9    1 ar
     9   10    9 1
    10   11   12 1
    11   13   11 1
    12   14   11 1
    13   15    1 1
    14   16   15 1
    15   17   18 1
    16   19   17 1
    17   20   17 1
    18   21   22 1
    19   23   21 1
    20   24   21 1
    21   25   15 2
    22   26    6 1
    23   27   25 1
    24   28   20 2
    25   29   20 1
    26    7    9 ar
    27   11   26 1
    28   17   25 1
    29   21   29 1
@<TRIPOS>SUBSTRUCTURE
     1 RES1 1

@<TRIPOS>CRYSIN
   4.3808    9.8207   25.7780  90.0000  90.0000  90.0000  19 1

