# MOL2 file generated by ConQuest
# Please check atom types

@<TRIPOS>MOLECULE
SUZSIQ
    53    57     1
SMALL
USER_CHARGES
****
Generated from CSD

@<TRIPOS>ATOM
      1 O1         3.2086   -4.0925    2.6349 O.3       1 RES1    0.0000
      2 O2         2.7792    6.6525    4.5460 O.3       1 RES1    0.0000
      3 O3         4.5354    5.6625    5.6871 O.3       1 RES1    0.0000
      4 O4         7.3490    3.1369    2.2289 O.2       1 RES1    0.0000
      5 O5         6.7668    3.4922    0.0854 O.3       1 RES1    0.0000
      6 O6         5.1318   -3.6528    1.5047 O.2       1 RES1   -1.0000
      7 O7         7.1345    0.4596    0.1787 O.2       1 RES1    0.0000
      8 N1         2.5129   -2.1275    3.0678 N.pl3     1 RES1    1.0000
      9 N2         2.1916   -3.3906    3.2353 N.2       1 RES1    0.0000
     10 C1         1.7328   -0.9900    5.0602 C.ar      1 RES1    0.0000
     11 H1         2.3617   -1.4689    5.5502 H         1 RES1    0.0000
     12 C2         0.9011   -0.0693    5.6826 C.ar      1 RES1    0.0000
     13 H2         0.9675    0.0781    6.5981 H         1 RES1    0.0000
     14 C3        -0.0304    0.6301    4.9269 C.ar      1 RES1    0.0000
     15 H3        -0.5870    1.2505    5.3411 H         1 RES1    0.0000
     16 C4        -0.1401    0.4136    3.5616 C.ar      1 RES1    0.0000
     17 H4        -0.7685    0.8908    3.0684 H         1 RES1    0.0000
     18 C5         0.6765   -0.5058    2.9245 C.ar      1 RES1    0.0000
     19 H5         0.6028   -0.6637    2.0110 H         1 RES1    0.0000
     20 C6         1.6078   -1.1815    3.6953 C.ar      1 RES1    0.0000
     21 C7         4.1558   -3.2185    2.0747 C.2       1 RES1    0.0000
     22 C8         3.6700   -1.9089    2.3855 C.2       1 RES1    0.0000
     23 C9         4.3153   -0.6519    2.0762 C.2       1 RES1    0.0000
     24 C10        3.7503    0.6689    2.5529 C.3       1 RES1    0.0000
     25 H6         3.3620    0.5493    3.4342 H         1 RES1    0.0000
     26 H7         3.0427    0.9478    1.9509 H         1 RES1    0.0000
     27 C11        4.8160    1.7672    2.6189 C.3       1 RES1    0.0000
     28 H8         5.4806    1.4965    3.2862 H         1 RES1    0.0000
     29 C12        5.5325    1.8806    1.2708 C.3       1 RES1    0.0000
     30 H9         4.8754    2.1364    0.5899 H         1 RES1    0.0000
     31 C13        6.1363    0.5236    0.8788 C.2       1 RES1    0.0000
     32 C14        5.4541   -0.6772    1.3361 C.2       1 RES1    0.0000
     33 H10        5.8157   -1.5036    1.1100 H         1 RES1    0.0000
     34 C15        4.2212    3.0925    3.0706 C.ar      1 RES1    0.0000
     35 C16        3.1651    3.6960    2.3826 C.ar      1 RES1    0.0000
     36 H11        2.8295    3.2799    1.6216 H         1 RES1    0.0000
     37 C17        2.5916    4.9115    2.8013 C.ar      1 RES1    0.0000
     38 H12        1.8871    5.3077    2.3413 H         1 RES1    0.0000
     39 C18        3.1324    5.4735    3.9253 C.ar      1 RES1    0.0000
     40 C19        3.5306    6.6823    5.7644 C.3       1 RES1    0.0000
     41 H13        2.9465    6.5189    6.5208 H         1 RES1    0.0000
     42 H14        3.9460    7.5511    5.8795 H         1 RES1    0.0000
     43 C20        4.1829    4.8853    4.6049 C.ar      1 RES1    0.0000
     44 C21        4.7529    3.7041    4.2101 C.ar      1 RES1    0.0000
     45 H15        5.4621    3.3257    4.6783 H         1 RES1    0.0000
     46 C22        6.6414    2.9050    1.2750 C.2       1 RES1    0.0000
     47 C23        7.9352    4.3644   -0.0700 C.3       1 RES1    0.0000
     48 H16        8.0746    4.8711    0.7454 H         1 RES1    0.0000
     49 H17        7.7801    4.9918   -0.7937 H         1 RES1    0.0000
     50 C24        9.1599    3.5373   -0.3689 C.3       1 RES1    0.0000
     51 H18        9.9314    4.1074   -0.4011 H         1 RES1    0.0000
     52 H19        9.0506    3.0985   -1.2162 H         1 RES1    0.0000
     53 H20        9.2771    2.8784    0.3196 H         1 RES1    0.0000
@<TRIPOS>BOND
     1    1    9 1
     2    2   39 1
     3    3   40 1
     4    4   46 2
     5    5   46 1
     6    6   21 1
     7    7   31 2
     8    8    9 2
     9   10   11 1
    10   12   10 ar
    11   13   12 1
    12   14   12 ar
    13   15   14 1
    14   16   14 ar
    15   17   16 1
    16   18   16 ar
    17   19   18 1
    18   20    8 1
    19   21    1 1
    20   22    8 1
    21   23   22 1
    22   24   23 1
    23   25   24 1
    24   26   24 1
    25   27   24 1
    26   28   27 1
    27   29   27 1
    28   30   29 1
    29   31   29 1
    30   32   23 2
    31   33   32 1
    32   34   27 1
    33   35   34 ar
    34   36   35 1
    35   37   35 ar
    36   38   37 1
    37   39   37 ar
    38   40    2 1
    39   41   40 1
    40   42   40 1
    41   43    3 1
    42   44   34 ar
    43   45   44 1
    44   46   29 1
    45   47    5 1
    46   48   47 1
    47   49   47 1
    48   50   47 1
    49   51   50 1
    50   52   50 1
    51   53   50 1
    52   10   20 ar
    53   18   20 ar
    54   21   22 2
    55   31   32 1
    56   39   43 ar
    57   43   44 ar
@<TRIPOS>SUBSTRUCTURE
     1 RES1 1

@<TRIPOS>CRYSIN
   8.8026   11.5133   11.6981  66.8600  86.5450  71.1150   2 1

