# MOL2 file generated by ConQuest
# Please check atom types

@<TRIPOS>MOLECULE
TABFEH
    21    22     1
SMALL
NO_CHARGES
****
Generated from CSD

@<TRIPOS>ATOM
      1 O1         0.8848    7.6969   14.7372 O.3       1 RES1    0.0000
      2 O2         1.2203    7.9916   17.4909 O.3       1 RES1    0.0000
      3 O3         1.5302    5.4621   18.8927 O.3       1 RES1    0.0000
      4 O4         3.4428    3.7786   17.5139 O.3       1 RES1    0.0000
      5 O5         1.8808    5.6195   14.8059 O.3       1 RES1    0.0000
      6 O6         4.0088    2.7621   15.4514 O.3       1 RES1    0.0000
      7 O7         0.1113    9.8559   17.4356 O.2       1 RES1    0.0000
      8 O8        -1.0040    8.0490   17.0842 O.2       1 RES1    0.0000
      9 O9         1.1894    5.9505   20.9666 O.2       1 RES1    0.0000
     10 O10        2.7823    7.0018   19.9392 O.2       1 RES1    0.0000
     11 N1        -0.0230    8.7127   17.3000 N.pl3     1 RES1    0.0000
     12 N2         1.8667    6.2154   20.0385 N.pl3     1 RES1    0.0000
     13 C1         1.7969    6.9170   15.4094 C.3       1 RES1    0.0000
     14 C2         1.2698    6.7071   16.8416 C.3       1 RES1    0.0000
     15 C3         2.2022    5.8327   17.6533 C.3       1 RES1    0.0000
     16 C4         2.4380    4.5432   16.8894 C.3       1 RES1    0.0000
     17 C5         2.8645    4.8791   15.4628 C.3       1 RES1    0.0000
     18 C6         3.0561    3.5445   14.7314 C.3       1 RES1    0.0000
     19 C7         3.6159    2.5377   16.7882 C.3       1 RES1    0.0000
     20 C8         4.6764    1.7335   17.4623 C.3       1 RES1    0.0000
     21 C9         1.3837    8.1830   13.5054 C.3       1 RES1    0.0000
@<TRIPOS>BOND
     1    1   13 1
     2    2   11 1
     3    3   12 1
     4    4   16 1
     5    5   13 1
     6    6   18 1
     7    7   11 2
     8    8   11 2
     9    9   12 2
    10   10   12 2
    11   13   14 1
    12   14    2 1
    13   15    3 1
    14   16   15 1
    15   17    5 1
    16   18   17 1
    17   19    4 1
    18   20   19 1
    19   21    1 1
    20    6   19 1
    21   14   15 1
    22   16   17 1
@<TRIPOS>SUBSTRUCTURE
     1 RES1 1

@<TRIPOS>CRYSIN
   8.8300    8.0740   19.0970  90.0000  90.0000  90.0000  19 1

