# MOL2 file generated by ConQuest
# Please check atom types

@<TRIPOS>MOLECULE
TABMOB
    48    51     1
SMALL
NO_CHARGES
****
Generated from CSD

@<TRIPOS>ATOM
      1 O1         2.1478    2.0843    7.5109 O.2       1 RES1    0.0000
      2 O2         5.3923    5.0358    8.6987 O.2       1 RES1    0.0000
      3 O3         4.3665    2.0095    7.2838 O.3       1 RES1    0.0000
      4 N1         3.4985    3.8336    8.2071 N.am      1 RES1    0.0000
      5 N2         7.8717    0.1647    9.1096 N.pl3     1 RES1    0.0000
      6 C1         3.2079    2.5914    7.6596 C.2       1 RES1    0.0000
      7 C2         4.8479    4.0662    8.2560 C.2       1 RES1    0.0000
      8 C3         5.5000    2.8268    7.6441 C.3       1 RES1    0.0000
      9 C4         6.3120    3.1520    6.4036 C.ar      1 RES1    0.0000
     10 C5         7.3409    4.0928    6.4763 C.ar      1 RES1    0.0000
     11 H1         7.4866    4.5615    7.2667 H         1 RES1    0.0000
     12 C6         8.1414    4.3283    5.3786 C.ar      1 RES1    0.0000
     13 H2         8.8232    4.9584    5.4298 H         1 RES1    0.0000
     14 C7         7.9355    3.6373    4.2155 C.ar      1 RES1    0.0000
     15 H3         8.4836    3.7921    3.4798 H         1 RES1    0.0000
     16 C8         6.9317    2.7285    4.1358 C.ar      1 RES1    0.0000
     17 H4         6.7978    2.2664    3.3393 H         1 RES1    0.0000
     18 C9         6.1031    2.4753    5.2143 C.ar      1 RES1    0.0000
     19 H5         5.4126    1.8573    5.1405 H         1 RES1    0.0000
     20 C10        6.3294    2.1050    8.7465 C.3       1 RES1    0.0000
     21 H6         7.0661    2.7009    8.9965 H         1 RES1    0.0000
     22 C11        6.9458    0.8446    8.1489 C.3       1 RES1    0.0000
     23 H7         6.2380    0.2300    7.9001 H         1 RES1    0.0000
     24 H8         7.4349    1.0779    7.3453 H         1 RES1    0.0000
     25 C12        5.5064    1.8573    9.9906 C.ar      1 RES1    0.0000
     26 C13        4.5670    0.8469   10.0620 C.ar      1 RES1    0.0000
     27 H9         4.4398    0.2852    9.3311 H         1 RES1    0.0000
     28 C14        3.8091    0.6578   11.2132 C.ar      1 RES1    0.0000
     29 H10        3.1750   -0.0221   11.2370 H         1 RES1    0.0000
     30 C15        3.9818    1.4405   12.2859 C.ar      1 RES1    0.0000
     31 H11        3.4823    1.3001   13.0573 H         1 RES1    0.0000
     32 C16        4.8906    2.4367   12.2323 C.ar      1 RES1    0.0000
     33 H12        5.0068    2.9883   12.9716 H         1 RES1    0.0000
     34 C17        5.6557    2.6544   11.0930 C.ar      1 RES1    0.0000
     35 H13        6.2754    3.3487   11.0787 H         1 RES1    0.0000
     36 C18        2.5096    4.6975    8.7965 C.ar      1 RES1    0.0000
     37 C19        1.9100    4.3283    9.9787 C.ar      1 RES1    0.0000
     38 H14        2.1172    3.5179   10.3846 H         1 RES1    0.0000
     39 C20        0.9864    5.1994   10.5525 C.ar      1 RES1    0.0000
     40 H15        0.5753    4.9805   11.3573 H         1 RES1    0.0000
     41 C21        0.6860    6.3791    9.9239 C.ar      1 RES1    0.0000
     42 H16        0.0513    6.9462   10.2977 H         1 RES1    0.0000
     43 C22        1.2908    6.7306    8.7787 C.ar      1 RES1    0.0000
     44 H17        1.0791    7.5432    8.3775 H         1 RES1    0.0000
     45 C23        2.2252    5.8960    8.1918 C.ar      1 RES1    0.0000
     46 H18        2.6524    6.1425    7.4025 H         1 RES1    0.0000
     47 O4         8.3122    0.7849   10.0513 O.2       1 RES1    0.0000
     48 O5         8.1828   -0.9453    8.8346 O.2       1 RES1    0.0000
@<TRIPOS>BOND
     1    1    6 2
     2    2    7 2
     3    3    6 1
     4    4    6 1
     5    5   22 1
     6    7    4 1
     7    8    3 1
     8    9    8 1
     9   10    9 ar
    10   11   10 1
    11   12   10 ar
    12   13   12 1
    13   14   12 ar
    14   15   14 1
    15   16   14 ar
    16   17   16 1
    17   18    9 ar
    18   19   18 1
    19   20    8 1
    20   21   20 1
    21   22   20 1
    22   23   22 1
    23   24   22 1
    24   25   20 1
    25   26   25 ar
    26   27   26 1
    27   28   26 ar
    28   29   28 1
    29   30   28 ar
    30   31   30 1
    31   32   30 ar
    32   33   32 1
    33   34   25 ar
    34   35   34 1
    35   36    4 1
    36   37   36 ar
    37   38   37 1
    38   39   37 ar
    39   40   39 1
    40   41   39 ar
    41   42   41 1
    42   43   41 ar
    43   44   43 1
    44   45   36 ar
    45   46   45 1
    46   47    5 2
    47   48    5 2
    48    7    8 1
    49   16   18 ar
    50   32   34 ar
    51   43   45 ar
@<TRIPOS>SUBSTRUCTURE
     1 RES1 1

@<TRIPOS>CRYSIN
   7.6839   11.0556   12.4153  90.0000 106.4860  90.0000   4 1

