# MOL2 file generated by ConQuest
# Please check atom types

@<TRIPOS>MOLECULE
TABRET
    20    21     1
SMALL
NO_CHARGES
****
Generated from CSD

@<TRIPOS>ATOM
      1 O1         5.2840    1.5637    1.3136 O.2       1 RES1    0.0000
      2 O2         3.2641    1.5637    0.5491 O.2       1 RES1    0.0000
      3 O3         4.4521    1.5638    3.7782 O.3       1 RES1    0.0000
      4 N1         4.0732    1.5637    1.4600 N.pl3     1 RES1    0.0000
      5 N2         5.5900    1.5638    6.3235 N.2       1 RES1    0.0000
      6 N3         6.0334    1.5638    7.6395 N.pl3     1 RES1    0.0000
      7 N4         5.2170    1.5638    8.7236 N.2       1 RES1    0.0000
      8 N5         7.3983    1.5638    9.3289 N.2       1 RES1    0.0000
      9 C1         3.5450    1.5638    2.7795 C.2       1 RES1    0.0000
     10 C2         2.2804    1.5638    3.2033 C.2       1 RES1    0.0000
     11 C3         2.3808    1.5638    4.6059 C.2       1 RES1    0.0000
     12 C4         3.6932    1.5638    4.9209 C.2       1 RES1    0.0000
     13 C5         4.3242    1.5638    6.2041 C.2       1 RES1    0.0000
     14 C6         6.0955    1.5638    9.6942 C.2       1 RES1    0.0000
     15 C7         7.3110    1.5638    8.0200 C.2       1 RES1    0.0000
     16 H1         1.5227    1.5638    2.5395 H         1 RES1    0.0000
     17 H2         1.6589    1.5638    5.2803 H         1 RES1    0.0000
     18 H3         3.6382    1.5638    6.8796 H         1 RES1    0.0000
     19 H4         5.7943    1.5638   10.5829 H         1 RES1    0.0000
     20 H5         8.0509    1.5638    7.4006 H         1 RES1    0.0000
@<TRIPOS>BOND
     1    1    4 2
     2    2    4 2
     3    3    9 1
     4    4    9 1
     5    5    6 1
     6    6    7 1
     7    7   14 2
     8    8   14 1
     9    9   10 2
    10   10   11 1
    11   11   12 2
    12   12    3 1
    13   13    5 2
    14   14   19 1
    15   15    6 1
    16   16   10 1
    17   17   11 1
    18   18   13 1
    19   20   15 1
    20    8   15 2
    21   12   13 1
@<TRIPOS>SUBSTRUCTURE
     1 RES1 1

@<TRIPOS>CRYSIN
  11.9520    6.2550   11.7080  90.0000  90.0000  90.0000  62 1

