# MOL2 file generated by ConQuest
# Please check atom types

@<TRIPOS>MOLECULE
TACKUD
    68    69     1
SMALL
NO_CHARGES
****
Generated from CSD

@<TRIPOS>ATOM
      1 O1         8.3131   -2.5587   -2.0523 O.2       1 RES1    0.0000
      2 O2         6.0570    6.7273    6.2785 O.2       1 RES1    0.0000
      3 O3         4.4534   -0.9066   -3.8041 O.3       1 RES1    0.0000
      4 O4         7.5903    5.4481    2.3440 O.3       1 RES1    0.0000
      5 N1         7.3787   -1.6930   -2.2534 N.3       1 RES1    0.0000
      6 N2         6.0784    6.6905    4.9910 N.3       1 RES1    0.0000
      7 C1         7.4985   -0.9064   -3.5123 C.3       1 RES1    0.0000
      8 C2         5.2310    5.6583    4.3653 C.3       1 RES1    0.0000
      9 C3         6.5514    0.2893   -3.4614 C.3       1 RES1    0.0000
     10 C4         5.2206    5.7876    2.8431 C.3       1 RES1    0.0000
     11 C5         5.1604    0.0061   -2.9623 C.3       1 RES1    0.0000
     12 C6         6.4723    6.3094    2.1851 C.3       1 RES1    0.0000
     13 C7         5.2571   -0.6077   -1.5768 C.3       1 RES1    0.0000
     14 C8         6.8199    7.6333    2.8407 C.3       1 RES1    0.0000
     15 C9         6.1442   -1.8468   -1.4464 C.3       1 RES1    0.0000
     16 C10        7.0414    7.6083    4.3454 C.3       1 RES1    0.0000
     17 C11        7.2200   -1.8179   -4.7067 C.3       1 RES1    0.0000
     18 C12        5.8146    4.2988    4.7787 C.3       1 RES1    0.0000
     19 C13        8.9352   -0.3911   -3.5806 C.3       1 RES1    0.0000
     20 C14        3.8274    5.7768    4.9115 C.3       1 RES1    0.0000
     21 C15        5.4309   -3.1304   -1.8884 C.3       1 RES1    0.0000
     22 C16        8.4594    7.1533    4.6992 C.3       1 RES1    0.0000
     23 C17        6.5956   -1.9970    0.0174 C.3       1 RES1    0.0000
     24 C18        6.7967    9.0068    4.9327 C.3       1 RES1    0.0000
     25 C19        4.3167    1.3086   -2.9313 C.3       1 RES1    0.0000
     26 C20        6.2253    6.5659    0.6878 C.3       1 RES1    0.0000
     27 C21        4.8290    2.3899   -2.1044 C.1       1 RES1    0.0000
     28 C22        5.8925    5.3659   -0.0670 C.1       1 RES1    0.0000
     29 C23        5.2117    3.3015   -1.4414 C.1       1 RES1    0.0000
     30 C24        5.6012    4.3912   -0.6866 C.1       1 RES1    0.0000
     31 H1         4.3423   -0.5297   -4.5440 H         1 RES1    0.0000
     32 H2         7.3249    4.6995    2.0610 H         1 RES1    0.0000
     33 H3         6.9592    0.9757   -2.8928 H         1 RES1    0.0000
     34 H4         4.9168    5.0281    2.4583 H         1 RES1    0.0000
     35 H5         6.5562    0.7181   -4.3702 H         1 RES1    0.0000
     36 H6         4.4932    6.3813    2.6197 H         1 RES1    0.0000
     37 H7         5.6094    0.0880   -0.9684 H         1 RES1    0.0000
     38 H8         7.6050    7.9491    2.4831 H         1 RES1    0.0000
     39 H9         4.3549   -0.8422   -1.2788 H         1 RES1    0.0000
     40 H10        6.0723    8.2381    2.6197 H         1 RES1    0.0000
     41 H11        6.2611   -2.1987   -4.6930 H         1 RES1    0.0000
     42 H12        5.7678    4.1522    5.7359 H         1 RES1    0.0000
     43 H13        7.3199   -1.3323   -5.5621 H         1 RES1    0.0000
     44 H14        6.9826    4.1832    4.4199 H         1 RES1    0.0000
     45 H15        5.3874    3.4953    4.4820 H         1 RES1    0.0000
     46 H16        7.7486   -2.5022   -4.6806 H         1 RES1    0.0000
     47 H17        3.7870    5.6217    5.9842 H         1 RES1    0.0000
     48 H18        9.0846    0.1865   -4.4199 H         1 RES1    0.0000
     49 H19        3.7753    6.7428    4.6185 H         1 RES1    0.0000
     50 H20        9.5048   -1.0382   -3.6005 H         1 RES1    0.0000
     51 H21        3.2127    5.1318    4.3082 H         1 RES1    0.0000
     52 H22        9.1579    0.1512   -2.8059 H         1 RES1    0.0000
     53 H23        8.6054    7.2303    5.5994 H         1 RES1    0.0000
     54 H24        4.6313   -3.2674   -1.3533 H         1 RES1    0.0000
     55 H25        9.2176    7.7250    4.3206 H         1 RES1    0.0000
     56 H26        5.0101   -3.0867   -2.7438 H         1 RES1    0.0000
     57 H27        8.5572    6.3824    4.2833 H         1 RES1    0.0000
     58 H28        6.1263   -3.8602   -1.8871 H         1 RES1    0.0000
     59 H29        5.7213    9.1185    4.6930 H         1 RES1    0.0000
     60 H30        7.0169   -1.0748    0.2856 H         1 RES1    0.0000
     61 H31        7.2900    9.6731    4.4323 H         1 RES1    0.0000
     62 H32        5.7375   -2.0379    0.5463 H         1 RES1    0.0000
     63 H33        6.9841    9.1327    5.8725 H         1 RES1    0.0000
     64 H34        7.1893   -2.7375    0.1242 H         1 RES1    0.0000
     65 H35        5.4867    7.2891    0.5835 H         1 RES1    0.0000
     66 H36        3.4853    0.9587   -2.5700 H         1 RES1    0.0000
     67 H37        7.0433    6.9647    0.3228 H         1 RES1    0.0000
     68 H38        4.2458    1.5716   -3.8860 H         1 RES1    0.0000
@<TRIPOS>BOND
     1    1    5 1
     2    2    6 1
     3    3   11 1
     4    4   12 1
     5    5    7 1
     6    6    8 1
     7    7    9 1
     8    8   10 1
     9    9   11 1
    10   10   12 1
    11   11   13 1
    12   12   14 1
    13   13   15 1
    14   14   16 1
    15   15    5 1
    16   16    6 1
    17   17    7 1
    18   18    8 1
    19   19    7 1
    20   20    8 1
    21   21   15 1
    22   22   16 1
    23   23   15 1
    24   24   16 1
    25   25   11 1
    26   26   12 1
    27   27   25 1
    28   28   26 1
    29   29   27 3
    30   30   28 3
    31   31    3 1
    32   32    4 1
    33   33    9 1
    34   34   10 1
    35   35    9 1
    36   36   10 1
    37   37   13 1
    38   38   14 1
    39   39   13 1
    40   40   14 1
    41   41   17 1
    42   42   18 1
    43   43   17 1
    44   44   18 1
    45   45   18 1
    46   46   17 1
    47   47   20 1
    48   48   19 1
    49   49   20 1
    50   50   19 1
    51   51   20 1
    52   52   19 1
    53   53   22 1
    54   54   21 1
    55   55   22 1
    56   56   21 1
    57   57   22 1
    58   58   21 1
    59   59   24 1
    60   60   23 1
    61   61   24 1
    62   62   23 1
    63   63   24 1
    64   64   23 1
    65   65   26 1
    66   66   25 1
    67   67   26 1
    68   68   25 1
    69   29   30 1
@<TRIPOS>SUBSTRUCTURE
     1 RES1 1

@<TRIPOS>CRYSIN
   7.9680   12.3800   13.8910  64.2500  83.2600  89.2200   2 1

