# MOL2 file generated by ConQuest
# Please check atom types

@<TRIPOS>MOLECULE
TACWID
    43    44     1
SMALL
NO_CHARGES
****
Generated from CSD

@<TRIPOS>ATOM
      1 C1        -7.2877   -2.4566   12.9452 C.ar      1 RES1    0.0000
      2 C2        -7.9895   -3.4513   13.6747 C.ar      1 RES1    0.0000
      3 C3        -9.0783   -3.0181   14.4226 C.ar      1 RES1    0.0000
      4 C4        -9.5322   -1.7152   14.4518 C.ar      1 RES1    0.0000
      5 C5        -8.8043   -0.7951   13.7361 C.ar      1 RES1    0.0000
      6 C6        -7.6803   -1.1241   12.9974 C.ar      1 RES1    0.0000
      7 C7        -5.2278   -2.1901   11.5584 C.2       1 RES1    0.0000
      8 C8        -4.0924   -3.0620   11.0209 C.3       1 RES1    0.0000
      9 C9        -3.5060   -2.5279    9.7154 C.3       1 RES1    0.0000
     10 C10       -2.1149   -3.1190    9.7001 C.3       1 RES1    0.0000
     11 C11       -1.6482   -2.9721   11.1268 C.3       1 RES1    0.0000
     12 C12       -2.8965   -2.9699   11.9838 C.3       1 RES1    0.0000
     13 C13       -8.5593   -5.8509   13.4474 C.3       1 RES1    0.0000
     14 C14       -6.3575   -5.1391   14.2906 C.3       1 RES1    0.0000
     15 N1        -7.5626   -4.7838   13.5442 N.3       1 RES1    0.0000
     16 N2        -9.7221   -3.9404   15.3810 N.pl3     1 RES1    0.0000
     17 N3        -9.2090    0.6163   13.7945 N.pl3     1 RES1    0.0000
     18 N4        -6.2193   -2.9019   12.1573 N.am      1 RES1    0.0000
     19 N5        -4.5411   -4.4625   10.9149 N.3       1 RES1    0.0000
     20 O1        -8.9929   -4.5820   16.1135 O.2       1 RES1    0.0000
     21 O2       -10.9322   -3.9580   15.4409 O.2       1 RES1    0.0000
     22 O3       -10.2680    0.8927   14.3136 O.2       1 RES1    0.0000
     23 O4        -8.4892    1.4411   13.2938 O.2       1 RES1    0.0000
     24 O5        -5.2026   -0.9695   11.5108 O.2       1 RES1    0.0000
     25 H1        -6.1185   -3.7288   12.0713 H         1 RES1    0.0000
     26 H2        -3.8992   -5.0010   11.1191 H         1 RES1    0.0000
     27 H3        -4.8179   -4.6281   10.1055 H         1 RES1    0.0000
     28 H4       -10.3160   -1.4641   14.9463 H         1 RES1    0.0000
     29 H5        -7.1845   -0.4475   12.5321 H         1 RES1    0.0000
     30 H6        -3.4740   -1.5683    9.7185 H         1 RES1    0.0000
     31 H7        -4.0145   -2.8284    8.9598 H         1 RES1    0.0000
     32 H8        -1.5435   -2.6321    9.0996 H         1 RES1    0.0000
     33 H9        -2.1372   -4.0424    9.4405 H         1 RES1    0.0000
     34 H10       -1.0815   -3.7079   11.3664 H         1 RES1    0.0000
     35 H11       -1.1693   -2.1484   11.2359 H         1 RES1    0.0000
     36 H12       -2.8918   -3.7233   12.5781 H         1 RES1    0.0000
     37 H13       -2.9456   -2.1594   12.4952 H         1 RES1    0.0000
     38 H14       -8.1169   -6.6986   13.3660 H         1 RES1    0.0000
     39 H15       -9.1100   -5.7039   12.6764 H         1 RES1    0.0000
     40 H16       -9.1047   -5.8509   14.2368 H         1 RES1    0.0000
     41 H17       -6.1475   -6.0626   14.1385 H         1 RES1    0.0000
     42 H18       -6.5084   -4.9955   15.2289 H         1 RES1    0.0000
     43 H19       -5.6259   -4.5919   13.9957 H         1 RES1    0.0000
@<TRIPOS>BOND
     1    1    2 ar
     2    2    3 ar
     3    3    4 ar
     4    4    5 ar
     5    5    6 ar
     6    6    1 ar
     7    7    8 1
     8    8    9 1
     9    9   10 1
    10   10   11 1
    11   11   12 1
    12   12    8 1
    13   13   15 1
    14   14   15 1
    15   15    2 1
    16   16    3 1
    17   17    5 1
    18   18    1 1
    19   19    8 1
    20   20   16 2
    21   21   16 2
    22   22   17 2
    23   23   17 2
    24   24    7 2
    25   25   18 1
    26   26   19 1
    27   27   19 1
    28   28    4 1
    29   29    6 1
    30   30    9 1
    31   31    9 1
    32   32   10 1
    33   33   10 1
    34   34   11 1
    35   35   11 1
    36   36   12 1
    37   37   12 1
    38   38   13 1
    39   39   13 1
    40   40   13 1
    41   41   14 1
    42   42   14 1
    43   43   14 1
    44    7   18 1
@<TRIPOS>SUBSTRUCTURE
     1 RES1 1

@<TRIPOS>CRYSIN
  19.0590   10.9670   19.0100  90.0000 126.1100  90.0000  15 1

