# MOL2 file generated by ConQuest
# Please check atom types

@<TRIPOS>MOLECULE
TACWOJ
    39    41     1
SMALL
NO_CHARGES
****
Generated from CSD

@<TRIPOS>ATOM
      1 C1         0.9448   -3.4484    5.5750 C.3       1 RES1    0.0000
      2 N1         0.9546   -2.0934    4.9869 N.3       1 RES1    0.0000
      3 C2         0.0445   -1.1647    5.2675 C.ar      1 RES1    0.0000
      4 C3         0.1705    0.2322    5.1176 C.ar      1 RES1    0.0000
      5 C4        -0.8290    1.1193    5.4243 C.ar      1 RES1    0.0000
      6 C5        -1.9877    0.6074    5.8802 C.ar      1 RES1    0.0000
      7 C6        -2.1949   -0.7656    6.0309 C.ar      1 RES1    0.0000
      8 C7        -1.1966   -1.6487    5.7264 C.ar      1 RES1    0.0000
      9 N2        -1.4569   -3.0162    5.7864 N.2       1 RES1    0.0000
     10 C8        -0.5024   -3.8702    5.6665 C.2       1 RES1    0.0000
     11 C9         1.6318   -3.4284    6.9503 C.3       1 RES1    0.0000
     12 C10        3.0778   -3.5941    6.5905 C.3       1 RES1    0.0000
     13 C11        3.0565   -4.6625    5.5243 C.3       1 RES1    0.0000
     14 C12        1.8620   -4.3089    4.6671 C.3       1 RES1    0.0000
     15 N3         1.3909    0.8180    4.6440 N.pl3     1 RES1    0.0000
     16 O1         2.2183    0.0934    4.1236 O.2       1 RES1    0.0000
     17 O2         1.5524    2.0250    4.7778 O.2       1 RES1    0.0000
     18 N4        -3.0646    1.5295    6.1608 N.pl3     1 RES1    0.0000
     19 O3        -4.1526    1.0625    6.3814 O.2       1 RES1    0.0000
     20 O4        -2.8451    2.7308    6.1562 O.2       1 RES1    0.0000
     21 N5        -0.8358   -5.1799    5.6265 N.3       1 RES1    0.0000
     22 C13       -2.2453   -5.5108    5.5958 C.3       1 RES1    0.0000
     23 C14       -0.0145   -6.2847    6.0924 C.3       1 RES1    0.0000
     24 H1         1.6403   -1.7696    4.6663 H         1 RES1    0.0000
     25 H2        -0.7113    2.0643    5.3198 H         1 RES1    0.0000
     26 H3        -3.0399   -1.0853    6.3476 H         1 RES1    0.0000
     27 H4         1.3258   -4.1532    7.4907 H         1 RES1    0.0000
     28 H5         1.4785   -2.5956    7.4200 H         1 RES1    0.0000
     29 H6         3.5903   -3.8689    7.3524 H         1 RES1    0.0000
     30 H7         3.8648   -4.6506    5.0054 H         1 RES1    0.0000
     31 H8         2.9456   -5.5280    5.9102 H         1 RES1    0.0000
     32 H9         2.1414   -3.8114    3.9014 H         1 RES1    0.0000
     33 H10        1.4052   -5.1059    4.3711 H         1 RES1    0.0000
     34 H11       -2.3505   -6.4657    5.5719 H         1 RES1    0.0000
     35 H12       -2.6468   -5.1400    4.8109 H         1 RES1    0.0000
     36 H13       -2.6727   -5.1464    6.3845 H         1 RES1    0.0000
     37 H14        0.9089   -6.0233    6.0924 H         1 RES1    0.0000
     38 H15       -0.1349   -7.0474    5.5058 H         1 RES1    0.0000
     39 H16       -0.2785   -6.5099    6.9872 H         1 RES1    0.0000
@<TRIPOS>BOND
     1    1    2 1
     2    2    3 1
     3    3    4 ar
     4    4    5 ar
     5    5    6 ar
     6    6    7 ar
     7    7    8 ar
     8    8    3 ar
     9    9    8 1
    10   10    1 1
    11   11    1 1
    12   12   11 1
    13   13   12 1
    14   14    1 1
    15   15    4 1
    16   16   15 2
    17   17   15 2
    18   18    6 1
    19   19   18 2
    20   20   18 2
    21   21   10 1
    22   22   21 1
    23   23   21 1
    24   24    2 1
    25   25    5 1
    26   26    7 1
    27   27   11 1
    28   28   11 1
    29   29   12 1
    30   30   13 1
    31   31   13 1
    32   32   14 1
    33   33   14 1
    34   34   22 1
    35   35   22 1
    36   36   22 1
    37   37   23 1
    38   38   23 1
    39   39   23 1
    40    9   10 2
    41   13   14 1
@<TRIPOS>SUBSTRUCTURE
     1 RES1 1

@<TRIPOS>CRYSIN
   8.8670   11.4130    8.2140 105.3700 107.1800  74.2100   2 1

