# MOL2 file generated by ConQuest
# Please check atom types

@<TRIPOS>MOLECULE
TACYOO
    42    44     1
SMALL
NO_CHARGES
****
Generated from CSD

@<TRIPOS>ATOM
      1 O1         0.9666   11.9014    0.7345 O.3       1 RES1    0.0000
      2 C1         1.4201   10.6188    1.0627 C.3       1 RES1    0.0000
      3 H1         1.9144   10.2114    0.3202 H         1 RES1    0.0000
      4 C2         2.2882   10.7323    2.3251 C.3       1 RES1    0.0000
      5 H2         3.2327   10.5469    2.1418 H         1 RES1    0.0000
      6 C3         2.0608   12.1918    2.7868 C.3       1 RES1    0.0000
      7 H3         2.8375   12.7279    2.5226 H         1 RES1    0.0000
      8 C4         0.8455   12.6422    1.9508 C.3       1 RES1    0.0000
      9 H4         0.0138   12.4025    2.4101 H         1 RES1    0.0000
     10 C5         0.8268   14.1054    1.5661 C.3       1 RES1    0.0000
     11 H5         1.6623   14.3438    1.1120 H         1 RES1    0.0000
     12 C6        -0.3638   14.4662    0.6878 C.3       1 RES1    0.0000
     13 H6        -0.1343   15.1663    0.0563 H         1 RES1    0.0000
     14 H7        -0.6869   13.6917    0.2012 H         1 RES1    0.0000
     15 O2        -1.3288   14.9198    1.6313 O.3       1 RES1    0.0000
     16 C7        -0.6000   15.6028    2.6492 C.3       1 RES1    0.0000
     17 O3         0.6589   14.9069    2.7292 O.3       1 RES1    0.0000
     18 C8        -0.3506   17.0471    2.2825 C.3       1 RES1    0.0000
     19 H8        -1.1884   17.5113    2.2219 H         1 RES1    0.0000
     20 H9         0.1013   17.0900    1.4366 H         1 RES1    0.0000
     21 H10        0.1949   17.4583    2.9575 H         1 RES1    0.0000
     22 C9        -1.3365   15.4438    3.9509 C.3       1 RES1    0.0000
     23 H11       -1.3926   14.5129    4.1755 H         1 RES1    0.0000
     24 H12       -2.2210   15.8058    3.8640 H         1 RES1    0.0000
     25 H13       -0.8653   15.9118    4.6450 H         1 RES1    0.0000
     26 O4         0.3341    9.8028    1.4753 O.3       1 RES1    0.0000
     27 C10        0.8350    8.9512    2.5010 C.3       1 RES1    0.0000
     28 O5         1.7234    9.7963    3.2409 O.3       1 RES1    0.0000
     29 C11        1.5891    7.7743    1.8848 C.3       1 RES1    0.0000
     30 H14        1.9414    7.2192    2.5832 H         1 RES1    0.0000
     31 H15        2.3107    8.1048    1.3435 H         1 RES1    0.0000
     32 H16        0.9897    7.2608    1.3392 H         1 RES1    0.0000
     33 C12       -0.2758    8.5059    3.3902 C.3       1 RES1    0.0000
     34 H17       -0.7002    9.2741    3.7818 H         1 RES1    0.0000
     35 H18        0.0760    7.9458    4.0868 H         1 RES1    0.0000
     36 H19       -0.9192    8.0127    2.8774 H         1 RES1    0.0000
     37 C13        1.8242   12.3798    4.2621 C.3       1 RES1    0.0000
     38 H20        1.5737   13.3031    4.4222 H         1 RES1    0.0000
     39 H21        1.0783   11.8222    4.5325 H         1 RES1    0.0000
     40 N1         3.0098   12.0468    5.1140 N.pl3     1 RES1    0.0000
     41 O6         4.0556   11.7087    4.5725 O.2       1 RES1    0.0000
     42 O7         2.8617   12.1300    6.3120 O.2       1 RES1    0.0000
@<TRIPOS>BOND
     1    1    2 1
     2    2    3 1
     3    4    2 1
     4    5    4 1
     5    6    4 1
     6    7    6 1
     7    8    1 1
     8    9    8 1
     9   10    8 1
    10   11   10 1
    11   12   10 1
    12   13   12 1
    13   14   12 1
    14   15   12 1
    15   16   15 1
    16   17   10 1
    17   18   16 1
    18   19   18 1
    19   20   18 1
    20   21   18 1
    21   22   16 1
    22   23   22 1
    23   24   22 1
    24   25   22 1
    25   26    2 1
    26   27   26 1
    27   28    4 1
    28   29   27 1
    29   30   29 1
    30   31   29 1
    31   32   29 1
    32   33   27 1
    33   34   33 1
    34   35   33 1
    35   36   33 1
    36   37    6 1
    37   38   37 1
    38   39   37 1
    39   40   37 1
    40   41   40 2
    41   42   40 2
    42    6    8 1
    43   16   17 1
    44   27   28 1
@<TRIPOS>SUBSTRUCTURE
     1 RES1 1

@<TRIPOS>CRYSIN
   5.5044   12.6144   21.6348  90.0000  90.0000  90.0000  19 1

