# MOL2 file generated by ConQuest
# Please check atom types

@<TRIPOS>MOLECULE
TADVEA
    28    28     1
SMALL
NO_CHARGES
****
Generated from CSD

@<TRIPOS>ATOM
      1 O1        -4.2350    8.0738    2.6147 O.3       1 RES1    0.0000
      2 C1        -4.3562    7.5126    3.9174 C.3       1 RES1    0.0000
      3 C2        -3.3236    8.0944    4.8565 C.3       1 RES1    0.0000
      4 H1        -3.4402    7.7185    5.7331 H         1 RES1    0.0000
      5 H2        -3.4321    9.0469    4.9012 H         1 RES1    0.0000
      6 H3        -2.4436    7.8867    4.5338 H         1 RES1    0.0000
      7 C3        -5.7680    7.7990    4.3518 C.3       1 RES1    0.0000
      8 H4        -5.9025    7.4644    5.2418 H         1 RES1    0.0000
      9 H5        -6.3812    7.3678    3.7521 H         1 RES1    0.0000
     10 H6        -5.9207    8.7465    4.3395 H         1 RES1    0.0000
     11 O2        -4.2347    6.0826    3.8402 O.3       1 RES1    0.0000
     12 C4        -3.2031    5.5549    3.1133 C.2       1 RES1    0.0000
     13 O3        -3.0437    4.3517    3.2119 O.2       1 RES1    0.0000
     14 C5        -2.5019    6.4683    2.2546 C.2       1 RES1    0.0000
     15 C6        -3.1355    7.7208    1.8794 C.2       1 RES1    0.0000
     16 O4        -2.8150    8.4586    0.9787 O.2       1 RES1    0.0000
     17 C7        -1.3667    6.1814    1.4975 C.2       1 RES1    0.0000
     18 H7        -1.2265    6.7653    0.7884 H         1 RES1    0.0000
     19 N1        -0.4658    5.2468    1.6001 N.3       1 RES1    0.0000
     20 C8        -0.2277    4.2655    2.6566 C.3       1 RES1    0.0000
     21 H8        -0.6357    3.4304    2.4165 H         1 RES1    0.0000
     22 H9        -0.6090    4.5825    3.4796 H         1 RES1    0.0000
     23 H10        0.7174    4.1390    2.7694 H         1 RES1    0.0000
     24 O5         0.5730    5.3171    0.6641 O.3       1 RES1    0.0000
     25 C9         0.2789    4.4542   -0.4545 C.3       1 RES1    0.0000
     26 H11        0.9971    4.4988   -1.0899 H         1 RES1    0.0000
     27 H12       -0.5370    4.7386   -0.8721 H         1 RES1    0.0000
     28 H13        0.1819    3.5506   -0.1452 H         1 RES1    0.0000
@<TRIPOS>BOND
     1    1    2 1
     2    2    3 1
     3    3    4 1
     4    5    3 1
     5    6    3 1
     6    7    2 1
     7    8    7 1
     8    9    7 1
     9   10    7 1
    10   11    2 1
    11   12   11 1
    12   13   12 2
    13   14   12 1
    14   15    1 1
    15   16   15 2
    16   17   14 2
    17   18   17 1
    18   19   17 1
    19   20   19 1
    20   21   20 1
    21   22   20 1
    22   23   20 1
    23   24   19 1
    24   25   24 1
    25   26   25 1
    26   27   25 1
    27   28   25 1
    28   14   15 1
@<TRIPOS>SUBSTRUCTURE
     1 RES1 1

@<TRIPOS>CRYSIN
   6.4770    7.7690   11.6750  98.0400 100.5000 112.7100   2 1

