# MOL2 file generated by ConQuest
# Please check atom types

@<TRIPOS>MOLECULE
TAFCEI
    40    42     1
SMALL
NO_CHARGES
****
Generated from CSD

@<TRIPOS>ATOM
      1 O1         5.8586    2.6525    0.0815 O.2       1 RES1    0.0000
      2 O2         7.4291    3.1329    1.5086 O.2       1 RES1    0.0000
      3 O3         9.4895   -2.2607    3.3854 O.2       1 RES1    0.0000
      4 O4        10.4003   -0.3741    2.8502 O.2       1 RES1    0.0000
      5 O5         4.9578   -3.3313    1.5251 O.2       1 RES1    0.0000
      6 O6         5.0373   -2.4449   -0.4510 O.2       1 RES1    0.0000
      7 N1         4.5921    0.3398    0.4944 N.pl3     1 RES1    0.0000
      8 N2         6.6984    2.3310    0.9403 N.pl3     1 RES1    0.0000
      9 N3         9.4607   -1.1576    2.8515 N.pl3     1 RES1    0.0000
     10 N4         5.2987   -2.4616    0.7441 N.pl3     1 RES1    0.0000
     11 C1         5.7854    0.0017    0.9645 C.ar      1 RES1    0.0000
     12 C2         6.8408    0.9073    1.2716 C.ar      1 RES1    0.0000
     13 C3         8.0190    0.5549    1.8602 C.ar      1 RES1    0.0000
     14 C4         8.2227   -0.7784    2.1890 C.ar      1 RES1    0.0000
     15 H1         4.5073    1.1216    0.1529 H         1 RES1    0.0000
     16 H2         8.7910    1.1383    2.0514 H         1 RES1    0.0000
     17 H3         7.4332   -2.8040    1.9367 H         1 RES1    0.0000
     18 H4         2.8599   -0.0753   -1.2232 H         1 RES1    0.0000
     19 H5         0.6594   -1.1300   -0.8409 H         1 RES1    0.0000
     20 H6         1.6934   -1.9000    3.0070 H         1 RES1    0.0000
     21 C5         7.2913   -1.7502    1.8819 C.ar      1 RES1    0.0000
     22 C6         6.1335   -1.3576    1.2588 C.ar      1 RES1    0.0000
     23 C7         3.3541   -0.3733    0.6753 C.ar      1 RES1    0.0000
     24 C8         2.4863   -0.4754   -0.3746 C.ar      1 RES1    0.0000
     25 C9         1.2670   -1.0931   -0.1988 C.ar      1 RES1    0.0000
     26 C10        0.8809   -1.6414    1.0384 C.ar      1 RES1    0.0000
     27 C11        1.8192   -1.5376    2.0909 C.ar      1 RES1    0.0000
     28 C12        3.0219   -0.9081    1.9138 C.ar      1 RES1    0.0000
     29 C13       -0.4544   -2.2423    1.2232 C.ar      1 RES1    0.0000
     30 C14       -1.1381   -2.1310    2.4553 C.ar      1 RES1    0.0000
     31 C15       -2.3970   -2.6575    2.6005 C.ar      1 RES1    0.0000
     32 C16       -3.0397   -3.2877    1.5443 C.ar      1 RES1    0.0000
     33 C17       -2.3655   -3.4099    0.3415 C.ar      1 RES1    0.0000
     34 C18       -1.0883   -2.9027    0.1733 C.ar      1 RES1    0.0000
     35 H7         3.6801   -0.7700    2.6629 H         1 RES1    0.0000
     36 H8        -0.5971   -1.6907    3.2363 H         1 RES1    0.0000
     37 H9        -2.8401   -2.4608    3.4147 H         1 RES1    0.0000
     38 H10       -3.9568   -3.6410    1.6436 H         1 RES1    0.0000
     39 H11       -2.8604   -3.8167   -0.3568 H         1 RES1    0.0000
     40 H12       -0.7147   -3.0467   -0.7135 H         1 RES1    0.0000
@<TRIPOS>BOND
     1    1    8 2
     2    2    8 2
     3    3    9 2
     4    4    9 2
     5    5   10 2
     6    6   10 2
     7    7   11 1
     8    8   12 1
     9    9   14 1
    10   10   22 1
    11   11   12 ar
    12   12   13 ar
    13   13   14 ar
    14   14   21 ar
    15   15    7 1
    16   16   13 1
    17   17   21 1
    18   18   24 1
    19   19   25 1
    20   20   27 1
    21   21   22 ar
    22   22   11 ar
    23   23    7 1
    24   24   23 ar
    25   25   24 ar
    26   26   25 ar
    27   27   26 ar
    28   28   23 ar
    29   29   26 1
    30   30   29 ar
    31   31   30 ar
    32   32   31 ar
    33   33   32 ar
    34   34   29 ar
    35   35   28 1
    36   36   30 1
    37   37   31 1
    38   38   32 1
    39   39   33 1
    40   40   34 1
    41   27   28 ar
    42   33   34 ar
@<TRIPOS>SUBSTRUCTURE
     1 RES1 1

@<TRIPOS>CRYSIN
  15.4990    8.3700   13.3910  90.0000 107.9200  90.0000  14 1

