# MOL2 file generated by ConQuest
# Please check atom types

@<TRIPOS>MOLECULE
TAFCAE
    52    55     1
SMALL
NO_CHARGES
****
Generated from CSD

@<TRIPOS>ATOM
      1 O1         1.5991    3.0075   10.9184 O.2       1 RES1    0.0000
      2 O2         1.2901    5.0805   11.4245 O.2       1 RES1    0.0000
      3 O3         6.8996    6.9554   12.9518 O.2       1 RES1    0.0000
      4 O4         4.8954    7.3026   13.6480 O.2       1 RES1    0.0000
      5 O5         7.6014    3.7617    9.2424 O.2       1 RES1    0.0000
      6 O6         6.7530    1.9396   10.0535 O.2       1 RES1    0.0000
      7 N1         3.8851    2.5306    9.6361 N.3       1 RES1    0.0000
      8 N2         2.0174    4.1316   11.1796 N.pl3     1 RES1    0.0000
      9 N3         5.7161    6.7243   12.9593 N.pl3     1 RES1    0.0000
     10 N4         6.7592    3.1453    9.8823 N.pl3     1 RES1    0.0000
     11 N5         6.7121    0.9846    5.0517 N.pl3     1 RES1    0.0000
     12 C1         4.3302    3.5392   10.4222 C.ar      1 RES1    0.0000
     13 C2         3.4650    4.3437   11.2146 C.ar      1 RES1    0.0000
     14 C3         3.8915    5.3824   12.0194 C.ar      1 RES1    0.0000
     15 C4         5.2288    5.6666   12.0569 C.ar      1 RES1    0.0000
     16 C5         6.1354    4.9690   11.3008 C.ar      1 RES1    0.0000
     17 C6         5.6919    3.9298   10.5347 C.ar      1 RES1    0.0000
     18 C7         4.5059    2.1149    8.4125 C.ar      1 RES1    0.0000
     19 H1         3.0646    2.1835    9.8485 H         1 RES1    0.0000
     20 H2         3.2164    5.8805   12.4606 H         1 RES1    0.0000
     21 H3         7.0636    5.1511   11.3733 H         1 RES1    0.0000
     22 H4         4.3732    0.1031    8.7112 H         1 RES1    0.0000
     23 H5         5.4229   -0.5201    6.7990 H         1 RES1    0.0000
     24 H6         5.9432    3.3029    5.8366 H         1 RES1    0.0000
     25 H7         4.7268    4.0008    7.7113 H         1 RES1    0.0000
     26 H8         8.1682    1.8355    7.0364 H         1 RES1    0.0000
     27 H9        10.3412    2.4594    7.1114 H         1 RES1    0.0000
     28 C8         4.6487    0.7775    8.1238 C.ar      1 RES1    0.0000
     29 C9         5.3405    0.3915    6.9852 C.ar      1 RES1    0.0000
     30 C10        5.8665    1.3492    6.1453 C.ar      1 RES1    0.0000
     31 C11        5.6167    2.6808    6.3903 C.ar      1 RES1    0.0000
     32 C12        4.9382    3.0715    7.5314 C.ar      1 RES1    0.0000
     33 C13        8.0796    1.3171    5.0842 C.ar      1 RES1    0.0000
     34 C14        8.6721    1.7855    6.2503 C.ar      1 RES1    0.0000
     35 C15       10.0144    2.1036    6.2653 C.ar      1 RES1    0.0000
     36 C16       10.7787    1.9529    5.1517 C.ar      1 RES1    0.0000
     37 C17       10.2133    1.4917    3.9907 C.ar      1 RES1    0.0000
     38 C18        8.8641    1.1661    3.9444 C.ar      1 RES1    0.0000
     39 C19        6.1522    0.1990    3.9981 C.ar      1 RES1    0.0000
     40 C20        6.6100   -1.0718    3.7507 C.ar      1 RES1    0.0000
     41 C21        6.0553   -1.8205    2.7308 C.ar      1 RES1    0.0000
     42 C22        5.0578   -1.3015    1.9660 C.ar      1 RES1    0.0000
     43 C23        4.6079   -0.0293    2.1959 C.ar      1 RES1    0.0000
     44 C24        5.1521    0.7150    3.2120 C.ar      1 RES1    0.0000
     45 H10       11.5952    2.2100    5.1492 H         1 RES1    0.0000
     46 H11       10.7313    1.3740    3.1995 H         1 RES1    0.0000
     47 H12        8.5110    0.8655    3.1495 H         1 RES1    0.0000
     48 H13        7.2124   -1.3861    4.2869 H         1 RES1    0.0000
     49 H14        6.3579   -2.6258    2.5996 H         1 RES1    0.0000
     50 H15        4.6696   -1.7951    1.2748 H         1 RES1    0.0000
     51 H16        3.9757    0.3312    1.6623 H         1 RES1    0.0000
     52 H17        4.8528    1.5675    3.3745 H         1 RES1    0.0000
@<TRIPOS>BOND
     1    1    8 2
     2    2    8 2
     3    3    9 2
     4    4    9 2
     5    5   10 2
     6    6   10 2
     7    7   12 1
     8    8   13 1
     9    9   15 1
    10   10   17 1
    11   11   30 1
    12   12   13 ar
    13   13   14 ar
    14   14   15 ar
    15   15   16 ar
    16   16   17 ar
    17   17   12 ar
    18   18    7 1
    19   19    7 1
    20   20   14 1
    21   21   16 1
    22   22   28 1
    23   23   29 1
    24   24   31 1
    25   25   32 1
    26   26   34 1
    27   27   35 1
    28   28   18 ar
    29   29   28 ar
    30   30   29 ar
    31   31   30 ar
    32   32   18 ar
    33   33   11 1
    34   34   33 ar
    35   35   34 ar
    36   36   35 ar
    37   37   36 ar
    38   38   33 ar
    39   39   11 1
    40   40   39 ar
    41   41   40 ar
    42   42   41 ar
    43   43   42 ar
    44   44   39 ar
    45   45   36 1
    46   46   37 1
    47   47   38 1
    48   48   40 1
    49   49   41 1
    50   50   42 1
    51   51   43 1
    52   52   44 1
    53   31   32 ar
    54   37   38 ar
    55   43   44 ar
@<TRIPOS>SUBSTRUCTURE
     1 RES1 1

@<TRIPOS>CRYSIN
   8.7040   10.1530   12.7430  96.0200  97.9300 102.4800   2 1

