# MOL2 file generated by ConQuest
# Please check atom types

@<TRIPOS>MOLECULE
TAFKET01
    56    57     1
SMALL
NO_CHARGES
****
Generated from CSD

@<TRIPOS>ATOM
      1 O1        19.1480    1.8934   -1.8361 O.2       1 RES1    0.0000
      2 O2        18.2746    0.5642    4.0824 O.2       1 RES1    0.0000
      3 N1        20.1000    1.0746   -1.5510 N.pl3     1 RES1    0.0000
      4 N2        18.2110    1.0906    2.9028 N.pl3     1 RES1    0.0000
      5 C1        20.2567    0.7294   -0.1848 C.ar      1 RES1    0.0000
      6 C2        19.1808    1.0373    0.6479 C.ar      1 RES1    0.0000
      7 C3        19.2669    0.8005    2.0118 C.ar      1 RES1    0.0000
      8 C4        20.4404    0.2356    2.5448 C.ar      1 RES1    0.0000
      9 C5        21.5121   -0.0681    1.7182 C.ar      1 RES1    0.0000
     10 C6        21.4235    0.1676    0.3467 C.ar      1 RES1    0.0000
     11 C7        22.7655   -0.6021    2.3449 C.ar      1 RES1    0.0000
     12 C8        23.4009   -1.7709    1.9055 C.ar      1 RES1    0.0000
     13 C9        24.5091   -2.2173    2.6203 C.ar      1 RES1    0.0000
     14 C10       24.9968   -1.5453    3.7260 C.ar      1 RES1    0.0000
     15 C11       24.3888   -0.3766    4.1651 C.ar      1 RES1    0.0000
     16 C12       23.2721    0.0752    3.4614 C.ar      1 RES1    0.0000
     17 C13       22.9199   -2.5790    0.7234 C.3       1 RES1    0.0000
     18 C14       24.9009    0.3700    5.3655 C.3       1 RES1    0.0000
     19 C15       20.9471    0.5903   -2.7035 C.3       1 RES1    0.0000
     20 C16       20.1644    0.8745   -3.9770 C.3       1 RES1    0.0000
     21 C17       22.2541    1.3736   -2.7198 C.3       1 RES1    0.0000
     22 C18       21.1729   -0.9171   -2.6055 C.3       1 RES1    0.0000
     23 C19       17.0367    1.9917    2.5958 C.3       1 RES1    0.0000
     24 C20       16.3283    2.2895    3.9154 C.3       1 RES1    0.0000
     25 C21       16.0628    1.2670    1.6618 C.3       1 RES1    0.0000
     26 C22       17.5390    3.3220    2.0269 C.3       1 RES1    0.0000
     27 H1        18.3921    1.4387    0.2380 H         1 RES1    0.0000
     28 H2        20.4204    0.0710    3.5102 H         1 RES1    0.0000
     29 H3        22.1998    0.0237   -0.2318 H         1 RES1    0.0000
     30 H4        24.9218   -3.0195    2.3716 H         1 RES1    0.0000
     31 H5        25.7939   -1.9183    4.2242 H         1 RES1    0.0000
     32 H6        22.8184    0.8762    3.7605 H         1 RES1    0.0000
     33 H7        21.9155   -2.5755    0.6791 H         1 RES1    0.0000
     34 H8        23.3366   -2.2025   -0.1416 H         1 RES1    0.0000
     35 H9        23.1884   -3.5109    0.8268 H         1 RES1    0.0000
     36 H10       25.2209    1.2196    5.1822 H         1 RES1    0.0000
     37 H11       24.2676    0.4677    6.0542 H         1 RES1    0.0000
     38 H12       25.6827   -0.1539    5.8716 H         1 RES1    0.0000
     39 H13       19.9749    1.8235   -4.0621 H         1 RES1    0.0000
     40 H14       20.7294    0.5743   -4.7494 H         1 RES1    0.0000
     41 H15       19.3103    0.3375   -3.9903 H         1 RES1    0.0000
     42 H16       22.0990    2.3090   -2.8209 H         1 RES1    0.0000
     43 H17       22.8173    1.2256   -1.8813 H         1 RES1    0.0000
     44 H18       22.7846    1.0657   -3.5266 H         1 RES1    0.0000
     45 H19       20.3322   -1.3973   -2.4783 H         1 RES1    0.0000
     46 H20       21.5362   -1.2137   -3.4343 H         1 RES1    0.0000
     47 H21       21.7623   -1.1900   -1.8956 H         1 RES1    0.0000
     48 H22       15.9400    1.4861    4.2980 H         1 RES1    0.0000
     49 H23       15.5743    2.9248    3.6743 H         1 RES1    0.0000
     50 H24       16.9895    2.7353    4.5606 H         1 RES1    0.0000
     51 H25       15.7719    0.4322    2.0269 H         1 RES1    0.0000
     52 H26       15.2568    1.8709    1.4915 H         1 RES1    0.0000
     53 H27       16.4638    1.0775    0.7550 H         1 RES1    0.0000
     54 H28       18.0040    3.2504    1.1345 H         1 RES1    0.0000
     55 H29       16.7112    3.9254    1.9018 H         1 RES1    0.0000
     56 H30       18.1869    3.7951    2.6568 H         1 RES1    0.0000
@<TRIPOS>BOND
     1    1    3 2
     2    2    4 2
     3    3    5 1
     4    4    7 1
     5    5    6 ar
     6    6    7 ar
     7    7    8 ar
     8    8    9 ar
     9    9   10 ar
    10   10    5 ar
    11   11    9 1
    12   12   11 ar
    13   13   12 ar
    14   14   13 ar
    15   15   14 ar
    16   16   11 ar
    17   17   12 1
    18   18   15 1
    19   19    3 1
    20   20   19 1
    21   21   19 1
    22   22   19 1
    23   23    4 1
    24   24   23 1
    25   25   23 1
    26   26   23 1
    27   27    6 1
    28   28    8 1
    29   29   10 1
    30   30   13 1
    31   31   14 1
    32   32   16 1
    33   33   17 1
    34   34   17 1
    35   35   17 1
    36   36   18 1
    37   37   18 1
    38   38   18 1
    39   39   20 1
    40   40   20 1
    41   41   20 1
    42   42   21 1
    43   43   21 1
    44   44   21 1
    45   45   22 1
    46   46   22 1
    47   47   22 1
    48   48   24 1
    49   49   24 1
    50   50   24 1
    51   51   25 1
    52   52   25 1
    53   53   25 1
    54   54   26 1
    55   55   26 1
    56   56   26 1
    57   15   16 ar
@<TRIPOS>SUBSTRUCTURE
     1 RES1 1

@<TRIPOS>CRYSIN
  33.2550    5.9206   22.1780  90.0000 112.3250  90.0000  15 1

