# MOL2 file generated by ConQuest
# Please check atom types

@<TRIPOS>MOLECULE
TAFMOE
    36    37     1
SMALL
NO_CHARGES
****
Generated from CSD

@<TRIPOS>ATOM
      1 O1         1.2171    3.9765    1.6569 O.3       1 RES1    0.0000
      2 O2         1.6674    8.2871    5.0564 O.3       1 RES1    0.0000
      3 O3         2.9638    4.4934    0.2153 O.3       1 RES1    0.0000
      4 C1         2.5662    5.3372    3.1502 C.ar      1 RES1    0.0000
      5 C2         2.5976    6.4399    3.9853 C.ar      1 RES1    0.0000
      6 H1         3.3988    6.6676    4.4003 H         1 RES1    0.0000
      7 C3         1.4813    7.2129    4.2220 C.ar      1 RES1    0.0000
      8 C4         1.3629    5.0399    2.5182 C.ar      1 RES1    0.0000
      9 C5         0.2884    6.8909    3.6085 C.ar      1 RES1    0.0000
     10 H2        -0.4744    7.3989    3.7629 H         1 RES1    0.0000
     11 C6         0.2460    5.8054    2.7620 C.ar      1 RES1    0.0000
     12 H3        -0.5560    5.5846    2.3453 H         1 RES1    0.0000
     13 C7         3.7943    4.4877    2.9068 C.3       1 RES1    0.0000
     14 H4         4.4526    5.0159    2.4095 H         1 RES1    0.0000
     15 C8         3.4555    3.2351    2.1048 C.3       1 RES1    0.0000
     16 H5         4.2620    2.8998    1.6840 H         1 RES1    0.0000
     17 H6         3.1288    2.5494    2.7092 H         1 RES1    0.0000
     18 N1         5.6158    3.2731    4.0588 N.pl3     1 RES1    0.0000
     19 C9         2.4173    3.4964    1.0459 C.3       1 RES1    0.0000
     20 C10        2.0267    2.2369    0.3109 C.3       1 RES1    0.0000
     21 H7         1.3172    2.4323   -0.3045 H         1 RES1    0.0000
     22 H8         1.7303    1.5771    0.9419 H         1 RES1    0.0000
     23 H9         2.7856    1.8997   -0.1713 H         1 RES1    0.0000
     24 O4         6.5473    3.7773    3.4796 O.2       1 RES1    0.0000
     25 C11        4.3899    4.0955    4.2548 C.3       1 RES1    0.0000
     26 H10        4.6124    4.8951    4.7571 H         1 RES1    0.0000
     27 H11        3.7373    3.5900    4.7643 H         1 RES1    0.0000
     28 C12        0.5612    9.1309    5.3166 C.3       1 RES1    0.0000
     29 H12        0.2109    9.4643    4.4884 H         1 RES1    0.0000
     30 H13        0.8432    9.8673    5.8655 H         1 RES1    0.0000
     31 H14       -0.1195    8.6331    5.7752 H         1 RES1    0.0000
     32 O5         5.6163    2.1388    4.4710 O.2       1 RES1    0.0000
     33 C13        2.1015    5.0064   -0.7928 C.3       1 RES1    0.0000
     34 H15        1.8325    4.2935   -1.3772 H         1 RES1    0.0000
     35 H16        2.5652    5.6770   -1.2987 H         1 RES1    0.0000
     36 H17        1.3252    5.3948   -0.3829 H         1 RES1    0.0000
@<TRIPOS>BOND
     1    1    8 1
     2    2    7 1
     3    3   19 1
     4    4    5 ar
     5    5    6 1
     6    7    5 ar
     7    8    4 ar
     8    9    7 ar
     9   10    9 1
    10   11    8 ar
    11   12   11 1
    12   13    4 1
    13   14   13 1
    14   15   13 1
    15   16   15 1
    16   17   15 1
    17   18   24 2
    18   19    1 1
    19   20   19 1
    20   21   20 1
    21   22   20 1
    22   23   20 1
    23   25   13 1
    24   26   25 1
    25   27   25 1
    26   28    2 1
    27   29   28 1
    28   30   28 1
    29   31   28 1
    30   32   18 2
    31   33    3 1
    32   34   33 1
    33   35   33 1
    34   36   33 1
    35    9   11 ar
    36   15   19 1
    37   18   25 1
@<TRIPOS>SUBSTRUCTURE
     1 RES1 1

@<TRIPOS>CRYSIN
   8.8500    6.3260   23.8840  90.0000  95.2010  90.0000  14 1

