# MOL2 file generated by ConQuest
# Please check atom types

@<TRIPOS>MOLECULE
TAFMOF
    29    30     1
SMALL
USER_CHARGES
****
Generated from CSD

@<TRIPOS>ATOM
      1 O1        10.0152    6.2962    5.4895 O.2       1 RES1    0.0000
      2 O2         5.3213    5.2754    4.9212 O.2       1 RES1    0.0000
      3 O3         4.4410    3.5015    5.7971 O.2       1 RES1    0.0000
      4 O4         7.1759    0.5354    8.4663 O.2       1 RES1    0.0000
      5 O5         9.2866    0.9783    8.7252 O.2       1 RES1    0.0000
      6 N1        12.4424    5.5370    6.1302 N.pl3     1 RES1    1.0000
      7 N2        11.3657    4.6977    6.5066 N.2       1 RES1   -1.0000
      8 N3         5.3913    4.2493    5.5815 N.pl3     1 RES1    0.0000
      9 N4         8.1744    1.2249    8.2693 N.pl3     1 RES1    0.0000
     10 C1        12.6151    6.7373    6.7165 C.ar      1 RES1    0.0000
     11 H1        12.0072    7.0379    7.3529 H         1 RES1    0.0000
     12 C2        13.6960    7.5187    6.3707 C.ar      1 RES1    0.0000
     13 H2        13.8119    8.3555    6.7604 H         1 RES1    0.0000
     14 C3        14.6113    7.0512    5.4379 C.ar      1 RES1    0.0000
     15 H3        15.3526    7.5637    5.2105 H         1 RES1    0.0000
     16 C4        14.4097    5.8139    4.8499 C.ar      1 RES1    0.0000
     17 H4        15.0142    5.4861    4.2229 H         1 RES1    0.0000
     18 C5        13.3008    5.0723    5.2058 C.ar      1 RES1    0.0000
     19 H5        13.1464    4.2476    4.8037 H         1 RES1    0.0000
     20 C6        10.2100    5.2298    6.0956 C.2       1 RES1    0.0000
     21 C7         9.0260    4.3468    6.4146 C.ar      1 RES1    0.0000
     22 C8         7.7829    4.7023    5.8992 C.ar      1 RES1    0.0000
     23 H6         7.6841    5.4739    5.3896 H         1 RES1    0.0000
     24 C9         6.6957    3.8840    6.1603 C.ar      1 RES1    0.0000
     25 C10        6.7748    2.7350    6.9247 C.ar      1 RES1    0.0000
     26 H7         6.0325    2.1994    7.0884 H         1 RES1    0.0000
     27 C11        8.0257    2.4291    7.4321 C.ar      1 RES1    0.0000
     28 C12        9.1540    3.1920    7.1793 C.ar      1 RES1    0.0000
     29 H8         9.9829    2.9364    7.5153 H         1 RES1    0.0000
@<TRIPOS>BOND
     1    1   20 2
     2    2    8 2
     3    3    8 2
     4    4    9 2
     5    5    9 2
     6    6    7 1
     7    7   20 1
     8    8   24 1
     9    9   27 1
    10   10    6 ar
    11   11   10 1
    12   12   10 ar
    13   13   12 1
    14   14   12 ar
    15   15   14 1
    16   16   14 ar
    17   17   16 1
    18   18    6 ar
    19   19   18 1
    20   20   21 1
    21   21   22 ar
    22   22   23 1
    23   24   22 ar
    24   25   24 ar
    25   26   25 1
    26   27   25 ar
    27   28   21 ar
    28   29   28 1
    29   16   18 ar
    30   27   28 ar
@<TRIPOS>SUBSTRUCTURE
     1 RES1 1

@<TRIPOS>CRYSIN
  12.5016    5.7712   16.7640  90.0000  93.2060  90.0000  14 1

