# MOL2 file generated by ConQuest
# Please check atom types

@<TRIPOS>MOLECULE
TAFMIZ
    29    30     1
SMALL
USER_CHARGES
****
Generated from CSD

@<TRIPOS>ATOM
      1 O1         8.2620    6.1606    9.9298 O.2       1 RES1    0.0000
      2 O2         9.5206    7.6794    9.0420 O.2       1 RES1    0.0000
      3 O3         3.9051    5.3504    8.2069 O.2       1 RES1    0.0000
      4 O4         3.4162    5.9292    6.1819 O.2       1 RES1    0.0000
      5 O5         3.5743    8.7916    5.6105 O.2       1 RES1    0.0000
      6 N1         8.5104    6.9869    9.0553 N.pl3     1 RES1    0.0000
      7 N2         4.1343    5.9675    7.1709 N.pl3     1 RES1    0.0000
      8 N3         4.7803    7.8442    3.8516 N.2       1 RES1   -1.0000
      9 N4         3.7958    8.3259    2.9679 N.pl3     1 RES1    1.0000
     10 N5         3.0003    8.8664    0.9821 N.2       1 RES1    0.0000
     11 N6         2.0417    8.9857    1.9385 N.3       1 RES1    0.0000
     12 C1         7.5231    7.1781    7.9852 C.ar      1 RES1    0.0000
     13 C2         6.3015    6.5372    8.1035 C.ar      1 RES1    0.0000
     14 H1         6.1149    5.9776    8.8224 H         1 RES1    0.0000
     15 C3         5.3723    6.7644    7.1084 C.ar      1 RES1    0.0000
     16 C4         5.5943    7.6483    6.0517 C.ar      1 RES1    0.0000
     17 C5         6.8597    8.2391    5.9696 C.ar      1 RES1    0.0000
     18 H2         7.0473    8.8098    5.2598 H         1 RES1    0.0000
     19 C6         7.8410    7.9975    6.9166 C.ar      1 RES1    0.0000
     20 H3         8.6875    8.3747    6.8370 H         1 RES1    0.0000
     21 C7         4.5102    8.1309    5.1137 C.2       1 RES1    0.0000
     22 C8         2.5038    8.6615    3.1316 C.2       1 RES1    0.0000
     23 H4         2.0283    8.6642    3.9305 H         1 RES1    0.0000
     24 C9         4.0554    8.4656    1.6403 C.2       1 RES1    0.0000
     25 H5         4.8816    8.2963    1.2487 H         1 RES1    0.0000
     26 C10        0.7008    9.4489    1.5820 C.3       1 RES1    0.0000
     27 H6         0.7583   10.3233    1.1892 H         1 RES1    0.0000
     28 H7         0.1558    9.4876    2.3714 H         1 RES1    0.0000
     29 H8         0.3092    8.8404    0.9514 H         1 RES1    0.0000
@<TRIPOS>BOND
     1    1    6 2
     2    2    6 2
     3    3    7 2
     4    4    7 2
     5    5   21 2
     6    6   12 1
     7    7   15 1
     8    8    9 1
     9    9   22 2
    10   10   11 1
    11   11   22 1
    12   12   13 ar
    13   13   14 1
    14   15   13 ar
    15   16   15 ar
    16   17   16 ar
    17   18   17 1
    18   19   12 ar
    19   20   19 1
    20   21    8 1
    21   22   23 1
    22   24    9 1
    23   25   24 1
    24   26   11 1
    25   27   26 1
    26   28   26 1
    27   29   26 1
    28   10   24 2
    29   16   21 1
    30   17   19 ar
@<TRIPOS>SUBSTRUCTURE
     1 RES1 1

@<TRIPOS>CRYSIN
   7.1633    8.0803   11.2680  69.5340  72.1360  85.2750   2 1

