# MOL2 file generated by ConQuest
# Please check atom types

@<TRIPOS>MOLECULE
TAFRUN
    29    29     1
SMALL
NO_CHARGES
****
Generated from CSD

@<TRIPOS>ATOM
      1 O1        14.0587    1.5935    7.0545 O.3       1 RES1    0.0000
      2 O2        15.9532    1.3259    5.4869 O.2       1 RES1    0.0000
      3 N1        15.4826    0.4737    4.5915 N.pl3     1 RES1    0.0000
      4 C1        14.2289    0.3881    4.3066 C.2       1 RES1    0.0000
      5 C2        13.1253    1.1500    4.8710 C.ar      1 RES1    0.0000
      6 C3        13.0758    1.7454    6.1461 C.ar      1 RES1    0.0000
      7 C4        11.9459    2.4675    6.5211 C.ar      1 RES1    0.0000
      8 C5        10.8748    2.5820    5.6770 C.ar      1 RES1    0.0000
      9 C6        10.8733    1.9491    4.4499 C.ar      1 RES1    0.0000
     10 C7        11.9862    1.2476    4.0639 C.ar      1 RES1    0.0000
     11 C8        16.5568   -0.3375    3.9036 C.3       1 RES1    0.0000
     12 C9        15.9888   -1.2343    2.8438 C.3       1 RES1    0.0000
     13 C10       17.4855    0.6702    3.2105 C.3       1 RES1    0.0000
     14 C11       17.2642   -1.1258    4.9839 C.3       1 RES1    0.0000
     15 H1        13.9921   -0.2290    3.5445 H         1 RES1    0.0000
     16 H2        11.9800    2.8930    7.2703 H         1 RES1    0.0000
     17 H3        10.0762    3.0858    5.8841 H         1 RES1    0.0000
     18 H4        10.0607    1.9889    3.8837 H         1 RES1    0.0000
     19 H5        12.0574    0.8197    3.1877 H         1 RES1    0.0000
     20 H6        16.7627   -1.6635    2.4215 H         1 RES1    0.0000
     21 H7        15.4625   -0.7594    2.1992 H         1 RES1    0.0000
     22 H8        15.3542   -1.9286    3.1994 H         1 RES1    0.0000
     23 H9        18.3105    0.0362    2.6145 H         1 RES1    0.0000
     24 H10       18.1712    0.7473    4.3634 H         1 RES1    0.0000
     25 H11       17.7223    1.3018    3.4919 H         1 RES1    0.0000
     26 H12       18.1093   -1.6635    4.5915 H         1 RES1    0.0000
     27 H13       16.5615   -1.7719    5.2173 H         1 RES1    0.0000
     28 H14       17.6294   -0.4460    5.6209 H         1 RES1    0.0000
     29 H15       14.8434    1.4947    6.5275 H         1 RES1    0.0000
@<TRIPOS>BOND
     1    1    6 1
     2    2    3 1
     3    3    4 2
     4    4    5 1
     5    5    6 ar
     6    6    7 ar
     7    7    8 ar
     8    8    9 ar
     9    9   10 ar
    10   10    5 ar
    11   11    3 1
    12   12   11 1
    13   13   11 1
    14   14   11 1
    15   15    4 1
    16   16    7 1
    17   17    8 1
    18   18    9 1
    19   19   10 1
    20   20   12 1
    21   21   12 1
    22   22   12 1
    23   23   13 1
    24   24   13 1
    25   25   13 1
    26   26   14 1
    27   27   14 1
    28   28   14 1
    29   29    1 1
@<TRIPOS>SUBSTRUCTURE
     1 RES1 1

@<TRIPOS>CRYSIN
  15.4780   12.0540    5.8490  90.0000  90.0000  90.0000  19 1

