# MOL2 file generated by ConQuest
# Please check atom types

@<TRIPOS>MOLECULE
TAFTOJ
    19    19     1
SMALL
NO_CHARGES
****
Generated from CSD

@<TRIPOS>ATOM
      1 N1         1.8017    1.3564    4.6233 N.ar      1 RES1    0.0000
      2 N2         3.3486    4.3175    2.9519 N.pl3     1 RES1    0.0000
      3 N3         4.8667    1.5347    6.6551 N.pl3     1 RES1    0.0000
      4 O1         1.0322    2.6633    2.9152 O.3       1 RES1    0.0000
      5 O2         2.6839    4.4094    1.9383 O.2       1 RES1    0.0000
      6 O3         4.1901    5.1152    3.2637 O.2       1 RES1    0.0000
      7 O4         5.9024    2.1817    6.6871 O.2       1 RES1    0.0000
      8 O5         4.6336    0.6249    7.4326 O.2       1 RES1    0.0000
      9 C1         1.9648    2.3857    3.7950 C.ar      1 RES1    0.0000
     10 C2         3.1250    3.1908    3.8601 C.ar      1 RES1    0.0000
     11 C3         4.0808    2.9463    4.8026 C.ar      1 RES1    0.0000
     12 C4         3.8743    1.8803    5.6511 C.ar      1 RES1    0.0000
     13 C5         2.7381    1.1028    5.5233 C.ar      1 RES1    0.0000
     14 C6        -0.2103    1.9244    2.9761 C.3       1 RES1    0.0000
     15 H1         4.9429    3.5970    4.8127 H         1 RES1    0.0000
     16 H2         2.6837    0.2996    6.2427 H         1 RES1    0.0000
     17 H3        -0.8218    2.3582    2.1993 H         1 RES1    0.0000
     18 H4        -0.6872    2.0714    3.9340 H         1 RES1    0.0000
     19 H5        -0.0896    0.8675    2.7915 H         1 RES1    0.0000
@<TRIPOS>BOND
     1    1    9 ar
     2    2    5 2
     3    3    7 2
     4    4    9 1
     5    6    2 2
     6    8    3 2
     7    9   10 ar
     8   10    2 1
     9   11   10 ar
    10   12    3 1
    11   13    1 ar
    12   14    4 1
    13   15   11 1
    14   16   13 1
    15   17   14 1
    16   18   14 1
    17   19   14 1
    18   11   12 ar
    19   12   13 ar
@<TRIPOS>SUBSTRUCTURE
     1 RES1 1

@<TRIPOS>CRYSIN
   7.4960   18.3800    6.0680  90.0000  77.1800  90.0000 231 1

