# MOL2 file generated by ConQuest
# Please check atom types

@<TRIPOS>MOLECULE
TAFXIK
    46    47     1
SMALL
USER_CHARGES
****
Generated from CSD

@<TRIPOS>ATOM
      1 O1        11.5536    4.9937   10.8267 O.2       1 RES1    0.0000
      2 N1        11.0845    3.9874   11.4598 N.3       1 RES1    0.0000
      3 C1        10.3435    2.9685   10.9562 C.2       1 RES1    0.0000
      4 O2         9.3663    1.0461   11.8850 O.2       1 RES1   -1.0000
      5 N2        10.0901    2.1017   11.9610 N.pl3     1 RES1    1.0000
      6 C2        11.2091    3.9056   12.9623 C.3       1 RES1    0.0000
      7 O3         8.9804    2.3019    5.5544 O.3       1 RES1    0.0000
      8 N3         8.7501    1.1667    1.5552 N.2       1 RES1    0.0000
      9 C3        10.9298    2.3952   13.1757 C.3       1 RES1    0.0000
     10 N4         8.7892    1.8008    0.5036 N.1       1 RES1    1.0000
     11 C4        12.5705    4.3836   13.3964 C.3       1 RES1    0.0000
     12 H1        12.6415    4.3260   14.3712 H         1 RES1    0.0000
     13 H2        13.2607    3.8207   12.9851 H         1 RES1    0.0000
     14 H3        12.6961    5.3134   13.1134 H         1 RES1    0.0000
     15 N5         8.7526    2.2578   -0.5276 N.2       1 RES1   -1.0000
     16 C5        10.1085    4.8081   13.5055 C.3       1 RES1    0.0000
     17 H4         9.2362    4.4748   13.2081 H         1 RES1    0.0000
     18 H5        10.1412    4.8102   14.4839 H         1 RES1    0.0000
     19 H6        10.2397    5.7211   13.1721 H         1 RES1    0.0000
     20 C6        12.1644    1.5189   13.0582 C.3       1 RES1    0.0000
     21 H7        12.7485    1.6719   13.8304 H         1 RES1    0.0000
     22 H8        11.8953    0.5765   13.0354 H         1 RES1    0.0000
     23 H9        12.6461    1.7411   12.2344 H         1 RES1    0.0000
     24 C7        10.1496    2.0639   14.4384 C.3       1 RES1    0.0000
     25 H10       10.7037    2.2578   15.2238 H         1 RES1    0.0000
     26 H11        9.3352    2.6059   14.4707 H         1 RES1    0.0000
     27 H12        9.9112    1.1132   14.4336 H         1 RES1    0.0000
     28 C8         9.9260    2.8249    9.5652 C.ar      1 RES1    0.0000
     29 C9         9.6542    1.5692    9.0352 C.ar      1 RES1    0.0000
     30 H13        9.6796    0.8040    9.5976 H         1 RES1    0.0000
     31 C10        9.3447    1.4256    7.6886 C.ar      1 RES1    0.0000
     32 H14        9.1597    0.5639    7.3349 H         1 RES1    0.0000
     33 C11        9.3039    2.5419    6.8577 C.ar      1 RES1    0.0000
     34 C12        9.5545    3.7998    7.3793 C.ar      1 RES1    0.0000
     35 H15        9.5070    4.5671    6.8205 H         1 RES1    0.0000
     36 C13        9.8734    3.9339    8.7235 C.ar      1 RES1    0.0000
     37 H16       10.0597    4.7966    9.0748 H         1 RES1    0.0000
     38 C14        9.0130    3.4182    4.6345 C.3       1 RES1    0.0000
     39 H17        9.9390    3.7536    4.5326 H         1 RES1    0.0000
     40 H18        8.4436    4.1562    4.9691 H         1 RES1    0.0000
     41 C15        8.4921    2.9098    3.3155 C.3       1 RES1    0.0000
     42 H19        8.4387    3.6635    2.6752 H         1 RES1    0.0000
     43 H20        7.5767    2.5534    3.4426 H         1 RES1    0.0000
     44 C16        9.3690    1.8281    2.7351 C.3       1 RES1    0.0000
     45 H21       10.2360    2.2222    2.4677 H         1 RES1    0.0000
     46 H22        9.5468    1.1467    3.4318 H         1 RES1    0.0000
@<TRIPOS>BOND
     1    1    2 1
     2    2    3 1
     3    3    5 2
     4    4    5 1
     5    5    9 1
     6    6    2 1
     7    7   33 1
     8    8   10 2
     9    9    6 1
    10   10   15 2
    11   11    6 1
    12   12   11 1
    13   13   11 1
    14   14   11 1
    15   16    6 1
    16   17   16 1
    17   18   16 1
    18   19   16 1
    19   20    9 1
    20   21   20 1
    21   22   20 1
    22   23   20 1
    23   24    9 1
    24   25   24 1
    25   26   24 1
    26   27   24 1
    27   28    3 1
    28   29   28 ar
    29   30   29 1
    30   31   29 ar
    31   32   31 1
    32   33   31 ar
    33   34   33 ar
    34   35   34 1
    35   36   28 ar
    36   37   36 1
    37   38    7 1
    38   39   38 1
    39   40   38 1
    40   41   38 1
    41   42   41 1
    42   43   41 1
    43   44    8 1
    44   45   44 1
    45   46   44 1
    46   34   36 ar
    47   41   44 1
@<TRIPOS>SUBSTRUCTURE
     1 RES1 1

@<TRIPOS>CRYSIN
  13.4630   10.4821   13.6217  90.0000 118.3230  90.0000  14 1

