# MOL2 file generated by ConQuest
# Please check atom types

@<TRIPOS>MOLECULE
TAGDAG
    42    43     1
SMALL
NO_CHARGES
****
Generated from CSD

@<TRIPOS>ATOM
      1 O1         6.1414    4.3954    2.4058 O.2       1 RES1    0.0000
      2 O2         9.7038    3.7398   -0.9088 O.3       1 RES1    0.0000
      3 N1         8.9957    3.2331    3.6489 N.3       1 RES1    0.0000
      4 N2         8.9066    3.9376    0.2434 N.2       1 RES1    0.0000
      5 C1         7.9945    5.8445    2.2710 C.3       1 RES1    0.0000
      6 C2         7.3439    4.4863    2.3023 C.2       1 RES1    0.0000
      7 C3         8.2455    3.2401    2.3786 C.3       1 RES1    0.0000
      8 C4         9.1934    3.1231    1.1867 C.2       1 RES1    0.0000
      9 C5        10.2047    2.0308    1.1313 C.3       1 RES1    0.0000
     10 C6         7.4013    1.9328    2.2752 C.ar      1 RES1    0.0000
     11 C7         6.5164    1.7879    1.2128 C.ar      1 RES1    0.0000
     12 C8         5.8174    0.6026    1.0248 C.ar      1 RES1    0.0000
     13 C9         6.0060   -0.4657    1.8761 C.ar      1 RES1    0.0000
     14 C10        6.8958   -0.3408    2.9281 C.ar      1 RES1    0.0000
     15 C11        7.6034    0.8455    3.1171 C.ar      1 RES1    0.0000
     16 C12        8.1713    3.4219    4.8481 C.3       1 RES1    0.0000
     17 C13        8.9301    2.9292    6.0745 C.3       1 RES1    0.0000
     18 C14       10.2743    3.6228    6.2040 C.3       1 RES1    0.0000
     19 C15       11.0594    3.5149    4.9076 C.3       1 RES1    0.0000
     20 C16       10.2243    4.0226    3.7376 C.3       1 RES1    0.0000
     21 H1         9.6935    4.2275   -1.7863 H         1 RES1    0.0000
     22 H2         7.7512    6.3162    3.1234 H         1 RES1    0.0000
     23 H3         7.6000    6.3462    1.4938 H         1 RES1    0.0000
     24 H4         8.9950    5.9364    2.1833 H         1 RES1    0.0000
     25 H5        11.0728    2.4785    0.9088 H         1 RES1    0.0000
     26 H6         9.9392    1.4391    0.3656 H         1 RES1    0.0000
     27 H7        10.4406    1.3792    1.8699 H         1 RES1    0.0000
     28 H8         6.3767    2.5585    0.5745 H         1 RES1    0.0000
     29 H9         5.1570    0.5297    0.2612 H         1 RES1    0.0000
     30 H10        5.5035   -1.3192    1.7341 H         1 RES1    0.0000
     31 H11        7.0387   -1.1193    3.5621 H         1 RES1    0.0000
     32 H12        8.2577    0.9294    3.8860 H         1 RES1    0.0000
     33 H13        7.2603    2.9882    4.7635 H         1 RES1    0.0000
     34 H14        7.8746    4.3774    4.9619 H         1 RES1    0.0000
     35 H15        8.3754    2.9982    6.9154 H         1 RES1    0.0000
     36 H16        9.0444    1.9188    6.0483 H         1 RES1    0.0000
     37 H17       10.7930    3.2880    6.9989 H         1 RES1    0.0000
     38 H18       10.1562    4.5872    6.4871 H         1 RES1    0.0000
     39 H19       11.3808    2.5685    4.7426 H         1 RES1    0.0000
     40 H20       11.9510    3.9776    4.9619 H         1 RES1    0.0000
     41 H21       10.0441    5.0170    3.8129 H         1 RES1    0.0000
     42 H22       10.7320    4.0276    2.8727 H         1 RES1    0.0000
@<TRIPOS>BOND
     1    1    6 2
     2    2    4 1
     3    3    7 1
     4    4    8 2
     5    5    6 1
     6    6    7 1
     7    7    8 1
     8    8    9 1
     9    9   25 1
    10   10    7 1
    11   11   10 ar
    12   12   11 ar
    13   13   12 ar
    14   14   13 ar
    15   15   10 ar
    16   16    3 1
    17   17   16 1
    18   18   17 1
    19   19   18 1
    20   20    3 1
    21   21    2 1
    22   22    5 1
    23   23    5 1
    24   24    5 1
    25   26    9 1
    26   27    9 1
    27   28   11 1
    28   29   12 1
    29   30   13 1
    30   31   14 1
    31   32   15 1
    32   33   16 1
    33   34   16 1
    34   35   17 1
    35   36   17 1
    36   37   18 1
    37   38   18 1
    38   39   19 1
    39   40   19 1
    40   41   20 1
    41   42   20 1
    42   14   15 ar
    43   19   20 1
@<TRIPOS>SUBSTRUCTURE
     1 RES1 1

@<TRIPOS>CRYSIN
  14.2530    9.9940   10.4680  90.0000  93.7000  90.0000  14 2

