# MOL2 file generated by ConQuest
# Please check atom types

@<TRIPOS>MOLECULE
TAGMIA
    32    33     1
SMALL
NO_CHARGES
****
Generated from CSD

@<TRIPOS>ATOM
      1 C1        -3.4346    0.0417   13.6426 C.3       1 RES1    0.0000
      2 H1        -3.3938   -0.7439   13.0921 H         1 RES1    0.0000
      3 H2        -4.3266    0.1483   13.9826 H         1 RES1    0.0000
      4 H3        -2.8219   -0.0498   14.3770 H         1 RES1    0.0000
      5 C2        -1.8475    1.1970   12.2824 C.ar      1 RES1    0.0000
      6 C3        -0.8875    0.2196   12.4415 C.ar      1 RES1    0.0000
      7 H4        -1.0610   -0.5232   12.9736 H         1 RES1    0.0000
      8 C4         0.3364    0.3488   11.8064 C.ar      1 RES1    0.0000
      9 H5         0.9772   -0.3158   11.9200 H         1 RES1    0.0000
     10 C5         0.6297    1.4368   11.0105 C.ar      1 RES1    0.0000
     11 C6        -0.3442    2.4096   10.8682 C.ar      1 RES1    0.0000
     12 H6        -0.1695    3.1558   10.3410 H         1 RES1    0.0000
     13 C7        -1.5697    2.2966   11.4930 C.ar      1 RES1    0.0000
     14 H7        -2.2106    2.9617   11.3821 H         1 RES1    0.0000
     15 C8         1.9975    1.5452   10.3740 C.3       1 RES1    0.0000
     16 H8         2.6600    1.6616   11.0727 H         1 RES1    0.0000
     17 H9         2.1964    0.7144    9.9145 H         1 RES1    0.0000
     18 C9         1.7484    2.5359    8.0513 C.ar      1 RES1    0.0000
     19 C10        1.0559    1.4206    7.6140 C.ar      1 RES1    0.0000
     20 H10        0.8228    0.7497    8.2143 H         1 RES1    0.0000
     21 C11        0.7149    1.3105    6.2853 C.ar      1 RES1    0.0000
     22 H11        0.2554    0.5568    5.9914 H         1 RES1    0.0000
     23 C12        1.0420    2.2919    5.3885 C.ar      1 RES1    0.0000
     24 H12        0.8073    2.2085    4.4932 H         1 RES1    0.0000
     25 C13        1.7221    3.4026    5.8304 C.ar      1 RES1    0.0000
     26 H13        1.9388    4.0775    5.2276 H         1 RES1    0.0000
     27 C14        2.0850    3.5283    7.1468 C.ar      1 RES1    0.0000
     28 H14        2.5564    4.2780    7.4310 H         1 RES1    0.0000
     29 N1         2.5167    3.8568    9.8193 N.2       1 RES1    0.0000
     30 N2         2.1158    2.6488    9.4240 N.pl3     1 RES1    0.0000
     31 O1        -3.0810    1.1842   12.8690 O.3       1 RES1    0.0000
     32 O2         2.8067    3.9344   11.0176 O.2       1 RES1    0.0000
@<TRIPOS>BOND
     1    1    2 1
     2    3    1 1
     3    4    1 1
     4    5    6 ar
     5    6    7 1
     6    8    6 ar
     7    9    8 1
     8   10    8 ar
     9   11   10 ar
    10   12   11 1
    11   13    5 ar
    12   14   13 1
    13   15   10 1
    14   16   15 1
    15   17   15 1
    16   18   19 ar
    17   19   20 1
    18   21   19 ar
    19   22   21 1
    20   23   21 ar
    21   24   23 1
    22   25   23 ar
    23   26   25 1
    24   27   18 ar
    25   28   27 1
    26   29   30 1
    27   30   15 1
    28   31    1 1
    29   32   29 2
    30    5   31 1
    31   11   13 ar
    32   18   30 1
    33   25   27 ar
@<TRIPOS>SUBSTRUCTURE
     1 RES1 1

@<TRIPOS>CRYSIN
   7.5292    5.7936   13.9668  90.0000  93.7660  90.0000   4 1

