# MOL2 file generated by ConQuest
# Please check atom types

@<TRIPOS>MOLECULE
TAGZAF
    38    40     1
SMALL
NO_CHARGES
****
Generated from CSD

@<TRIPOS>ATOM
      1 O1         1.8765    3.4498    1.9352 O.3       1 RES1    0.0000
      2 O2         5.4270    7.5305    3.0523 O.3       1 RES1    0.0000
      3 O3         5.2909    5.9751    4.6513 O.2       1 RES1    0.0000
      4 N1         1.8511    4.2112    3.1764 N.3       1 RES1    0.0000
      5 C1         3.1060    2.7002    1.9470 C.3       1 RES1    0.0000
      6 H1         3.3572    2.4215    1.0309 H         1 RES1    0.0000
      7 H2         3.0206    1.8939    2.5145 H         1 RES1    0.0000
      8 C2         4.1357    3.6550    2.5201 C.3       1 RES1    0.0000
      9 H3         4.8253    3.1712    3.0604 H         1 RES1    0.0000
     10 C3         4.7848    4.5684    1.4607 C.3       1 RES1    0.0000
     11 H4         5.7133    4.7976    1.7156 H         1 RES1    0.0000
     12 H5         4.7952    4.1269    0.5750 H         1 RES1    0.0000
     13 C4         3.9031    5.8212    1.4340 C.3       1 RES1    0.0000
     14 H6         3.0794    5.6686    0.9062 H         1 RES1    0.0000
     15 H7         4.3913    6.5951    1.0575 H         1 RES1    0.0000
     16 C5         3.5802    6.0359    2.9189 C.3       1 RES1    0.0000
     17 C6         3.2587    4.5920    3.4145 C.3       1 RES1    0.0000
     18 H8         3.4976    4.4864    4.3803 H         1 RES1    0.0000
     19 C7         2.5065    7.0799    3.2167 C.ar      1 RES1    0.0000
     20 C8         1.8853    7.1262    4.4653 C.ar      1 RES1    0.0000
     21 H9         2.1140    6.4826    5.1258 H         1 RES1    0.0000
     22 C9         0.9360    8.0990    4.7574 C.ar      1 RES1    0.0000
     23 H10        0.5199    8.1149    5.6109 H         1 RES1    0.0000
     24 C10        0.5952    9.0471    3.8022 C.ar      1 RES1    0.0000
     25 H11       -0.0559    9.7107    3.9963 H         1 RES1    0.0000
     26 C11        1.2141    9.0153    2.5635 C.ar      1 RES1    0.0000
     27 H12        0.9868    9.6654    1.9085 H         1 RES1    0.0000
     28 C12        2.1634    8.0452    2.2652 C.ar      1 RES1    0.0000
     29 H13        2.5809    8.0375    1.4123 H         1 RES1    0.0000
     30 C13        4.8475    6.4817    3.6552 C.2       1 RES1    0.0000
     31 C14        6.6226    8.0331    3.7054 C.3       1 RES1    0.0000
     32 H14        6.3922    8.3648    4.5986 H         1 RES1    0.0000
     33 H15        7.0038    8.7623    3.1739 H         1 RES1    0.0000
     34 H16        7.2787    7.3097    3.7861 H         1 RES1    0.0000
     35 C15        1.3606    3.3129    4.2234 C.3       1 RES1    0.0000
     36 H17        0.4683    2.9885    3.9827 H         1 RES1    0.0000
     37 H18        1.3148    3.7966    5.0737 H         1 RES1    0.0000
     38 H19        1.9722    2.5515    4.3133 H         1 RES1    0.0000
@<TRIPOS>BOND
     1    1    4 1
     2    2   30 1
     3    3   30 2
     4    4   17 1
     5    5    1 1
     6    6    5 1
     7    7    5 1
     8    8    5 1
     9    9    8 1
    10   10    8 1
    11   11   10 1
    12   12   10 1
    13   13   10 1
    14   14   13 1
    15   15   13 1
    16   16   13 1
    17   17    8 1
    18   18   17 1
    19   19   16 1
    20   20   19 ar
    21   21   20 1
    22   22   20 ar
    23   23   22 1
    24   24   22 ar
    25   25   24 1
    26   26   24 ar
    27   27   26 1
    28   28   19 ar
    29   29   28 1
    30   30   16 1
    31   31    2 1
    32   32   31 1
    33   33   31 1
    34   34   31 1
    35   35    4 1
    36   36   35 1
    37   37   35 1
    38   38   35 1
    39   16   17 1
    40   26   28 ar
@<TRIPOS>SUBSTRUCTURE
     1 RES1 1

@<TRIPOS>CRYSIN
  14.3226   14.6136    6.2026  90.0000  90.0000  90.0000  33 1

