# MOL2 file generated by ConQuest
# Please check atom types

@<TRIPOS>MOLECULE
TAGZIK
    35    35     1
SMALL
NO_CHARGES
****
Generated from CSD

@<TRIPOS>ATOM
      1 C1         8.8357    9.4695    2.7570 C.3       1 RES1    0.0000
      2 C2         8.3859   10.7744    2.9680 C.3       1 RES1    0.0000
      3 C3        10.4076    9.9266    2.5074 C.3       1 RES1    0.0000
      4 C4         8.2505    9.0509    1.3277 C.3       1 RES1    0.0000
      5 C5         6.8983    8.3126    1.6850 C.3       1 RES1    0.0000
      6 C6         6.8516    7.1021    2.5845 C.3       1 RES1    0.0000
      7 C7         5.4181    6.3917    2.5860 C.3       1 RES1    0.0000
      8 C8         5.4166    5.1747    3.1690 C.3       1 RES1    0.0000
      9 C9         7.4202   10.9762    1.7042 C.3       1 RES1    0.0000
     10 C10       11.3447    8.9522    3.2336 C.3       1 RES1    0.0000
     11 C11        9.4885    8.1302   -0.4875 C.2       1 RES1    0.0000
     12 C12       10.5595    7.2867   -0.8356 C.3       1 RES1    0.0000
     13 C13        5.4903    8.7591   -0.2418 C.2       1 RES1    0.0000
     14 C14        4.7954    8.4457   -1.4385 C.3       1 RES1    0.0000
     15 C15        8.9500    5.8272    2.8686 C.2       1 RES1    0.0000
     16 C16        9.6810    4.6532    1.9507 C.3       1 RES1    0.0000
     17 C17        3.3438    7.7353    2.1085 C.2       1 RES1    0.0000
     18 C18        2.6564    8.8535    2.9826 C.3       1 RES1    0.0000
     19 C19        6.6034    4.5223    5.0403 C.2       1 RES1    0.0000
     20 C20        6.9795    4.7605    6.6413 C.3       1 RES1    0.0000
     21 N1         9.4689   11.7961    3.5432 N.2       1 RES1    0.0000
     22 N2        10.4256   11.1350    3.2283 N.2       1 RES1    0.0000
     23 N3         7.4593   11.2616    3.7789 N.pl3     1 RES1    0.0000
     24 O1         9.2102    8.0937    0.8910 O.3       1 RES1    0.0000
     25 O2         8.8868    8.9994   -1.0681 O.2       1 RES1    0.0000
     26 O3         6.3071    8.0036    0.4490 O.3       1 RES1    0.0000
     27 O4         5.1699    9.8322    0.3897 O.2       1 RES1    0.0000
     28 O5         7.7090    5.9238    1.8475 O.3       1 RES1    0.0000
     29 O6         9.1771    6.5054    3.7542 O.2       1 RES1    0.0000
     30 O7         4.5261    7.4262    2.9079 O.3       1 RES1    0.0000
     31 O8         3.1603    6.9605    1.3654 O.2       1 RES1    0.0000
     32 O9         5.7145    5.2863    4.5729 O.3       1 RES1    0.0000
     33 O10        7.0893    3.6788    4.3834 O.2       1 RES1    0.0000
     34 O11        6.5673   10.3881    3.9984 O.2       1 RES1    0.0000
     35 O12        7.4909   11.3604    5.1150 O.2       1 RES1    0.0000
@<TRIPOS>BOND
     1    1    2 1
     2    2    9 1
     3    3    1 1
     4    4    1 1
     5    5    4 1
     6    6    5 1
     7    7    6 1
     8    8    7 1
     9   10    3 1
    10   11   12 1
    11   13   14 1
    12   15   16 1
    13   17   18 1
    14   19   20 1
    15   21    2 1
    16   22    3 1
    17   23    2 1
    18   24    4 1
    19   25   11 2
    20   26    5 1
    21   27   13 2
    22   28    6 1
    23   29   15 2
    24   30    7 1
    25   31   17 2
    26   32    8 1
    27   33   19 2
    28   34   23 2
    29   35   23 2
    30   11   24 1
    31   13   26 1
    32   15   28 1
    33   17   30 1
    34   19   32 1
    35   21   22 2
@<TRIPOS>SUBSTRUCTURE
     1 RES1 1

@<TRIPOS>CRYSIN
  15.0420   21.4630    7.7010  90.0000  90.0000  90.0000  19 1

