# MOL2 file generated by ConQuest
# Please check atom types

@<TRIPOS>MOLECULE
TAGZIN
    47    49     1
SMALL
NO_CHARGES
****
Generated from CSD

@<TRIPOS>ATOM
      1 O1        10.9098    5.4110    5.5476 O.3       1 RES1    0.0000
      2 O2        10.7406    7.8023    8.2206 O.3       1 RES1    0.0000
      3 O3        12.5507    6.8783    7.2570 O.2       1 RES1    0.0000
      4 O4         9.1553    1.8192    9.9602 O.3       1 RES1    0.0000
      5 O5         9.8971    3.9206   10.1598 O.2       1 RES1    0.0000
      6 N1        11.1081    4.0306    6.0934 N.3       1 RES1    0.0000
      7 C1        10.3167    6.2085    6.5614 C.3       1 RES1    0.0000
      8 H1         9.6534    6.8367    6.1554 H         1 RES1    0.0000
      9 C2         9.5993    5.2046    7.4594 C.3       1 RES1    0.0000
     10 H2         9.4280    5.5874    8.3669 H         1 RES1    0.0000
     11 C3         8.2974    4.7216    6.8046 C.3       1 RES1    0.0000
     12 H3         7.5882    5.3937    6.9639 H         1 RES1    0.0000
     13 H4         8.4349    4.6540    5.8261 H         1 RES1    0.0000
     14 C4         7.8267    3.3692    7.3339 C.3       1 RES1    0.0000
     15 H5         7.0369    3.0707    6.8160 H         1 RES1    0.0000
     16 H6         7.5531    3.4647    8.2809 H         1 RES1    0.0000
     17 C5         8.9272    2.3158    7.2291 C.3       1 RES1    0.0000
     18 H7         9.1736    2.1893    6.2791 H         1 RES1    0.0000
     19 H8         8.5919    1.4521    7.5773 H         1 RES1    0.0000
     20 C6        10.1713    2.7438    8.0293 C.3       1 RES1    0.0000
     21 C7        10.6789    4.1157    7.5090 C.3       1 RES1    0.0000
     22 H9        11.4435    4.4262    8.0733 H         1 RES1    0.0000
     23 C8        11.3059    1.7131    8.0382 C.ar      1 RES1    0.0000
     24 C9        11.2819    0.5618    7.2506 C.ar      1 RES1    0.0000
     25 H10       10.5365    0.3897    6.6881 H         1 RES1    0.0000
     26 C10       12.3414   -0.3335    7.2847 C.ar      1 RES1    0.0000
     27 H11       12.3093   -1.1186    6.7510 H         1 RES1    0.0000
     28 C11       13.4442   -0.0964    8.0868 C.ar      1 RES1    0.0000
     29 H12       14.1697   -0.7101    8.1006 H         1 RES1    0.0000
     30 C12       13.4780    1.0523    8.8741 C.ar      1 RES1    0.0000
     31 H13       14.2309    1.2260    9.4260 H         1 RES1    0.0000
     32 C13       12.4190    1.9388    8.8541 C.ar      1 RES1    0.0000
     33 H14       12.4474    2.7140    9.4030 H         1 RES1    0.0000
     34 C14       11.3603    6.9928    7.3500 C.2       1 RES1    0.0000
     35 C15       11.5971    8.5302    9.1350 C.3       1 RES1    0.0000
     36 H15       12.0443    7.8986    9.7364 H         1 RES1    0.0000
     37 H16       11.0566    9.1555    9.6620 H         1 RES1    0.0000
     38 H17       12.2694    9.0286    8.6259 H         1 RES1    0.0000
     39 C16        9.7458    2.9295    9.4960 C.2       1 RES1    0.0000
     40 C17        8.6299    1.9247   11.3079 C.3       1 RES1    0.0000
     41 H18        9.3562    2.1538   11.9249 H         1 RES1    0.0000
     42 H19        8.2345    1.0674   11.5726 H         1 RES1    0.0000
     43 H20        7.9433    2.6237   11.3377 H         1 RES1    0.0000
     44 C18       12.5384    3.7874    5.9054 C.3       1 RES1    0.0000
     45 H21       13.0522    4.4171    6.4543 H         1 RES1    0.0000
     46 H22       12.7698    3.9130    4.9610 H         1 RES1    0.0000
     47 H23       12.7517    2.8699    6.1753 H         1 RES1    0.0000
@<TRIPOS>BOND
     1    1    6 1
     2    2   34 1
     3    3   34 2
     4    4   39 1
     5    5   39 2
     6    6   21 1
     7    7    1 1
     8    8    7 1
     9    9    7 1
    10   10    9 1
    11   11    9 1
    12   12   11 1
    13   13   11 1
    14   14   11 1
    15   15   14 1
    16   16   14 1
    17   17   14 1
    18   18   17 1
    19   19   17 1
    20   20   17 1
    21   21    9 1
    22   22   21 1
    23   23   20 1
    24   24   23 ar
    25   25   24 1
    26   26   24 ar
    27   27   26 1
    28   28   26 ar
    29   29   28 1
    30   30   28 ar
    31   31   30 1
    32   32   23 ar
    33   33   32 1
    34   34    7 1
    35   35    2 1
    36   36   35 1
    37   37   35 1
    38   38   35 1
    39   39   20 1
    40   40    4 1
    41   41   40 1
    42   42   40 1
    43   43   40 1
    44   44    6 1
    45   45   44 1
    46   46   44 1
    47   47   44 1
    48   20   21 1
    49   30   32 ar
@<TRIPOS>SUBSTRUCTURE
     1 RES1 1

@<TRIPOS>CRYSIN
   8.0628   10.3241   11.8540  65.4560  71.9819  75.4771   2 1

