# MOL2 file generated by ConQuest
# Please check atom types

@<TRIPOS>MOLECULE
TAHMEV
    18    22     1
SMALL
NO_CHARGES
****
Generated from CSD

@<TRIPOS>ATOM
      1 C1         5.7099    1.6460    0.6509 C.3       1 RES1    0.0000
      2 N1         4.3234    1.6460    0.2006 N.pl3     1 RES1    0.0000
      3 O1         3.4242    1.6460    0.9979 O.2       1 RES1    0.0000
      4 O2         4.1119    1.6460   -0.9885 O.2       1 RES1    0.0000
      5 C2         6.7307    2.7416    0.2794 C.3       1 RES1    0.0000
      6 H1         6.4916    3.4829   -0.2274 H         1 RES1    0.0000
      7 C3         7.7574    1.6460   -0.0793 C.3       1 RES1    0.0000
      8 H2         8.2808    1.6460   -0.8165 H         1 RES1    0.0000
      9 C4         8.2756    1.6460    1.3717 C.3       1 RES1    0.0000
     10 H3         9.1912    1.6460    1.6096 H         1 RES1    0.0000
     11 C5         7.2425    2.7297    1.7385 C.3       1 RES1    0.0000
     12 H4         7.4335    3.4895    2.2395 H         1 RES1    0.0000
     13 C6         6.2097    1.6460    2.1007 C.3       1 RES1    0.0000
     14 H5         5.6548    1.6460    2.7760 H         1 RES1    0.0000
     15 C2B        6.7307    0.5504    0.2794 C.3       1 RES1    0.0000
     16 C5B        7.2425    0.5623    1.7385 C.3       1 RES1    0.0000
     17 H1B        6.4916   -0.1909   -0.2274 H         1 RES1    0.0000
     18 H4B        7.4335   -0.1975    2.2395 H         1 RES1    0.0000
@<TRIPOS>BOND
     1    1    2 1
     2    2    3 2
     3    4    2 2
     4    5    1 1
     5    6    5 1
     6    7    5 1
     7    8    7 1
     8    9    7 1
     9   10    9 1
    10   11    5 1
    11   12   11 1
    12   13    1 1
    13   14   13 1
    14   15    1 1
    15   16    9 1
    16   17   15 1
    17   18   16 1
    18    7   15 1
    19    9   11 1
    20   11   13 1
    21   13   16 1
    22   15   16 1
@<TRIPOS>SUBSTRUCTURE
     1 RES1 1

@<TRIPOS>CRYSIN
  17.5070    6.5840    5.8320  90.0000  90.0000  90.0000  62 1

