# MOL2 file generated by ConQuest
# Please check atom types

@<TRIPOS>MOLECULE
TAHTUU
    72    76     1
SMALL
NO_CHARGES
****
Generated from CSD

@<TRIPOS>ATOM
      1 O1         2.6266    1.1331    5.5719 O.2       1 RES1    0.0000
      2 O2         4.4591    2.2101    7.9806 O.2       1 RES1    0.0000
      3 O3         3.1951    3.0194    9.6577 O.3       1 RES1    0.0000
      4 O4         1.8548    0.0617   11.0846 O.2       1 RES1    0.0000
      5 O5         4.0100    0.5360   10.9256 O.3       1 RES1    0.0000
      6 O6         3.4029   -6.1968    3.9785 O.2       1 RES1    0.0000
      7 O7         4.5953   -4.7233    2.9365 O.2       1 RES1    0.0000
      8 N1         3.3765   -0.2676    8.2127 N.3       1 RES1    0.0000
      9 H1         4.2193   -0.4109    8.1196 H         1 RES1    0.0000
     10 N2         0.4373    0.5644    5.1339 N.am      1 RES1    0.0000
     11 N3        -0.5940   -0.1535    5.7697 N.2       1 RES1    0.0000
     12 N4         3.8480   -5.0725    3.8427 N.pl3     1 RES1    0.0000
     13 C1         2.2821   -1.0688    7.6584 C.3       1 RES1    0.0000
     14 H2         1.8957   -1.5729    8.4046 H         1 RES1    0.0000
     15 C2         1.2158   -0.0188    7.2243 C.3       1 RES1    0.0000
     16 C3         1.2552    0.9361    8.4610 C.3       1 RES1    0.0000
     17 H3         0.7197    0.4907    9.1507 H         1 RES1    0.0000
     18 C4         2.7495    0.8221    8.9554 C.3       1 RES1    0.0000
     19 C5        -0.1691   -0.5012    6.9346 C.2       1 RES1    0.0000
     20 C6        -1.0186   -1.2824    7.8681 C.3       1 RES1    0.0000
     21 H4        -0.6119   -2.1359    8.0349 H         1 RES1    0.0000
     22 H5        -1.8869   -1.4119    7.4782 H         1 RES1    0.0000
     23 H6        -1.1088   -0.8038    8.6964 H         1 RES1    0.0000
     24 C7         1.5647    0.6487    5.8930 C.2       1 RES1    0.0000
     25 C8         0.1981    1.0837    3.8141 C.ar      1 RES1    0.0000
     26 C9         1.0734    1.9643    3.2385 C.ar      1 RES1    0.0000
     27 H7         1.8391    2.2232    3.6990 H         1 RES1    0.0000
     28 C10        0.8241    2.4790    1.9553 C.ar      1 RES1    0.0000
     29 H8         1.4005    3.0931    1.5611 H         1 RES1    0.0000
     30 C11       -0.3095    2.0440    1.3006 C.ar      1 RES1    0.0000
     31 H9        -0.4598    2.3285    0.4276 H         1 RES1    0.0000
     32 C12       -1.1901    1.2373    1.8684 C.ar      1 RES1    0.0000
     33 H10       -1.9664    1.0115    1.4097 H         1 RES1    0.0000
     34 C13       -0.9708    0.7135    3.1623 C.ar      1 RES1    0.0000
     35 H11       -1.5845    0.1430    3.5632 H         1 RES1    0.0000
     36 C14        2.7192   -2.0830    6.6250 C.ar      1 RES1    0.0000
     37 C15        3.7454   -1.8544    5.7280 C.ar      1 RES1    0.0000
     38 H12        4.1893   -1.0371    5.7322 H         1 RES1    0.0000
     39 C16        4.1168   -2.8373    4.8203 C.ar      1 RES1    0.0000
     40 H13        4.8047   -2.6807    4.2157 H         1 RES1    0.0000
     41 C17        3.4694   -4.0279    4.8239 C.ar      1 RES1    0.0000
     42 C18        2.4582   -4.3018    5.6982 C.ar      1 RES1    0.0000
     43 H14        2.0319   -5.1281    5.6899 H         1 RES1    0.0000
     44 C19        2.0837   -3.3189    6.5954 C.ar      1 RES1    0.0000
     45 H15        1.3917   -3.4890    7.1931 H         1 RES1    0.0000
     46 C20        0.6308    2.2984    8.2873 C.ar      1 RES1    0.0000
     47 C21       -0.4891    2.6085    9.0313 C.ar      1 RES1    0.0000
     48 H16       -0.8417    1.9763    9.6161 H         1 RES1    0.0000
     49 C22       -1.0929    3.8487    8.9195 C.ar      1 RES1    0.0000
     50 H17       -1.8479    4.0429    9.4268 H         1 RES1    0.0000
     51 C23       -0.5853    4.7910    8.0675 C.ar      1 RES1    0.0000
     52 H18       -0.9903    5.6249    7.9993 H         1 RES1    0.0000
     53 C24        0.5234    4.5005    7.3141 C.ar      1 RES1    0.0000
     54 H19        0.8700    5.1417    6.7344 H         1 RES1    0.0000
     55 C25        1.1300    3.2647    7.4114 C.ar      1 RES1    0.0000
     56 H20        1.8762    3.0751    6.8903 H         1 RES1    0.0000
     57 C26        3.5783    2.0952    8.7928 C.2       1 RES1    0.0000
     58 C27        3.8763    4.3093    9.6116 C.3       1 RES1    0.0000
     59 H21        3.2803    5.0107    9.9167 H         1 RES1    0.0000
     60 H22        4.1433    4.5110    8.7008 H         1 RES1    0.0000
     61 C28        5.0823    4.2446   10.4935 C.3       1 RES1    0.0000
     62 H23        5.6588    3.5357   10.1951 H         1 RES1    0.0000
     63 H24        4.8082    4.0745   11.3977 H         1 RES1    0.0000
     64 H25        5.5527    5.0785   10.4534 H         1 RES1    0.0000
     65 C29        2.7882    0.4308   10.4559 C.2       1 RES1    0.0000
     66 C30        4.2176    0.1927   12.3261 C.3       1 RES1    0.0000
     67 H26        3.5615    0.6563   12.8697 H         1 RES1    0.0000
     68 H27        4.0832   -0.7601   12.4444 H         1 RES1    0.0000
     69 C31        5.4837    0.5313   12.7561 C.3       1 RES1    0.0000
     70 H28        6.1362    0.1189   12.1860 H         1 RES1    0.0000
     71 H29        5.6093    0.2273   13.6581 H         1 RES1    0.0000
     72 H30        5.5880    1.4856   12.7227 H         1 RES1    0.0000
@<TRIPOS>BOND
     1    1   24 2
     2    2   57 2
     3    3   57 1
     4    4   65 2
     5    5   65 1
     6    6   12 2
     7    7   12 2
     8    8    9 1
     9   10   11 1
    10   11   19 2
    11   12   41 1
    12   13    8 1
    13   14   13 1
    14   15   13 1
    15   16   15 1
    16   17   16 1
    17   18    8 1
    18   19   15 1
    19   20   19 1
    20   21   20 1
    21   22   20 1
    22   23   20 1
    23   24   10 1
    24   25   10 1
    25   26   25 ar
    26   27   26 1
    27   28   26 ar
    28   29   28 1
    29   30   28 ar
    30   31   30 1
    31   32   30 ar
    32   33   32 1
    33   34   25 ar
    34   35   34 1
    35   36   13 1
    36   37   36 ar
    37   38   37 1
    38   39   37 ar
    39   40   39 1
    40   41   39 ar
    41   42   41 ar
    42   43   42 1
    43   44   36 ar
    44   45   44 1
    45   46   16 1
    46   47   46 ar
    47   48   47 1
    48   49   47 ar
    49   50   49 1
    50   51   49 ar
    51   52   51 1
    52   53   51 ar
    53   54   53 1
    54   55   46 ar
    55   56   55 1
    56   57   18 1
    57   58    3 1
    58   59   58 1
    59   60   58 1
    60   61   58 1
    61   62   61 1
    62   63   61 1
    63   64   61 1
    64   65   18 1
    65   66    5 1
    66   67   66 1
    67   68   66 1
    68   69   66 1
    69   70   69 1
    70   71   69 1
    71   72   69 1
    72   15   24 1
    73   16   18 1
    74   32   34 ar
    75   42   44 ar
    76   53   55 ar
@<TRIPOS>SUBSTRUCTURE
     1 RES1 1

@<TRIPOS>CRYSIN
  17.6837   15.0518   22.2698  90.0000  90.0000  90.0000  61 1

