# MOL2 file generated by ConQuest
# Please check atom types

@<TRIPOS>MOLECULE
TAHYEH
    31    32     1
SMALL
NO_CHARGES
****
Generated from CSD

@<TRIPOS>ATOM
      1 O1         6.4333   13.3202    5.7067 O.2       1 RES1    0.0000
      2 O2         4.1281    8.6717   10.2677 O.2       1 RES1    0.0000
      3 O3         2.7725   10.1391   11.0324 O.2       1 RES1    0.0000
      4 N1         4.3657   14.2133    5.5735 N.am      1 RES1    0.0000
      5 N2         3.6112    9.7721   10.2314 N.pl3     1 RES1    0.0000
      6 C1         5.2539   13.3557    6.0838 C.2       1 RES1    0.0000
      7 C2         4.7783   12.4315    7.1685 C.ar      1 RES1    0.0000
      8 C3         5.4242   11.2030    7.3107 C.ar      1 RES1    0.0000
      9 C4         5.0486   10.3266    8.3113 C.ar      1 RES1    0.0000
     10 C5         4.0289   10.7063    9.1726 C.ar      1 RES1    0.0000
     11 C6         3.3819   11.9254    9.0728 C.ar      1 RES1    0.0000
     12 C7         3.7601   12.7886    8.0531 C.ar      1 RES1    0.0000
     13 C8         4.7840   15.1229    4.5035 C.3       1 RES1    0.0000
     14 C9         3.7048   16.1210    4.1709 C.ar      1 RES1    0.0000
     15 C10        3.0371   16.0683    2.9533 C.ar      1 RES1    0.0000
     16 C11        2.0717   17.0195    2.6441 C.ar      1 RES1    0.0000
     17 C12        1.7537   18.0051    3.5537 C.ar      1 RES1    0.0000
     18 C13        2.4125   18.0669    4.7657 C.ar      1 RES1    0.0000
     19 C14        3.3914   17.1351    5.0675 C.ar      1 RES1    0.0000
     20 H1         3.5263   14.0652    5.6906 H         1 RES1    0.0000
     21 H2         6.1292   10.9636    6.7216 H         1 RES1    0.0000
     22 H3         5.4966    9.4850    8.4182 H         1 RES1    0.0000
     23 H4         2.6929   12.1487    9.6767 H         1 RES1    0.0000
     24 H5         3.3250   13.6450    7.9880 H         1 RES1    0.0000
     25 H6         5.0284   14.6055    3.7209 H         1 RES1    0.0000
     26 H7         5.5947   15.5905    4.7985 H         1 RES1    0.0000
     27 H8         3.2677   15.3526    2.3111 H         1 RES1    0.0000
     28 H9         1.6264   16.9645    1.7979 H         1 RES1    0.0000
     29 H10        1.0786   18.6565    3.3682 H         1 RES1    0.0000
     30 H11        2.2148   18.7477    5.3823 H         1 RES1    0.0000
     31 H12        3.8886   17.1869    5.9171 H         1 RES1    0.0000
@<TRIPOS>BOND
     1    1    6 2
     2    2    5 2
     3    3    5 2
     4    4    6 1
     5    5   10 1
     6    6    7 1
     7    7    8 ar
     8    8    9 ar
     9    9   10 ar
    10   10   11 ar
    11   11   12 ar
    12   12    7 ar
    13   13    4 1
    14   14   13 1
    15   15   14 ar
    16   16   15 ar
    17   17   16 ar
    18   18   17 ar
    19   19   14 ar
    20   20    4 1
    21   21    8 1
    22   22    9 1
    23   23   11 1
    24   24   12 1
    25   25   13 1
    26   26   13 1
    27   27   15 1
    28   28   16 1
    29   29   17 1
    30   30   18 1
    31   31   19 1
    32   18   19 ar
@<TRIPOS>SUBSTRUCTURE
     1 RES1 1

@<TRIPOS>CRYSIN
   4.8193   22.2340   11.3997  90.0000  93.4550  90.0000  14 1

