# MOL2 file generated by ConQuest
# Please check atom types

@<TRIPOS>MOLECULE
TAJJUJ
    54    55     1
SMALL
NO_CHARGES
****
Generated from CSD

@<TRIPOS>ATOM
      1 O1         7.9905    0.4255   -2.8027 O.2       1 RES1    0.0000
      2 O2         9.5009    1.7585   -3.5670 O.2       1 RES1    0.0000
      3 N1         8.8652    1.2474   -2.6533 N.pl3     1 RES1    0.0000
      4 C1         9.2270    1.6606   -1.3027 C.ar      1 RES1    0.0000
      5 C2         9.9304    2.7916   -1.1133 C.ar      1 RES1    0.0000
      6 C3        10.2390    3.1942    0.1586 C.ar      1 RES1    0.0000
      7 C4         9.8524    2.4534    1.2616 C.ar      1 RES1    0.0000
      8 C5         9.1463    1.2979    1.0038 C.ar      1 RES1    0.0000
      9 C6         8.8117    0.8831   -0.2624 C.ar      1 RES1    0.0000
     10 C7        10.2061    2.9003    2.6818 C.3       1 RES1    0.0000
     11 C8        11.5187    3.6992    2.6407 C.3       1 RES1    0.0000
     12 C9        12.7202    2.9217    2.0829 C.3       1 RES1    0.0000
     13 C10       10.4473    1.6131    3.5008 C.3       1 RES1    0.0000
     14 C11       11.1771    1.6652    4.8354 C.3       1 RES1    0.0000
     15 C12        8.9853    3.8109    3.2396 C.3       1 RES1    0.0000
     16 C13        8.6155    4.9098    2.2324 C.3       1 RES1    0.0000
     17 C14        7.4803    5.8266    2.6487 C.3       1 RES1    0.0000
     18 C15        9.3506    4.5242    4.5708 C.3       1 RES1    0.0000
     19 C16       10.1299    5.8144    4.5594 C.3       1 RES1    0.0000
     20 C17        7.7753    2.9064    3.4894 C.ar      1 RES1    0.0000
     21 C18        6.8010    2.6646    2.5267 C.ar      1 RES1    0.0000
     22 C19        5.7249    1.8259    2.7856 C.ar      1 RES1    0.0000
     23 C20        5.5807    1.2014    3.9753 C.ar      1 RES1    0.0000
     24 C21        6.5120    1.4356    4.9301 C.ar      1 RES1    0.0000
     25 C22        7.5784    2.2651    4.7031 C.ar      1 RES1    0.0000
     26 H1        10.1621    3.3824   -1.8023 H         1 RES1    0.0000
     27 H2        10.6466    3.9793    0.2624 H         1 RES1    0.0000
     28 H3         8.9501    0.7193    1.6426 H         1 RES1    0.0000
     29 H4         8.3491    0.0153   -0.4335 H         1 RES1    0.0000
     30 H5        11.7444    3.9334    3.4677 H         1 RES1    0.0000
     31 H6        11.4311    4.6374    2.1559 H         1 RES1    0.0000
     32 H7        13.3276    3.5814    2.0304 H         1 RES1    0.0000
     33 H8        12.9375    2.1427    2.7263 H         1 RES1    0.0000
     34 H9        12.5050    2.5100    1.2890 H         1 RES1    0.0000
     35 H10       10.9279    1.0101    2.9430 H         1 RES1    0.0000
     36 H11        9.6026    1.1479    3.5932 H         1 RES1    0.0000
     37 H12       11.4535    0.7499    5.0305 H         1 RES1    0.0000
     38 H13       11.9790    2.2192    4.8366 H         1 RES1    0.0000
     39 H14       10.7144    2.0815    5.5324 H         1 RES1    0.0000
     40 H15        8.3459    4.4538    1.4373 H         1 RES1    0.0000
     41 H16        9.3503    5.4792    2.0190 H         1 RES1    0.0000
     42 H17        7.3880    6.5812    2.0190 H         1 RES1    0.0000
     43 H18        6.7155    5.3414    2.6350 H         1 RES1    0.0000
     44 H19        7.8340    6.4740    3.2624 H         1 RES1    0.0000
     45 H20        9.7818    3.8263    5.1446 H         1 RES1    0.0000
     46 H21        8.5124    4.7292    4.9963 H         1 RES1    0.0000
     47 H22       10.1636    6.2291    5.3271 H         1 RES1    0.0000
     48 H23       10.9218    5.8618    4.0951 H         1 RES1    0.0000
     49 H24        9.6756    6.5658    4.0723 H         1 RES1    0.0000
     50 H25        6.8206    3.1681    1.7453 H         1 RES1    0.0000
     51 H26        5.2355    1.6989    2.1445 H         1 RES1    0.0000
     52 H27        4.7764    0.6887    4.1293 H         1 RES1    0.0000
     53 H28        6.4930    0.9795    5.6579 H         1 RES1    0.0000
     54 H29        8.1858    2.3723    5.3955 H         1 RES1    0.0000
@<TRIPOS>BOND
     1    1    3 2
     2    2    3 2
     3    3    4 1
     4    4    5 ar
     5    5    6 ar
     6    6    7 ar
     7    7    8 ar
     8    8    9 ar
     9    9    4 ar
    10   10    7 1
    11   11   10 1
    12   12   11 1
    13   13   10 1
    14   14   13 1
    15   15   10 1
    16   16   15 1
    17   17   16 1
    18   18   15 1
    19   19   18 1
    20   20   15 1
    21   21   20 ar
    22   22   21 ar
    23   23   22 ar
    24   24   23 ar
    25   25   20 ar
    26   26    5 1
    27   27    6 1
    28   28    8 1
    29   29    9 1
    30   30   11 1
    31   31   11 1
    32   32   12 1
    33   33   12 1
    34   34   12 1
    35   35   13 1
    36   36   13 1
    37   37   14 1
    38   38   14 1
    39   39   14 1
    40   40   16 1
    41   41   16 1
    42   42   17 1
    43   43   17 1
    44   44   17 1
    45   45   18 1
    46   46   18 1
    47   47   19 1
    48   48   19 1
    49   49   19 1
    50   50   21 1
    51   51   22 1
    52   52   23 1
    53   53   24 1
    54   54   25 1
    55   24   25 ar
@<TRIPOS>SUBSTRUCTURE
     1 RES1 1

@<TRIPOS>CRYSIN
  10.6650   15.3050   11.4350  90.0000  94.0100  90.0000 231 1

