# MOL2 file generated by ConQuest
# Please check atom types

@<TRIPOS>MOLECULE
TAJZIQ
    80    85     1
SMALL
NO_CHARGES
****
Generated from CSD

@<TRIPOS>ATOM
      1 O1         8.5963   11.6974    1.1993 O.3       1 RES1    0.0000
      2 O2         6.7345    6.5883    4.2343 O.2       1 RES1    0.0000
      3 O3         7.0921    9.1794    5.6723 O.3       1 RES1    0.0000
      4 N1         7.4294    8.4600    3.0808 N.am      1 RES1    0.0000
      5 N2         6.5848   14.6506    4.3299 N.3       1 RES1    0.0000
      6 O4        11.7707    9.5142    7.5411 O.2       1 RES1    0.0000
      7 N3        10.8475    9.2422   -2.1767 N.3       1 RES1    0.0000
      8 N4        11.8990    9.6006    6.3319 N.pl3     1 RES1    0.0000
      9 C1         7.8694    9.4057    0.8263 C.ar      1 RES1    0.0000
     10 C2         7.5608   13.1056    2.7439 C.ar      1 RES1    0.0000
     11 H1         8.1330   13.7730    2.4445 H         1 RES1    0.0000
     12 C3         6.7936   10.8025    2.5675 C.ar      1 RES1    0.0000
     13 C4         6.9380    9.4058    2.0113 C.3       1 RES1    0.0000
     14 C5         8.0515    8.2673    0.0328 C.ar      1 RES1    0.0000
     15 H2         7.5180    7.5212    0.1911 H         1 RES1    0.0000
     16 C6         8.6765   10.4943    0.5278 C.ar      1 RES1    0.0000
     17 C7         9.4741    9.3848    6.0559 C.ar      1 RES1    0.0000
     18 H3         9.3702    9.5934    6.9568 H         1 RES1    0.0000
     19 C8         7.6238   11.8340    2.1790 C.ar      1 RES1    0.0000
     20 C9         6.6429   13.3799    3.7546 C.ar      1 RES1    0.0000
     21 C10        5.7866   12.3414    4.1590 C.ar      1 RES1    0.0000
     22 H4         5.1631   12.4908    4.8317 H         1 RES1    0.0000
     23 C11        5.3827    7.6449    2.5125 C.ar      1 RES1    0.0000
     24 C12        8.5650    8.7625    3.8979 C.ar      1 RES1    0.0000
     25 C13        5.8674   11.1004    3.5627 C.ar      1 RES1    0.0000
     26 H5         5.2787   10.4346    3.8367 H         1 RES1    0.0000
     27 O5        12.9461    9.9133    5.7817 O.2       1 RES1    0.0000
     28 C14        8.3749    9.1294    5.2343 C.ar      1 RES1    0.0000
     29 C15        8.9851    8.2071   -0.9704 C.ar      1 RES1    0.0000
     30 H6         9.0533    7.4364   -1.4863 H         1 RES1    0.0000
     31 C16        9.6400   10.4663   -0.4703 C.ar      1 RES1    0.0000
     32 H7        10.1536   11.2244   -0.6360 H         1 RES1    0.0000
     33 C17       10.7272    9.3145    5.4677 C.ar      1 RES1    0.0000
     34 C18        9.8427    8.6889    3.3685 C.ar      1 RES1    0.0000
     35 H8         9.9596    8.4379    2.4800 H         1 RES1    0.0000
     36 C19        6.5543    7.4631    3.4009 C.2       1 RES1    0.0000
     37 C20        3.2471    7.3107    1.5259 C.ar      1 RES1    0.0000
     38 H9         2.4506    6.8349    1.4550 H         1 RES1    0.0000
     39 C21       10.9541    8.9842    4.1547 C.ar      1 RES1    0.0000
     40 H10       11.8148    8.9595    3.8039 H         1 RES1    0.0000
     41 C22        4.6251    9.1604    0.8015 C.ar      1 RES1    0.0000
     42 H11        4.7572    9.9036    0.2593 H         1 RES1    0.0000
     43 C23        9.8488    9.3017   -1.2340 C.ar      1 RES1    0.0000
     44 C24        3.4573    8.4219    0.7261 C.ar      1 RES1    0.0000
     45 H12        2.7975    8.6781    0.1228 H         1 RES1    0.0000
     46 C25        5.5954    8.7559    1.7156 C.ar      1 RES1    0.0000
     47 C26       11.0179    8.0623   -3.0287 C.3       1 RES1    0.0000
     48 H13       11.4408    8.3370   -3.8571 H         1 RES1    0.0000
     49 H14       10.1403    7.7115   -3.2511 H         1 RES1    0.0000
     50 C27        4.2163    6.9020    2.4304 C.ar      1 RES1    0.0000
     51 H15        4.0861    6.1520    2.9659 H         1 RES1    0.0000
     52 C28        7.7090   15.5655    4.1956 C.3       1 RES1    0.0000
     53 H16        7.4470   16.4286    4.5505 H         1 RES1    0.0000
     54 H17        7.8992   15.6820    3.2525 H         1 RES1    0.0000
     55 C29       11.9490   10.1945   -2.1715 C.3       1 RES1    0.0000
     56 H18       12.7633    9.7263   -2.4145 H         1 RES1    0.0000
     57 H19       12.0628   10.5313   -1.2693 H         1 RES1    0.0000
     58 C30        6.8178    9.9751    6.8285 C.3       1 RES1    0.0000
     59 H20        5.8810    9.9282    7.0346 H         1 RES1    0.0000
     60 H21        7.0620   10.8880    6.6551 H         1 RES1    0.0000
     61 H22        7.3251    9.6437    7.5723 H         1 RES1    0.0000
     62 C31        8.9827   15.1245    4.8944 C.3       1 RES1    0.0000
     63 H23        9.6680   15.7819    4.7552 H         1 RES1    0.0000
     64 H24        9.2706   14.2817    4.5327 H         1 RES1    0.0000
     65 H25        8.8158   15.0296    5.8348 H         1 RES1    0.0000
     66 C32       11.8404    6.9494   -2.4117 C.3       1 RES1    0.0000
     67 H26       11.9031    6.2164   -3.0287 H         1 RES1    0.0000
     68 H27       11.4189    6.6512   -1.6024 H         1 RES1    0.0000
     69 H28       12.7212    7.2754   -2.2125 H         1 RES1    0.0000
     70 C33        6.0492   14.5673    6.7766 C.3       1 RES1    0.0000
     71 H29        5.3533   14.7931    7.3976 H         1 RES1    0.0000
     72 H30        6.8486   15.0467    7.0018 H         1 RES1    0.0000
     73 H31        6.2193   13.6228    6.8162 H         1 RES1    0.0000
     74 C34       11.7730   11.3711   -3.1051 C.3       1 RES1    0.0000
     75 H32       12.5387   11.9473   -3.0423 H         1 RES1    0.0000
     76 H33       10.9840   11.8603   -2.8594 H         1 RES1    0.0000
     77 H34       11.6856   11.0545   -4.0073 H         1 RES1    0.0000
     78 C35        5.6143   14.9422    5.3721 C.3       1 RES1    0.0000
     79 H35        4.7919   14.4703    5.1674 H         1 RES1    0.0000
     80 H36        5.4179   15.8918    5.3530 H         1 RES1    0.0000
@<TRIPOS>BOND
     1    1   16 1
     2    2   36 2
     3    3   28 1
     4    4   13 1
     5    5   20 1
     6    6    8 2
     7    7   43 1
     8    8   27 2
     9    9   13 1
    10   10   11 1
    11   12   13 1
    12   13   46 1
    13   14    9 ar
    14   15   14 1
    15   16    9 ar
    16   17   18 1
    17   19    1 1
    18   20   10 ar
    19   21   20 ar
    20   22   21 1
    21   23   36 1
    22   24    4 1
    23   25   12 ar
    24   26   25 1
    25   28   17 ar
    26   29   14 ar
    27   30   29 1
    28   31   16 ar
    29   32   31 1
    30   33    8 1
    31   34   24 ar
    32   35   34 1
    33   36    4 1
    34   37   38 1
    35   39   33 ar
    36   40   39 1
    37   41   42 1
    38   43   29 ar
    39   44   37 ar
    40   45   44 1
    41   46   23 ar
    42   47    7 1
    43   48   47 1
    44   49   47 1
    45   50   23 ar
    46   51   50 1
    47   52    5 1
    48   53   52 1
    49   54   52 1
    50   55    7 1
    51   56   55 1
    52   57   55 1
    53   58    3 1
    54   59   58 1
    55   60   58 1
    56   61   58 1
    57   62   52 1
    58   63   62 1
    59   64   62 1
    60   65   62 1
    61   66   47 1
    62   67   66 1
    63   68   66 1
    64   69   66 1
    65   70   71 1
    66   72   70 1
    67   73   70 1
    68   74   55 1
    69   75   74 1
    70   76   74 1
    71   77   74 1
    72   78    5 1
    73   79   78 1
    74   80   78 1
    75   10   19 ar
    76   12   19 ar
    77   17   33 ar
    78   21   25 ar
    79   24   28 ar
    80   31   43 ar
    81   34   39 ar
    82   37   50 ar
    83   41   44 ar
    84   41   46 ar
    85   70   78 1
@<TRIPOS>SUBSTRUCTURE
     1 RES1 1

@<TRIPOS>CRYSIN
   9.3760   12.0510   14.7830  70.8690  74.9400  78.8830   2 1

