# MOL2 file generated by ConQuest
# Please check atom types

@<TRIPOS>MOLECULE
TAJZUA
    21    21     1
SMALL
USER_CHARGES
****
Generated from CSD

@<TRIPOS>ATOM
      1 O1         1.8810    1.4979    4.9754 O.3       1 RES1    0.0000
      2 O2         5.7726    1.7009    2.4129 O.3       1 RES1    0.0000
      3 O3         1.4654    1.7195    7.4513 O.2       1 RES1   -1.0000
      4 C1         3.7293    2.7966    5.8665 C.ar      1 RES1    0.0000
      5 N1         2.1335    2.8400    7.7657 N.pl3     1 RES1    1.0000
      6 C2         5.7295    2.9524    4.4698 C.ar      1 RES1    0.0000
      7 C3         3.8728    1.5769    3.7749 C.ar      1 RES1    0.0000
      8 C4         5.0194    3.3073    5.5913 C.ar      1 RES1    0.0000
      9 C5         3.1335    3.2941    7.0851 C.2       1 RES1    0.0000
     10 C6         5.1457    2.0713    3.5530 C.ar      1 RES1    0.0000
     11 C7         3.1468    1.9419    4.9045 C.ar      1 RES1    0.0000
     12 C8         1.6524    3.4901    8.9897 C.3       1 RES1    0.0000
     13 H1         6.7194    3.3003    4.3232 H         1 RES1    0.0000
     14 H2         3.6003    4.0566    7.5466 H         1 RES1    0.0000
     15 H3         3.4457    0.8175    3.0843 H         1 RES1    0.0000
     16 H4         5.4790    3.9179    6.2904 H         1 RES1    0.0000
     17 H5         2.2689    4.2860    9.2939 H         1 RES1    0.0000
     18 H6         1.7407    2.7021    9.6929 H         1 RES1    0.0000
     19 H7         0.6335    3.7567    8.7088 H         1 RES1    0.0000
     20 H8         6.7873    1.8993    2.4092 H         1 RES1    0.0000
     21 H9         1.6331    1.6304    5.9702 H         1 RES1    0.0000
@<TRIPOS>BOND
     1    1   11 1
     2    2   10 1
     3    3    5 1
     4    4    8 ar
     5    5    9 2
     6    6    8 ar
     7    7   10 ar
     8    8   16 1
     9    9    4 1
    10   10    6 ar
    11   11    4 ar
    12   12    5 1
    13   13    6 1
    14   14    9 1
    15   15    7 1
    16   17   12 1
    17   18   12 1
    18   19   12 1
    19   20    2 1
    20   21    1 1
    21    7   11 ar
@<TRIPOS>SUBSTRUCTURE
     1 RES1 1

@<TRIPOS>CRYSIN
   9.5240    7.7490   11.1400  90.0000 113.3200  90.0000 231 1

