# MOL2 file generated by ConQuest
# Please check atom types

@<TRIPOS>MOLECULE
TALDUF
    38    38     1
SMALL
NO_CHARGES
****
Generated from CSD

@<TRIPOS>ATOM
      1 O1         6.9697    4.8296    2.9137 O.2       1 RES1    0.0000
      2 O2         2.9392    4.0793    6.3700 O.2       1 RES1    0.0000
      3 O3         4.0362    2.3431    7.2841 O.3       1 RES1    0.0000
      4 O4         2.9277   -4.9866   10.2406 O.3       1 RES1    0.0000
      5 N1         6.4339    4.1190    3.8244 N.3       1 RES1    0.0000
      6 C1         5.1447    4.4979    4.4372 C.3       1 RES1    0.0000
      7 C2         5.0263    3.3896    5.4575 C.2       1 RES1    0.0000
      8 C3         6.0074    2.5147    5.3805 C.2       1 RES1    0.0000
      9 C4         7.0247    2.8538    4.3277 C.3       1 RES1    0.0000
     10 C5         5.2548    5.8907    5.0484 C.3       1 RES1    0.0000
     11 C6         4.0461    4.4497    3.3793 C.3       1 RES1    0.0000
     12 C7         7.0822    1.8146    3.2047 C.3       1 RES1    0.0000
     13 C8         8.4126    3.1186    4.9149 C.3       1 RES1    0.0000
     14 C9         3.8825    3.3341    6.3905 C.2       1 RES1    0.0000
     15 C10        2.9105    2.1725    8.1949 C.3       1 RES1    0.0000
     16 C11        2.8587    0.7535    8.5407 C.1       1 RES1    0.0000
     17 C12        2.8094   -0.4186    8.7084 C.1       1 RES1    0.0000
     18 C13        2.7527   -1.7916    8.8557 C.1       1 RES1    0.0000
     19 C14        2.7420   -2.9700    8.9378 C.1       1 RES1    0.0000
     20 C15        2.7502   -4.4340    8.9755 C.3       1 RES1    0.0000
     21 H1         6.1430    1.7466    5.9095 H         1 RES1    0.0000
     22 H2         3.7798   -4.7176   10.5282 H         1 RES1    0.0000
     23 H3         4.4043    6.1178    5.4695 H         1 RES1    0.0000
     24 H4         5.4561    6.4893    4.3585 H         1 RES1    0.0000
     25 H5         6.0321    5.8981    5.7554 H         1 RES1    0.0000
     26 H6         3.9507    3.5560    2.9256 H         1 RES1    0.0000
     27 H7         4.2580    5.1435    2.6706 H         1 RES1    0.0000
     28 H8         3.2367    4.6883    3.8158 H         1 RES1    0.0000
     29 H9         7.6919    2.1359    2.4583 H         1 RES1    0.0000
     30 H10        6.1751    1.6210    2.8281 H         1 RES1    0.0000
     31 H11        7.4495    0.9565    3.5864 H         1 RES1    0.0000
     32 H12        9.0214    3.3980    4.1787 H         1 RES1    0.0000
     33 H13        8.7601    2.2751    5.2264 H         1 RES1    0.0000
     34 H14        8.3329    3.7015    5.6458 H         1 RES1    0.0000
     35 H15        2.0715    2.5053    7.7172 H         1 RES1    0.0000
     36 H16        3.1808    2.7167    9.0012 H         1 RES1    0.0000
     37 H17        1.9335   -4.8087    8.5835 H         1 RES1    0.0000
     38 H18        3.5917   -4.9301    8.5338 H         1 RES1    0.0000
@<TRIPOS>BOND
     1    1    5 1
     2    2   14 2
     3    3   14 1
     4    4   20 1
     5    5    6 1
     6    6    7 1
     7    7    8 2
     8    8    9 1
     9    9    5 1
    10   10    6 1
    11   11    6 1
    12   12    9 1
    13   13    9 1
    14   14    7 1
    15   15    3 1
    16   16   15 1
    17   17   16 3
    18   18   17 1
    19   19   18 3
    20   20   19 1
    21   21    8 1
    22   22    4 1
    23   23   10 1
    24   24   10 1
    25   25   10 1
    26   26   11 1
    27   27   11 1
    28   28   11 1
    29   29   12 1
    30   30   12 1
    31   31   12 1
    32   32   13 1
    33   33   13 1
    34   34   13 1
    35   35   15 1
    36   36   15 1
    37   37   20 1
    38   38   20 1
@<TRIPOS>SUBSTRUCTURE
     1 RES1 1

@<TRIPOS>CRYSIN
   8.2170   10.4650   17.1190  90.0000  90.0000  90.0000  19 1

