# MOL2 file generated by ConQuest
# Please check atom types

@<TRIPOS>MOLECULE
TALDIW
    25    25     1
SMALL
NO_CHARGES
****
Generated from CSD

@<TRIPOS>ATOM
      1 C1         3.9975    5.0812    9.1145 C.3       1 RES1    0.0000
      2 H1         3.6670    5.1519   10.0562 H         1 RES1    0.0000
      3 C2         3.3627    3.8624    8.4489 C.3       1 RES1    0.0000
      4 H2         2.3668    3.9394    8.4911 H         1 RES1    0.0000
      5 C3         3.8109    3.8266    6.9868 C.3       1 RES1    0.0000
      6 H3         4.8028    3.7048    6.9449 H         1 RES1    0.0000
      7 C4         3.4258    5.1152    6.2670 C.3       1 RES1    0.0000
      8 H4         2.4315    5.2173    6.2473 H         1 RES1    0.0000
      9 C5         4.0637    6.2883    7.0159 C.3       1 RES1    0.0000
     10 H5         5.0595    6.2042    6.9864 H         1 RES1    0.0000
     11 C6         3.6510    7.6368    6.4659 C.3       1 RES1    0.0000
     12 H6         4.0291    8.3597    7.0261 H         1 RES1    0.0000
     13 H7         3.9975    7.7454    5.5442 H         1 RES1    0.0000
     14 N1         3.1345    2.6686    6.3090 N.pl3     1 RES1    0.0000
     15 O1         3.6134    6.2563    8.3898 O.3       1 RES1    0.0000
     16 O2         5.3794    4.9152    9.1258 O.3       1 RES1    0.0000
     17 H8         5.7064    5.6060    9.6271 H         1 RES1    0.0000
     18 O3         3.7758    2.6657    9.0964 O.3       1 RES1    0.0000
     19 H9         3.1190    2.2925    9.2737 H         1 RES1    0.0000
     20 O4         3.9358    4.9888    4.9432 O.3       1 RES1    0.0000
     21 H10        3.7458    5.7224    4.5612 H         1 RES1    0.0000
     22 O5         2.2319    7.7197    6.4619 O.3       1 RES1    0.0000
     23 H11        2.0358    8.2836    5.8750 H         1 RES1    0.0000
     24 O6         3.8270    1.7854    5.8389 O.2       1 RES1    0.0000
     25 O7         1.9035    2.6729    6.2513 O.2       1 RES1    0.0000
@<TRIPOS>BOND
     1    1    2 1
     2    3    1 1
     3    4    3 1
     4    5    3 1
     5    6    5 1
     6    7    5 1
     7    8    7 1
     8    9    7 1
     9   10    9 1
    10   11    9 1
    11   12   11 1
    12   13   11 1
    13   14    5 1
    14   15    1 1
    15   16    1 1
    16   17   16 1
    17   18    3 1
    18   19   18 1
    19   20    7 1
    20   21   20 1
    21   22   11 1
    22   23   22 1
    23   24   14 2
    24   25   14 2
    25    9   15 1
@<TRIPOS>SUBSTRUCTURE
     1 RES1 1

@<TRIPOS>CRYSIN
   5.0144    8.9552   18.9027  90.0000  90.0000  90.0000  19 1

