# MOL2 file generated by ConQuest
# Please check atom types

@<TRIPOS>MOLECULE
TALDOC
    23    23     1
SMALL
NO_CHARGES
****
Generated from CSD

@<TRIPOS>ATOM
      1 C1         1.6337    3.6737   10.1221 C.3       1 RES1    0.0000
      2 H1         1.2942    3.6782    9.1808 H         1 RES1    0.0000
      3 C2         1.0534    4.8779   10.8570 C.3       1 RES1    0.0000
      4 H2         0.0548    4.8474   10.8093 H         1 RES1    0.0000
      5 C3         1.4907    4.8211   12.3075 C.3       1 RES1    0.0000
      6 H3         2.4843    4.9201   12.3609 H         1 RES1    0.0000
      7 C4         1.0749    3.4950   12.9429 C.3       1 RES1    0.0000
      8 H4         1.4089    3.4515   13.8741 H         1 RES1    0.0000
      9 H5         0.0872    3.4306   12.9646 H         1 RES1    0.0000
     10 C5         1.6462    2.3401   12.1379 C.3       1 RES1    0.0000
     11 H6         2.6448    2.3685   12.1821 H         1 RES1    0.0000
     12 C6         1.1631    0.9936   12.6176 C.3       1 RES1    0.0000
     13 H7         0.1855    0.9601   12.5647 H         1 RES1    0.0000
     14 H8         1.4458    0.8572   13.5453 H         1 RES1    0.0000
     15 H9         1.5450    0.2894   12.0533 H         1 RES1    0.0000
     16 N1         0.8311    5.9286   13.0921 N.pl3     1 RES1    0.0000
     17 O1         1.2209    2.4630   10.7518 O.3       1 RES1    0.0000
     18 O2         3.0187    3.8014   10.0968 O.3       1 RES1    0.0000
     19 H10        3.3702    3.2115    9.5134 H         1 RES1    0.0000
     20 O3         1.5186    6.0840   10.2637 O.3       1 RES1    0.0000
     21 H11        0.8874    6.4230    9.8576 H         1 RES1    0.0000
     22 O4        -0.3096    6.2606   12.8024 O.2       1 RES1    0.0000
     23 O5         1.4707    6.4073   14.0221 O.2       1 RES1    0.0000
@<TRIPOS>BOND
     1    1    2 1
     2    3    1 1
     3    4    3 1
     4    5    3 1
     5    6    5 1
     6    7    5 1
     7    8    7 1
     8    9    7 1
     9   10    7 1
    10   11   10 1
    11   12   10 1
    12   13   12 1
    13   14   12 1
    14   15   12 1
    15   16    5 1
    16   17    1 1
    17   18    1 1
    18   19   18 1
    19   20    3 1
    20   21   20 1
    21   22   16 2
    22   23   16 2
    23   10   17 1
@<TRIPOS>SUBSTRUCTURE
     1 RES1 1

@<TRIPOS>CRYSIN
   4.9855    8.3633   19.2268  90.0000  90.0000  90.0000  19 1

