# MOL2 file generated by ConQuest
# Please check atom types

@<TRIPOS>MOLECULE
TALDES
    24    24     1
SMALL
NO_CHARGES
****
Generated from CSD

@<TRIPOS>ATOM
      1 C1         1.4846    3.7601    9.3890 C.3       1 RES1    0.0000
      2 H1         1.9489    3.6684   10.2704 H         1 RES1    0.0000
      3 C2         2.0383    4.9789    8.6686 C.3       1 RES1    0.0000
      4 H2         3.0307    4.8898    8.5807 H         1 RES1    0.0000
      5 C3         1.4139    5.0514    7.2822 C.3       1 RES1    0.0000
      6 H3         0.4338    5.2270    7.3768 H         1 RES1    0.0000
      7 C4         1.6119    3.7645    6.4874 C.3       1 RES1    0.0000
      8 H4         2.5812    3.6326    6.2791 H         1 RES1    0.0000
      9 C5         1.0813    2.5868    7.3123 C.3       1 RES1    0.0000
     10 H5         0.0953    2.6891    7.4417 H         1 RES1    0.0000
     11 C6         1.3687    1.2467    6.6861 C.3       1 RES1    0.0000
     12 H6         0.8838    1.1724    5.8385 H         1 RES1    0.0000
     13 H7         1.0784    0.5338    7.2922 H         1 RES1    0.0000
     14 H8         2.3311    1.1628    6.5211 H         1 RES1    0.0000
     15 N1         2.0388    6.1764    6.5085 N.pl3     1 RES1    0.0000
     16 O1         1.7431    2.5920    8.6082 O.3       1 RES1    0.0000
     17 O2         0.1282    3.9565    9.6172 O.3       1 RES1    0.0000
     18 O3         1.7327    6.1769    9.3703 O.3       1 RES1    0.0000
     19 O4         0.8710    3.9296    5.2940 O.3       1 RES1    0.0000
     20 O5         3.2660    6.2671    6.5126 O.2       1 RES1    0.0000
     21 O6         1.3152    6.9219    5.8780 O.2       1 RES1    0.0000
     22 H9        -0.1376    3.3635   10.1839 H         1 RES1    0.0000
     23 H10        2.4515    6.5436    9.6232 H         1 RES1    0.0000
     24 H11        1.0710    3.3373    4.7113 H         1 RES1    0.0000
@<TRIPOS>BOND
     1    1    2 1
     2    3    1 1
     3    4    3 1
     4    5    3 1
     5    6    5 1
     6    7    5 1
     7    8    7 1
     8    9    7 1
     9   10    9 1
    10   11    9 1
    11   12   11 1
    12   13   11 1
    13   14   11 1
    14   15    5 1
    15   16    1 1
    16   17    1 1
    17   18    3 1
    18   19    7 1
    19   20   15 2
    20   21   15 2
    21   22   17 1
    22   23   18 1
    23   24   19 1
    24    9   16 1
@<TRIPOS>SUBSTRUCTURE
     1 RES1 1

@<TRIPOS>CRYSIN
   4.9128    8.7364   19.6714  90.0000  90.0000  90.0000  19 1

