# MOL2 file generated by ConQuest
# Please check atom types

@<TRIPOS>MOLECULE
TAMSUX
    64    66     1
SMALL
NO_CHARGES
****
Generated from CSD

@<TRIPOS>ATOM
      1 O1         3.3658    0.2424   15.0192 O.3       1 RES1    0.0000
      2 O2         1.0625   -2.1588   16.8703 O.2       1 RES1    0.0000
      3 O3         3.6247    0.2727   18.6096 O.3       1 RES1    0.0000
      4 O4         2.8814    2.5722   17.5026 O.3       1 RES1    0.0000
      5 O5         3.8829   -5.7200   16.6918 O.2       1 RES1    0.0000
      6 O6         0.7414   11.5493   12.7553 O.2       1 RES1    0.0000
      7 O7        -1.1781   11.0212   11.9087 O.2       1 RES1    0.0000
      8 O8         5.4832    3.3350   11.9601 O.2       1 RES1    0.0000
      9 O9         3.6328    3.2138   10.6714 O.3       1 RES1    0.0000
     10 O10        3.2841    5.2363   13.1754 O.2       1 RES1    0.0000
     11 N1         3.2383   -1.7703   16.2504 N.am      1 RES1    0.0000
     12 N2         2.4793   -3.9334   16.6444 N.am      1 RES1    0.0000
     13 N3        -0.1068   10.7247   12.4327 N.pl3     1 RES1    0.0000
     14 N4         2.1444    3.2863   12.9827 N.am      1 RES1    0.0000
     15 N5         0.9827    5.2752   13.1156 N.am      1 RES1    0.0000
     16 C1         0.7728    6.6528   13.0113 C.ar      1 RES1    0.0000
     17 C2         3.0385   -0.3268   16.2855 C.3       1 RES1    0.0000
     18 H1         2.0816   -0.1299   16.4977 H         1 RES1    0.0000
     19 C3         2.1752   -2.5819   16.6096 C.2       1 RES1    0.0000
     20 C4        -0.5089    7.0477   12.6355 C.ar      1 RES1    0.0000
     21 H2        -1.1812    6.3920   12.4928 H         1 RES1    0.0000
     22 C5         3.9394    0.4426   17.2487 C.3       1 RES1    0.0000
     23 H3         4.8787    0.1288   17.1097 H         1 RES1    0.0000
     24 C6        -0.8130    8.3917   12.4649 C.ar      1 RES1    0.0000
     25 H4        -1.6813    8.6655   12.1959 H         1 RES1    0.0000
     26 C7         3.8351    1.8893   16.7067 C.3       1 RES1    0.0000
     27 H5         4.7223    2.3503   16.7222 H         1 RES1    0.0000
     28 C8         3.7139   -4.5199   16.4749 C.2       1 RES1    0.0000
     29 C9         0.1822    9.3147   12.6988 C.ar      1 RES1    0.0000
     30 C10        3.3312    1.6957   15.2792 C.3       1 RES1    0.0000
     31 H6         2.3794    1.9997   15.2376 H         1 RES1    0.0000
     32 C11        4.7418   -3.6034   16.0400 C.2       1 RES1    0.0000
     33 H7         5.6051   -3.9280   15.8133 H         1 RES1    0.0000
     34 C12        1.4457    8.9609   13.1330 C.ar      1 RES1    0.0000
     35 H8         2.0985    9.6253   13.3220 H         1 RES1    0.0000
     36 C13        4.1103    2.4369   14.2273 C.3       1 RES1    0.0000
     37 H9         4.9805    1.9846   14.0969 H         1 RES1    0.0000
     38 H10        4.2944    3.3534   14.5532 H         1 RES1    0.0000
     39 C14        4.4704   -2.2854   15.9582 C.2       1 RES1    0.0000
     40 H11        5.1615   -1.6924   15.6866 H         1 RES1    0.0000
     41 C15        1.7391    7.6158   13.2873 C.ar      1 RES1    0.0000
     42 H12        2.6018    7.3507   13.5827 H         1 RES1    0.0000
     43 C16        3.4022    2.5256   12.8994 C.3       1 RES1    0.0000
     44 H13        3.1654    1.5929   12.6304 H         1 RES1    0.0000
     45 C17        4.3095    3.0970   11.8080 C.2       1 RES1    0.0000
     46 C18        4.2881    3.6304    9.4185 C.3       1 RES1    0.0000
     47 C19        4.9221    5.0080    9.5684 C.3       1 RES1    0.0000
     48 H14        5.1489    5.3618    8.6834 H         1 RES1    0.0000
     49 H15        5.7358    4.9355   10.1101 H         1 RES1    0.0000
     50 H16        4.2888    5.6129   10.0087 H         1 RES1    0.0000
     51 C20        3.1352    3.6997    8.4527 C.3       1 RES1    0.0000
     52 H17        3.4657    3.9627    7.5681 H         1 RES1    0.0000
     53 H18        2.4849    4.3619    8.7667 H         1 RES1    0.0000
     54 H19        2.7055    2.8210    8.3937 H         1 RES1    0.0000
     55 C21        5.2928    2.5743    9.0234 C.3       1 RES1    0.0000
     56 H20        5.6195    2.7572    8.1185 H         1 RES1    0.0000
     57 H21        4.8662    1.6935    9.0455 H         1 RES1    0.0000
     58 H22        6.0455    2.5884    9.6502 H         1 RES1    0.0000
     59 C22        2.2148    4.6411   13.0957 C.2       1 RES1    0.0000
     60 H23        1.7215   -4.4041   16.8381 H         1 RES1    0.0000
     61 H24        1.3069    2.9866   12.8984 H         1 RES1    0.0000
     62 H25        0.2827    4.7721   12.8368 H         1 RES1    0.0000
     63 H26        2.9216    0.6709   18.8008 H         1 RES1    0.0000
     64 H27        2.8650    3.3870   17.3451 H         1 RES1    0.0000
@<TRIPOS>BOND
     1    1   17 1
     2    2   19 2
     3    3   22 1
     4    4   26 1
     5    5   28 2
     6    6   13 2
     7    7   13 2
     8    8   45 2
     9    9   45 1
    10   10   59 2
    11   11   17 1
    12   12   19 1
    13   13   29 1
    14   14   43 1
    15   15   16 1
    16   16   20 ar
    17   17   18 1
    18   19   11 1
    19   20   21 1
    20   22   17 1
    21   23   22 1
    22   24   20 ar
    23   25   24 1
    24   26   22 1
    25   27   26 1
    26   28   12 1
    27   29   24 ar
    28   30    1 1
    29   31   30 1
    30   32   28 1
    31   33   32 1
    32   34   29 ar
    33   35   34 1
    34   36   30 1
    35   37   36 1
    36   38   36 1
    37   39   11 1
    38   40   39 1
    39   41   16 ar
    40   42   41 1
    41   43   36 1
    42   44   43 1
    43   45   43 1
    44   46    9 1
    45   47   46 1
    46   48   47 1
    47   49   47 1
    48   50   47 1
    49   51   46 1
    50   52   51 1
    51   53   51 1
    52   54   51 1
    53   55   46 1
    54   56   55 1
    55   57   55 1
    56   58   55 1
    57   59   14 1
    58   60   12 1
    59   61   14 1
    60   62   15 1
    61   63    3 1
    62   64    4 1
    63   15   59 1
    64   26   30 1
    65   32   39 2
    66   34   41 ar
@<TRIPOS>SUBSTRUCTURE
     1 RES1 1

@<TRIPOS>CRYSIN
   6.2830   10.8210   36.2110  90.0000  90.0000  90.0000  19 1

