# MOL2 file generated by ConQuest
# Please check atom types

@<TRIPOS>MOLECULE
TANGAQ
    22    24     1
SMALL
NO_CHARGES
****
Generated from CSD

@<TRIPOS>ATOM
      1 O1        -0.2208   -0.8922   12.3400 O.2       1 RES1    0.0000
      2 O2        -0.6796   -1.2440   10.2660 O.2       1 RES1    0.0000
      3 O3         2.7316    4.5057    8.6324 O.2       1 RES1    0.0000
      4 O4         3.9604    4.2192   10.4740 O.3       1 RES1    0.0000
      5 O5         3.9569    7.5032    9.3319 O.2       1 RES1    0.0000
      6 N1        -0.1311   -0.6143   11.1459 N.pl3     1 RES1    0.0000
      7 C1         0.6677    0.5696   10.7871 C.ar      1 RES1    0.0000
      8 C2         0.6856    0.9437    9.4720 C.ar      1 RES1    0.0000
      9 C3         1.4415    2.0435    9.1165 C.ar      1 RES1    0.0000
     10 C4         2.1990    2.7041   10.0717 C.ar      1 RES1    0.0000
     11 C5         2.1842    2.2872   11.3762 C.ar      1 RES1    0.0000
     12 C6         1.3960    1.1993   11.7434 C.ar      1 RES1    0.0000
     13 C7         2.9741    3.9017    9.6334 C.2       1 RES1    0.0000
     14 C8         4.7418    5.4082   10.1481 C.3       1 RES1    0.0000
     15 C9         5.8099    5.5146   11.2679 C.3       1 RES1    0.0000
     16 C10        6.5880    6.8134   10.9803 C.2       1 RES1    0.0000
     17 C11        7.2812    6.6007    9.8828 C.2       1 RES1    0.0000
     18 C12        7.0164    5.1766    9.4476 C.3       1 RES1    0.0000
     19 C13        5.6018    5.2006    8.8819 C.3       1 RES1    0.0000
     20 C14        6.8491    4.5194   10.7531 C.3       1 RES1    0.0000
     21 C15        3.8360    6.6196   10.1375 C.2       1 RES1    0.0000
     22 C16        2.8266    6.7019   11.2382 C.3       1 RES1    0.0000
@<TRIPOS>BOND
     1    1    6 2
     2    2    6 2
     3    3   13 2
     4    4   13 1
     5    5   21 2
     6    6    7 1
     7    7    8 ar
     8    8    9 ar
     9    9   10 ar
    10   10   11 ar
    11   11   12 ar
    12   12    7 ar
    13   13   10 1
    14   14    4 1
    15   15   14 1
    16   16   15 1
    17   17   16 2
    18   18   17 1
    19   19   14 1
    20   20   15 1
    21   21   14 1
    22   22   21 1
    23   18   19 1
    24   18   20 1
@<TRIPOS>SUBSTRUCTURE
     1 RES1 1

@<TRIPOS>CRYSIN
   7.8560   17.1580   10.7270  90.0000  98.3200  90.0000  14 1

