# MOL2 file generated by ConQuest
# Please check atom types

@<TRIPOS>MOLECULE
TANHAR
    20    21     1
SMALL
NO_CHARGES
****
Generated from CSD

@<TRIPOS>ATOM
      1 C1         7.7456    1.5810   16.9629 C.3       1 RES1    0.0000
      2 C2         6.8428    1.2444   15.8293 C.2       1 RES1    0.0000
      3 C3         6.3787    2.0524   16.7117 C.2       1 RES1    0.0000
      4 C4         8.9092    2.4362   16.8787 C.1       1 RES1    0.0000
      5 C5         6.7494    0.4116   14.6497 C.ar      1 RES1    0.0000
      6 C6         7.8175   -0.3645   14.2361 C.ar      1 RES1    0.0000
      7 C7         7.6649   -1.1953   13.1393 C.ar      1 RES1    0.0000
      8 C8         6.4772   -1.2378   12.4514 C.ar      1 RES1    0.0000
      9 C9         5.4254   -0.4557   12.8528 C.ar      1 RES1    0.0000
     10 C10        5.5462    0.3716   13.9527 C.ar      1 RES1    0.0000
     11 N1         9.7714    3.1712   16.7791 N.1       1 RES1    0.0000
     12 N2         7.9296    0.5368   18.0356 N.pl3     1 RES1    0.0000
     13 O1         7.0406   -0.2813   18.1713 O.2       1 RES1    0.0000
     14 O2         8.9381    0.5814   18.7087 O.2       1 RES1    0.0000
     15 H1         5.6400    2.5913   17.0181 H         1 RES1    0.0000
     16 H2         8.6503   -0.3158   14.7003 H         1 RES1    0.0000
     17 H3         8.3932   -1.7518   12.8681 H         1 RES1    0.0000
     18 H4         6.3709   -1.8086   11.6870 H         1 RES1    0.0000
     19 H5         4.5930   -0.4755   12.3718 H         1 RES1    0.0000
     20 H6         4.8142    0.9251   14.2254 H         1 RES1    0.0000
@<TRIPOS>BOND
     1    1    2 1
     2    2    3 2
     3    3    1 1
     4    4    1 1
     5    5    2 1
     6    6    5 ar
     7    7    6 ar
     8    8    7 ar
     9    9    8 ar
    10   10    5 ar
    11   11    4 3
    12   12    1 1
    13   13   12 2
    14   14   12 2
    15   15    3 1
    16   16    6 1
    17   17    7 1
    18   18    8 1
    19   19    9 1
    20   20   10 1
    21    9   10 ar
@<TRIPOS>SUBSTRUCTURE
     1 RES1 1

@<TRIPOS>CRYSIN
  11.6490    5.0690   15.3890  90.0000  95.4600  90.0000 231 1

