# MOL2 file generated by ConQuest
# Please check atom types

@<TRIPOS>MOLECULE
TAPDUJ
    18    18     1
SMALL
NO_CHARGES
****
Generated from CSD

@<TRIPOS>ATOM
      1 O1         4.0356    9.6701   -0.0421 O.2       1 RES1    0.0000
      2 O2         1.9181    5.5976   -0.0334 O.3       1 RES1    0.0000
      3 N1         4.0732    8.3773    0.0401 N.pl3     1 RES1    0.0000
      4 N2         4.2382    5.6145   -0.0267 N.ar      1 RES1    0.0000
      5 C1         5.3277    6.3990    0.0267 C.ar      1 RES1    0.0000
      6 C2         5.2829    7.7441   -0.0669 C.ar      1 RES1    0.0000
      7 C3         2.9541    7.6475   -0.1070 C.ar      1 RES1    0.0000
      8 C4         3.0998    6.2667   -0.0468 C.ar      1 RES1    0.0000
      9 C5         6.6663    5.7010    0.0334 C.3       1 RES1    0.0000
     10 C6         1.9638    4.1473   -0.1351 C.3       1 RES1    0.0000
     11 H1         6.0843    8.3531   -0.2608 H         1 RES1    0.0000
     12 H2         2.1055    8.1878    0.2541 H         1 RES1    0.0000
     13 H3         6.7567    5.4289    0.8023 H         1 RES1    0.0000
     14 H4         6.6286    4.8695   -0.6218 H         1 RES1    0.0000
     15 H5         7.4452    6.3570   -0.7087 H         1 RES1    0.0000
     16 H6         1.1208    3.8142    0.5015 H         1 RES1    0.0000
     17 H7         2.6178    3.9795   -1.1567 H         1 RES1    0.0000
     18 H8         2.4977    3.6998    0.0669 H         1 RES1    0.0000
@<TRIPOS>BOND
     1    1    3 1
     2    2    8 1
     3    3    6 ar
     4    4    5 ar
     5    5    6 ar
     6    6   11 1
     7    7    3 ar
     8    8    4 ar
     9    9    5 1
    10   10    2 1
    11   12    7 1
    12   13    9 1
    13   14    9 1
    14   15    9 1
    15   16   10 1
    16   17   10 1
    17   18   10 1
    18    7    8 ar
@<TRIPOS>SUBSTRUCTURE
     1 RES1 1

@<TRIPOS>CRYSIN
   8.0056   12.7140    6.6861  90.0000  90.0000  90.0000  33 1

