# MOL2 file generated by ConQuest
# Please check atom types

@<TRIPOS>MOLECULE
TAPMON
    29    30     1
SMALL
NO_CHARGES
****
Generated from CSD

@<TRIPOS>ATOM
      1 N1        11.7098    1.6920    4.2637 N.pl3     1 RES1    0.0000
      2 C1        10.4428    1.2563    4.8390 C.ar      1 RES1    0.0000
      3 O1        12.4716    2.3669    4.9512 O.2       1 RES1    0.0000
      4 O2        11.9726    1.3598    3.1089 O.2       1 RES1    0.0000
      5 C2         9.5806    0.4891    4.0652 C.ar      1 RES1    0.0000
      6 O3         6.8647   -0.0463    6.3805 O.3       1 RES1    0.0000
      7 C3         8.3816    0.0824    4.6129 C.ar      1 RES1    0.0000
      8 O4         5.1083    0.6780   11.5774 O.3       1 RES1    0.0000
      9 C4         8.0746    0.4151    5.9362 C.ar      1 RES1    0.0000
     10 C5         8.9530    1.1730    6.7022 C.ar      1 RES1    0.0000
     11 C6        10.1473    1.6057    6.1449 C.ar      1 RES1    0.0000
     12 C7         6.5031    0.1623    7.7216 C.ar      1 RES1    0.0000
     13 C8         7.1392   -0.5199    8.7409 C.ar      1 RES1    0.0000
     14 C9         6.7062   -0.3606   10.0552 C.ar      1 RES1    0.0000
     15 C10        5.6199    0.4689   10.3283 C.ar      1 RES1    0.0000
     16 C11        4.9899    1.1543    9.2870 C.ar      1 RES1    0.0000
     17 C12        5.4269    1.0013    7.9826 C.ar      1 RES1    0.0000
     18 C13        5.5870   -0.1687   12.6230 C.3       1 RES1    0.0000
     19 H1        10.7459    2.1329    6.6375 H         1 RES1    0.0000
     20 H2         5.0544    0.0748   13.4147 H         1 RES1    0.0000
     21 H3         7.8948   -1.1076    8.5286 H         1 RES1    0.0000
     22 H4         9.8094    0.2470    3.1683 H         1 RES1    0.0000
     23 H5         5.4228   -1.1226   12.4023 H         1 RES1    0.0000
     24 H6         6.5262   -0.0075   12.7707 H         1 RES1    0.0000
     25 H7         8.7416    1.3935    7.5969 H         1 RES1    0.0000
     26 H8         4.9918    1.4668    7.2551 H         1 RES1    0.0000
     27 H9         4.2489    1.7452    9.5001 H         1 RES1    0.0000
     28 H10        7.7527   -0.4251    4.0988 H         1 RES1    0.0000
     29 H11        7.1665   -0.8142   10.7448 H         1 RES1    0.0000
@<TRIPOS>BOND
     1    1    2 1
     2    2    5 ar
     3    3    1 2
     4    4    1 2
     5    5    7 ar
     6    6    9 1
     7    7    9 ar
     8    8   15 1
     9    9   10 ar
    10   10   11 ar
    11   11    2 ar
    12   12    6 1
    13   13   12 ar
    14   14   13 ar
    15   15   14 ar
    16   16   15 ar
    17   17   12 ar
    18   18    8 1
    19   19   11 1
    20   20   18 1
    21   21   13 1
    22   22    5 1
    23   23   18 1
    24   24   18 1
    25   25   10 1
    26   26   17 1
    27   27   16 1
    28   28    7 1
    29   29   14 1
    30   16   17 ar
@<TRIPOS>SUBSTRUCTURE
     1 RES1 1

@<TRIPOS>CRYSIN
  12.3992    7.4839   12.2812  90.0000 101.4310  90.0000  14 1

