# MOL2 file generated by ConQuest
# Please check atom types

@<TRIPOS>MOLECULE
TAPPOQ
    28    29     1
SMALL
NO_CHARGES
****
Generated from CSD

@<TRIPOS>ATOM
      1 O1        -0.4445    3.0978    4.4485 O.3       1 RES1    0.0000
      2 O2        -3.5599    6.2394    8.8233 O.2       1 RES1    0.0000
      3 N1        -2.4003    6.4205    8.4460 N.pl3     1 RES1    0.0000
      4 O3        -1.6700    7.2893    8.9215 O.2       1 RES1    0.0000
      5 C1        -0.5936    5.7978    6.9299 C.ar      1 RES1    0.0000
      6 H1        -0.0784    6.5130    7.2846 H         1 RES1    0.0000
      7 C2        -0.8529    3.9511    5.4334 C.ar      1 RES1    0.0000
      8 C3        -1.8673    5.5607    7.3988 C.ar      1 RES1    0.0000
      9 C4         1.0024    4.2547    2.9022 C.ar      1 RES1    0.0000
     10 H2         0.3069    4.8663    2.6921 H         1 RES1    0.0000
     11 C5         0.8148    3.2775    3.8593 C.ar      1 RES1    0.0000
     12 C6         3.0219    2.4605    3.5152 C.ar      1 RES1    0.0000
     13 H3         3.7091    1.8394    3.7257 H         1 RES1    0.0000
     14 C7        -2.1338    3.7173    5.9253 C.ar      1 RES1    0.0000
     15 H4        -2.6510    2.9994    5.5804 H         1 RES1    0.0000
     16 C8         1.8153    2.3821    4.1822 C.ar      1 RES1    0.0000
     17 H5         1.6755    1.7230    4.8526 H         1 RES1    0.0000
     18 C9         3.2552    3.4274    2.5423 C.ar      1 RES1    0.0000
     19 C10        2.2286    4.3257    2.2536 C.ar      1 RES1    0.0000
     20 H6         2.3712    5.0004    1.5995 H         1 RES1    0.0000
     21 C11       -0.0717    4.9861    5.9394 C.ar      1 RES1    0.0000
     22 H7         0.8069    5.1327    5.6098 H         1 RES1    0.0000
     23 C12       -2.6502    4.5251    6.9089 C.ar      1 RES1    0.0000
     24 H8        -3.5257    4.3778    7.2470 H         1 RES1    0.0000
     25 C13        4.5662    3.4695    1.8045 C.3       1 RES1    0.0000
     26 H9         5.3034    3.3742    2.4435 H         1 RES1    0.0000
     27 H10        4.6492    4.3254    1.3346 H         1 RES1    0.0000
     28 H11        4.5993    2.7365    1.1547 H         1 RES1    0.0000
@<TRIPOS>BOND
     1    1    7 1
     2    2    3 2
     3    3    4 2
     4    5    6 1
     5    7   14 ar
     6    8    3 1
     7    9   10 1
     8   11    1 1
     9   12   13 1
    10   14   15 1
    11   16   11 ar
    12   17   16 1
    13   18   12 ar
    14   19    9 ar
    15   20   19 1
    16   21    5 ar
    17   22   21 1
    18   23    8 ar
    19   24   23 1
    20   25   18 1
    21   26   25 1
    22   27   25 1
    23   28   25 1
    24    5    8 ar
    25    7   21 ar
    26    9   11 ar
    27   12   16 ar
    28   14   23 ar
    29   18   19 ar
@<TRIPOS>SUBSTRUCTURE
     1 RES1 1

@<TRIPOS>CRYSIN
   7.6100    8.8817   16.4100  90.0000  94.6820  90.0000  14 1

