# MOL2 file generated by ConQuest
# Please check atom types

@<TRIPOS>MOLECULE
TAPSAH
    45    48     1
SMALL
NO_CHARGES
****
Generated from CSD

@<TRIPOS>ATOM
      1 N1         1.4095    1.4735    0.4896 N.pl3     1 RES1    0.0000
      2 O1        -1.5043    1.7672    5.1884 O.3       1 RES1    0.0000
      3 O2        -2.0688    2.5254    3.0831 O.3       1 RES1    0.0000
      4 O3         1.2461   -0.4134    4.4752 O.2       1 RES1    0.0000
      5 O4         2.8527    3.5046    4.7026 O.2       1 RES1    0.0000
      6 O5         1.0644    1.0903   -0.6165 O.2       1 RES1    0.0000
      7 O6         2.0922    0.7987    1.2563 O.2       1 RES1    0.0000
      8 C1        -0.4558    2.5618    5.5223 C.2       1 RES1    0.0000
      9 C2        -0.6786    3.2137    6.8517 C.3       1 RES1    0.0000
     10 H1        -0.4819    2.5809    7.5598 H         1 RES1    0.0000
     11 H2        -1.6095    3.4756    6.9327 H         1 RES1    0.0000
     12 C3         0.2066    4.4360    7.0040 C.3       1 RES1    0.0000
     13 H3        -0.1099    5.1417    6.4177 H         1 RES1    0.0000
     14 H4         0.1602    4.7590    7.9177 H         1 RES1    0.0000
     15 C4         1.6411    4.0960    6.6591 C.3       1 RES1    0.0000
     16 H5         2.1721    4.9071    6.6810 H         1 RES1    0.0000
     17 H6         1.9931    3.4934    7.3329 H         1 RES1    0.0000
     18 C5         1.7849    3.4519    5.3024 C.2       1 RES1    0.0000
     19 C6         0.6305    2.7335    4.7522 C.2       1 RES1    0.0000
     20 C7         0.7709    2.0991    3.3885 C.3       1 RES1    0.0000
     21 H7         1.6522    1.6710    3.3638 H         1 RES1    0.0000
     22 C8        -0.2733    0.9782    3.2385 C.3       1 RES1    0.0000
     23 H8        -0.3770    0.7869    2.2828 H         1 RES1    0.0000
     24 C9        -1.6359    1.3950    3.7879 C.3       1 RES1    0.0000
     25 C10       -2.6557    0.2767    3.7625 C.3       1 RES1    0.0000
     26 H9        -2.8604    0.0547    2.8400 H         1 RES1    0.0000
     27 H10       -3.4746    0.5838    4.1829 H         1 RES1    0.0000
     28 C11       -2.1679   -0.9737    4.4792 C.3       1 RES1    0.0000
     29 H11       -2.8263   -1.6794    4.3823 H         1 RES1    0.0000
     30 H12       -2.0664   -0.7855    5.4254 H         1 RES1    0.0000
     31 C12       -0.8264   -1.4445    3.9062 C.3       1 RES1    0.0000
     32 H13       -0.4920   -2.1907    4.4288 H         1 RES1    0.0000
     33 H14       -0.9498   -1.7471    2.9928 H         1 RES1    0.0000
     34 C13        0.1725   -0.3178    3.9357 C.2       1 RES1    0.0000
     35 C14        0.7458    3.1297    2.2499 C.ar      1 RES1    0.0000
     36 C15        0.4239    4.4571    2.5093 C.ar      1 RES1    0.0000
     37 H15        0.2095    4.7059    3.3798 H         1 RES1    0.0000
     38 C16        0.4122    5.4238    1.5109 C.ar      1 RES1    0.0000
     39 H16        0.2224    6.3086    1.7285 H         1 RES1    0.0000
     40 C17        0.6774    5.0872    0.2057 C.ar      1 RES1    0.0000
     41 H17        0.6562    5.7367   -0.4598 H         1 RES1    0.0000
     42 C18        0.9763    3.7774   -0.1096 C.ar      1 RES1    0.0000
     43 H18        1.1451    3.5286   -0.9894 H         1 RES1    0.0000
     44 C19        1.0204    2.8316    0.9149 C.ar      1 RES1    0.0000
     45 H19       -2.8569    2.7424    3.5500 H         1 RES1    0.0000
@<TRIPOS>BOND
     1    1    6 2
     2    2    8 1
     3    3   24 1
     4    4   34 2
     5    5   18 2
     6    7    1 2
     7    8    9 1
     8    9   10 1
     9   11    9 1
    10   12    9 1
    11   13   12 1
    12   14   12 1
    13   15   12 1
    14   16   15 1
    15   17   15 1
    16   18   15 1
    17   19    8 2
    18   20   19 1
    19   21   20 1
    20   22   20 1
    21   23   22 1
    22   24    2 1
    23   25   24 1
    24   26   25 1
    25   27   25 1
    26   28   25 1
    27   29   28 1
    28   30   28 1
    29   31   28 1
    30   32   31 1
    31   33   31 1
    32   34   22 1
    33   35   20 1
    34   36   35 ar
    35   37   36 1
    36   38   36 ar
    37   39   38 1
    38   40   38 ar
    39   41   40 1
    40   42   40 ar
    41   43   42 1
    42   44    1 1
    43   45    3 1
    44   18   19 1
    45   22   24 1
    46   31   34 1
    47   35   44 ar
    48   42   44 ar
@<TRIPOS>SUBSTRUCTURE
     1 RES1 1

@<TRIPOS>CRYSIN
   7.0090    8.0810   15.2180 101.9730  99.1370 102.1640   2 1

