# MOL2 file generated by ConQuest
# Please check atom types

@<TRIPOS>MOLECULE
TAPXUE
    35    35     1
SMALL
NO_CHARGES
****
Generated from CSD

@<TRIPOS>ATOM
      1 C1         7.1378    2.0973    5.7893 C.ar      1 RES1    0.0000
      2 H1         7.8543    2.6293    6.0538 H         1 RES1    0.0000
      3 C2         7.0588    1.6628    4.4811 C.ar      1 RES1    0.0000
      4 H2         7.7247    1.8939    3.8741 H         1 RES1    0.0000
      5 C3         6.0023    0.8926    4.0804 C.ar      1 RES1    0.0000
      6 H3         5.9429    0.6003    3.1992 H         1 RES1    0.0000
      7 C4         5.0340    0.5569    4.9784 C.ar      1 RES1    0.0000
      8 H4         4.3159    0.0306    4.7081 H         1 RES1    0.0000
      9 C5         5.1098    0.9886    6.2820 C.ar      1 RES1    0.0000
     10 H5         4.4365    0.7603    6.8816 H         1 RES1    0.0000
     11 C6         6.1697    1.7538    6.7087 C.ar      1 RES1    0.0000
     12 C7         6.3079    2.1514    8.1540 C.3       1 RES1    0.0000
     13 H6         6.7978    2.9863    8.2172 H         1 RES1    0.0000
     14 H7         5.4282    2.2872    8.5393 H         1 RES1    0.0000
     15 N1         7.0131    1.1137    8.8978 N.am      1 RES1    0.0000
     16 H8         7.8723    1.1415    8.9186 H         1 RES1    0.0000
     17 C8         6.4012    0.1309    9.5421 C.2       1 RES1    0.0000
     18 C9         7.3261   -0.9850   10.0203 C.3       1 RES1    0.0000
     19 H9         7.8525   -0.6244   10.7639 H         1 RES1    0.0000
     20 N2         6.5513   -2.0881   10.5449 N.am      1 RES1    0.0000
     21 H10        5.7198   -2.1663   10.3377 H         1 RES1    0.0000
     22 C10        7.1281   -2.9892   11.3538 C.2       1 RES1    0.0000
     23 C11        6.2532   -4.0809   11.8847 C.3       1 RES1    0.0000
     24 H11        5.3958   -4.0410   11.4551 H         1 RES1    0.0000
     25 H12        6.1427   -3.9699   12.8314 H         1 RES1    0.0000
     26 H13        6.6611   -4.9322   11.7079 H         1 RES1    0.0000
     27 O1         5.2027    0.1109    9.7903 O.2       1 RES1    0.0000
     28 N3         8.2587   -1.3243    8.9600 N.3       1 RES1    0.0000
     29 H14        8.7344   -2.0554    9.1837 H         1 RES1    0.0000
     30 O2         7.4413   -1.7702    7.8597 O.3       1 RES1    0.0000
     31 C12        8.1171   -1.4658    6.6469 C.3       1 RES1    0.0000
     32 H15        7.5466   -1.6706    5.9029 H         1 RES1    0.0000
     33 H16        8.9198   -1.9892    6.5880 H         1 RES1    0.0000
     34 H17        8.3421   -0.5327    6.6308 H         1 RES1    0.0000
     35 O3         8.3228   -2.9031   11.6557 O.2       1 RES1    0.0000
@<TRIPOS>BOND
     1    1    2 1
     2    3    1 ar
     3    4    3 1
     4    5    3 ar
     5    6    5 1
     6    7    5 ar
     7    8    7 1
     8    9    7 ar
     9   10    9 1
    10   11    1 ar
    11   12   11 1
    12   13   12 1
    13   14   12 1
    14   15   12 1
    15   16   15 1
    16   17   15 1
    17   18   17 1
    18   19   18 1
    19   20   18 1
    20   21   20 1
    21   22   20 1
    22   23   22 1
    23   24   23 1
    24   25   23 1
    25   26   23 1
    26   27   17 2
    27   28   18 1
    28   29   28 1
    29   30   28 1
    30   31   30 1
    31   32   31 1
    32   33   31 1
    33   34   31 1
    34   35   22 2
    35    9   11 ar
@<TRIPOS>SUBSTRUCTURE
     1 RES1 1

@<TRIPOS>CRYSIN
  17.9980    7.1120   20.3900  90.0000  90.0000  90.0000  60 1

