# MOL2 file generated by ConQuest
# Please check atom types

@<TRIPOS>MOLECULE
TAQNOQ
    32    35     1
SMALL
NO_CHARGES
****
Generated from CSD

@<TRIPOS>ATOM
      1 O1         0.6688    2.7529    1.8173 O.3       1 RES1    0.0000
      2 O2        -2.2657   -0.6695    2.0617 O.3       1 RES1    0.0000
      3 O3         1.0652    0.3963    5.3460 O.3       1 RES1    0.0000
      4 N1         0.8311    1.7393    2.8051 N.2       1 RES1    0.0000
      5 C1        -0.5456   -0.1001    3.7132 C.ar      1 RES1    0.0000
      6 C2        -1.5694   -0.9297    3.2338 C.ar      1 RES1    0.0000
      7 C3        -1.9160   -2.1113    3.8815 C.ar      1 RES1    0.0000
      8 C4        -1.2044   -2.4809    5.0074 C.ar      1 RES1    0.0000
      9 C5        -0.1820   -1.6861    5.5211 C.ar      1 RES1    0.0000
     10 C6         0.1314   -0.4832    4.8946 C.ar      1 RES1    0.0000
     11 C7         1.6310    0.1444    6.6409 C.3       1 RES1    0.0000
     12 C8        -0.2808    1.1174    2.9464 C.2       1 RES1    0.0000
     13 C9        -1.3912    1.5913    2.0443 C.3       1 RES1    0.0000
     14 C10       -0.7076    2.6968    1.2493 C.3       1 RES1    0.0000
     15 C11       -0.6510    2.5002   -0.2414 C.2       1 RES1    0.0000
     16 C12       -1.1980    1.4151   -0.8054 C.2       1 RES1    0.0000
     17 C13       -1.7743    0.3041   -0.0456 C.2       1 RES1    0.0000
     18 C14       -1.8357    0.3947    1.2752 C.2       1 RES1    0.0000
     19 C15        0.0528    3.5753   -1.0142 C.3       1 RES1    0.0000
     20 H1        -2.6283   -2.6503    3.5589 H         1 RES1    0.0000
     21 H2        -1.4144   -3.3011    5.4385 H         1 RES1    0.0000
     22 H3         0.2938   -1.9599    6.2963 H         1 RES1    0.0000
     23 H4         0.9324    0.0817    7.2809 H         1 RES1    0.0000
     24 H5         2.1177   -0.6719    6.6214 H         1 RES1    0.0000
     25 H6         2.2150    0.8562    6.8774 H         1 RES1    0.0000
     26 H7        -2.1095    1.9438    2.5567 H         1 RES1    0.0000
     27 H8        -1.1477    3.5189    1.4316 H         1 RES1    0.0000
     28 H9        -1.2133    1.3647   -1.7537 H         1 RES1    0.0000
     29 H10       -2.0977   -0.4689   -0.4923 H         1 RES1    0.0000
     30 H11       -0.2066    4.4233   -0.6740 H         1 RES1    0.0000
     31 H12        0.9923    3.4719   -0.9228 H         1 RES1    0.0000
     32 H13       -0.1848    3.5164   -1.9322 H         1 RES1    0.0000
@<TRIPOS>BOND
     1    1    4 1
     2    2    6 1
     3    3   10 1
     4    4   12 2
     5    5    6 ar
     6    6    7 ar
     7    7    8 ar
     8    8    9 ar
     9    9   10 ar
    10   10    5 ar
    11   11    3 1
    12   12    5 1
    13   13   12 1
    14   14    1 1
    15   15   14 1
    16   16   15 2
    17   17   16 1
    18   18    2 1
    19   19   15 1
    20   20    7 1
    21   21    8 1
    22   22    9 1
    23   23   11 1
    24   24   11 1
    25   25   11 1
    26   26   13 1
    27   27   14 1
    28   28   16 1
    29   29   17 1
    30   30   19 1
    31   31   19 1
    32   32   19 1
    33   13   14 1
    34   13   18 1
    35   17   18 2
@<TRIPOS>SUBSTRUCTURE
     1 RES1 1

@<TRIPOS>CRYSIN
   9.3850   12.3730   11.0520  90.0000 110.9450  90.0000  14 2

