# MOL2 file generated by ConQuest
# Please check atom types

@<TRIPOS>MOLECULE
TARCOH
    21    20     1
SMALL
NO_CHARGES
****
Generated from CSD

@<TRIPOS>ATOM
      1 O1         0.6102    1.9349    7.4674 O.3       1 RES1    0.0000
      2 H1        -0.0165    1.6557    7.0169 H         1 RES1    0.0000
      3 N1         0.7047    3.3264    7.3244 N.2       1 RES1    0.0000
      4 C1         1.6933    3.8038    7.9754 C.2       1 RES1    0.0000
      5 H2         1.8236    4.7230    7.9233 H         1 RES1    0.0000
      6 C2         2.6621    3.0342    8.8132 C.3       1 RES1    0.0000
      7 H3         3.2209    2.4924    8.2343 H         1 RES1    0.0000
      8 H4         2.1703    2.4348    9.3958 H         1 RES1    0.0000
      9 C3         3.5529    3.9366    9.6634 C.3       1 RES1    0.0000
     10 H5         4.0544    4.5269    9.0795 H         1 RES1    0.0000
     11 H6         2.9937    4.4871   10.2330 H         1 RES1    0.0000
     12 C4         4.5270    3.1483   10.5320 C.3       1 RES1    0.0000
     13 H7         4.0245    2.5514   11.1075 H         1 RES1    0.0000
     14 H8         5.0899    2.6036    9.9593 H         1 RES1    0.0000
     15 C5         5.4120    4.0387   11.3935 C.3       1 RES1    0.0000
     16 H9         4.8494    4.5849   11.9660 H         1 RES1    0.0000
     17 H10        5.9171    4.6338   10.8178 H         1 RES1    0.0000
     18 C6         6.3830    3.2466   12.2634 C.3       1 RES1    0.0000
     19 H11        6.9655    2.7293   11.7029 H         1 RES1    0.0000
     20 H12        5.8896    2.6592   12.8404 H         1 RES1    0.0000
     21 H13        6.9046    3.8532   12.7953 H         1 RES1    0.0000
@<TRIPOS>BOND
     1    1    2 1
     2    3    1 1
     3    4    3 2
     4    5    4 1
     5    6    4 1
     6    7    6 1
     7    8    6 1
     8    9    6 1
     9   10    9 1
    10   11    9 1
    11   12    9 1
    12   13   12 1
    13   14   12 1
    14   15   12 1
    15   16   15 1
    16   17   15 1
    17   18   15 1
    18   19   18 1
    19   20   18 1
    20   21   18 1
@<TRIPOS>SUBSTRUCTURE
     1 RES1 1

@<TRIPOS>CRYSIN
   5.5564    4.7949   26.6236  90.0000  93.3070  90.0000  14 1

