# MOL2 file generated by ConQuest
# Please check atom types

@<TRIPOS>MOLECULE
TASTEM
    51    54     1
SMALL
NO_CHARGES
****
Generated from CSD

@<TRIPOS>ATOM
      1 N1         2.0148    5.2250    5.2408 N.2       1 RES1    0.0000
      2 C1         2.3759    6.5229    5.8565 C.3       1 RES1    0.0000
      3 C2         3.7689    6.4999    6.5665 C.3       1 RES1    0.0000
      4 C3         4.9746    6.4727    5.5958 C.3       1 RES1    0.0000
      5 C4         5.0558    5.2250    4.7516 C.3       1 RES1    0.0000
      6 C5         3.8325    5.2250    7.3808 C.2       1 RES1    0.0000
      7 C6         3.8767    7.7226    7.4740 C.3       1 RES1    0.0000
      8 C7         2.2504    7.6703    4.8736 C.2       1 RES1    0.0000
      9 C8         2.6960    7.5888    3.5601 C.2       1 RES1    0.0000
     10 C9         2.6228    8.6923    2.7291 C.2       1 RES1    0.0000
     11 C10        2.1081    9.8773    3.1895 C.2       1 RES1    0.0000
     12 C11        1.6496    9.9693    4.4820 C.2       1 RES1    0.0000
     13 C12        1.7083    8.8679    5.3118 C.2       1 RES1    0.0000
     14 O1         3.9660    5.2250    8.5890 O.2       1 RES1    0.0000
     15 O2         0.1504    6.1321    4.5607 O.2       1 RES1    0.0000
     16 N2         0.7826    5.2250    4.6817 N.2       1 RES1    0.0000
     17 H1         1.7349    6.6943    6.6176 H         1 RES1    0.0000
     18 H2         5.7644    6.5522    6.1794 H         1 RES1    0.0000
     19 H3         4.9271    7.2899    5.0589 H         1 RES1    0.0000
     20 H4         5.8939    5.2250    4.2701 H         1 RES1    0.0000
     21 H5         4.3207    5.2250    4.0604 H         1 RES1    0.0000
     22 H6         3.0958    7.7706    8.1452 H         1 RES1    0.0000
     23 H7         4.7623    7.6912    7.9378 H         1 RES1    0.0000
     24 H8         3.8767    8.5314    6.9382 H         1 RES1    0.0000
     25 H9         3.0644    6.7695    3.2450 H         1 RES1    0.0000
     26 H10        2.9655    8.5418    1.8383 H         1 RES1    0.0000
     27 H11        2.0381   10.6444    2.5627 H         1 RES1    0.0000
     28 H12        1.2708   10.8158    4.7970 H         1 RES1    0.0000
     29 H13        1.3560    8.9159    6.2237 H         1 RES1    0.0000
     30 C3G        4.9746    3.9773    5.5958 C.3       1 RES1    0.0000
     31 C2G        3.7689    3.9501    6.5665 C.3       1 RES1    0.0000
     32 C1G        2.3759    3.9271    5.8565 C.3       1 RES1    0.0000
     33 O2G        0.1504    4.3179    4.5607 O.2       1 RES1    0.0000
     34 C7G        2.2504    2.7797    4.8736 C.2       1 RES1    0.0000
     35 C8G        2.6960    2.8612    3.5601 C.2       1 RES1    0.0000
     36 C9G        2.6228    1.7577    2.7291 C.2       1 RES1    0.0000
     37 C10G       2.1081    0.5727    3.1895 C.2       1 RES1    0.0000
     38 C11G       1.6496    0.4807    4.4820 C.2       1 RES1    0.0000
     39 C12G       1.7083    1.5821    5.3118 C.2       1 RES1    0.0000
     40 H13G       1.3560    1.5341    6.2237 H         1 RES1    0.0000
     41 H12G       1.2708   -0.3658    4.7970 H         1 RES1    0.0000
     42 H11G       2.0381   -0.1944    2.5627 H         1 RES1    0.0000
     43 H10G       2.9655    1.9082    1.8383 H         1 RES1    0.0000
     44 H9G        3.0644    3.6805    3.2450 H         1 RES1    0.0000
     45 H1G        1.7349    3.7557    6.6176 H         1 RES1    0.0000
     46 C6G        3.8767    2.7275    7.4740 C.3       1 RES1    0.0000
     47 H6G        3.0958    2.6794    8.1452 H         1 RES1    0.0000
     48 H7G        4.7623    2.7588    7.9378 H         1 RES1    0.0000
     49 H8G        3.8767    1.9186    6.9382 H         1 RES1    0.0000
     50 H2G        5.7644    3.8979    6.1794 H         1 RES1    0.0000
     51 H3G        4.9271    3.1601    5.0589 H         1 RES1    0.0000
@<TRIPOS>BOND
     1    1    2 1
     2    2    3 1
     3    3    4 1
     4    4    5 1
     5    5   20 1
     6    6    3 1
     7    7    3 1
     8    8    2 1
     9    9    8 1
    10   10    9 1
    11   11   10 1
    12   12   11 1
    13   13    8 1
    14   14    6 1
    15   15   16 1
    16   16    1 1
    17   17    2 1
    18   18    4 1
    19   19    4 1
    20   21    5 1
    21   22    7 1
    22   23    7 1
    23   24    7 1
    24   25    9 1
    25   26   10 1
    26   27   11 1
    27   28   12 1
    28   29   13 1
    29   30    5 1
    30   31    6 1
    31   32    1 1
    32   33   16 1
    33   34   32 1
    34   35   34 1
    35   36   35 1
    36   37   36 1
    37   38   37 1
    38   39   34 1
    39   40   39 1
    40   41   38 1
    41   42   37 1
    42   43   36 1
    43   44   35 1
    44   45   32 1
    45   46   31 1
    46   47   46 1
    47   48   46 1
    48   49   46 1
    49   50   30 1
    50   51   30 1
    51   12   13 1
    52   30   31 1
    53   31   32 1
    54   38   39 1
@<TRIPOS>SUBSTRUCTURE
     1 RES1 1

@<TRIPOS>CRYSIN
   8.0430   20.9000   11.0940  90.0000  90.0000  90.0000  62 1

