# MOL2 file generated by ConQuest
# Please check atom types

@<TRIPOS>MOLECULE
TATGIG
    44    46     1
SMALL
NO_CHARGES
****
Generated from CSD

@<TRIPOS>ATOM
      1 C1        -2.2589   -4.1956    3.2894 C.ar      1 RES1    0.0000
      2 H1        -1.8039   -5.0064    3.3209 H         1 RES1    0.0000
      3 C2        -0.2156   -3.0358    2.4850 C.ar      1 RES1    0.0000
      4 H2         0.2618   -3.8337    2.5101 H         1 RES1    0.0000
      5 C3         0.4133   -1.8959    2.0972 C.ar      1 RES1    0.0000
      6 H3         1.3147   -1.9245    1.8711 H         1 RES1    0.0000
      7 C4        -0.2877   -0.6595    2.0325 C.ar      1 RES1    0.0000
      8 C5        -1.6128   -0.6383    2.3800 C.ar      1 RES1    0.0000
      9 H4        -2.0801    0.1648    2.3401 H         1 RES1    0.0000
     10 C6        -2.2899   -1.8111    2.7994 C.ar      1 RES1    0.0000
     11 C7        -3.6469   -1.7940    3.1883 C.ar      1 RES1    0.0000
     12 H5        -4.1277   -0.9978    3.1556 H         1 RES1    0.0000
     13 C8        -4.2621   -2.9427    3.6142 C.ar      1 RES1    0.0000
     14 H6        -5.1555   -2.9210    3.8721 H         1 RES1    0.0000
     15 C9        -3.5563   -4.1462    3.6626 C.ar      1 RES1    0.0000
     16 H7        -3.9823   -4.9194    3.9543 H         1 RES1    0.0000
     17 C10       -1.5809   -3.0338    2.8505 C.ar      1 RES1    0.0000
     18 C11        0.4250    0.5729    1.6283 C.2       1 RES1    0.0000
     19 C12        3.6445    1.4896    0.7605 C.3       1 RES1    0.0000
     20 H8         3.7262    0.8559    0.0308 H         1 RES1    0.0000
     21 H9         4.1145    1.1324    1.5302 H         1 RES1    0.0000
     22 C13        4.2329    2.8081    0.3654 C.3       1 RES1    0.0000
     23 H10        4.0529    3.4576    1.0631 H         1 RES1    0.0000
     24 H11        3.8011    3.1171   -0.4465 H         1 RES1    0.0000
     25 C14        5.7198    2.7318    0.1345 C.3       1 RES1    0.0000
     26 H12        6.1506    2.4783    0.9659 H         1 RES1    0.0000
     27 H13        5.8984    2.0336   -0.5147 H         1 RES1    0.0000
     28 C15        6.3315    4.0160   -0.3550 C.3       1 RES1    0.0000
     29 H14        7.2751    3.8935   -0.4811 H         1 RES1    0.0000
     30 H15        6.1827    4.7094    0.2924 H         1 RES1    0.0000
     31 H16        5.9270    4.2651   -1.1892 H         1 RES1    0.0000
     32 C16       -0.3161    1.8802    1.4796 C.3       1 RES1    0.0000
     33 H17        0.1535    2.4432    0.8445 H         1 RES1    0.0000
     34 H18       -1.2024    1.7061    1.1257 H         1 RES1    0.0000
     35 C17       -0.0298    3.6793    4.5783 C.2       1 RES1    0.0000
     36 H19        0.3858    4.1653    5.2537 H         1 RES1    0.0000
     37 C18       -1.3440    3.2687    4.5219 C.2       1 RES1    0.0000
     38 H20       -1.9699    3.4411    5.1874 H         1 RES1    0.0000
     39 C19        0.5227    3.2149    3.4272 C.2       1 RES1    0.0000
     40 H21        1.4078    3.3174    3.1621 H         1 RES1    0.0000
     41 N1         1.6867    0.4644    1.4195 N.2       1 RES1    0.0000
     42 N2        -0.4372    2.5857    2.7462 N.pl3     1 RES1    0.0000
     43 N3        -1.6120    2.6012    3.4140 N.2       1 RES1    0.0000
     44 O1         2.2668    1.6971    1.0791 O.3       1 RES1    0.0000
@<TRIPOS>BOND
     1    1    2 1
     2    3    4 1
     3    5    3 ar
     4    6    5 1
     5    7    5 ar
     6    8    7 ar
     7    9    8 1
     8   10    8 ar
     9   11   10 ar
    10   12   11 1
    11   13   11 ar
    12   14   13 1
    13   15    1 ar
    14   16   15 1
    15   17    1 ar
    16   18    7 1
    17   19   20 1
    18   21   19 1
    19   22   19 1
    20   23   22 1
    21   24   22 1
    22   25   22 1
    23   26   25 1
    24   27   25 1
    25   28   25 1
    26   29   28 1
    27   30   28 1
    28   31   28 1
    29   32   18 1
    30   33   32 1
    31   34   32 1
    32   35   36 1
    33   37   35 1
    34   38   37 1
    35   39   35 2
    36   40   39 1
    37   41   18 2
    38   42   32 1
    39   43   37 2
    40   44   19 1
    41    3   17 ar
    42   10   17 ar
    43   13   15 ar
    44   39   42 1
    45   41   44 1
    46   42   43 1
@<TRIPOS>SUBSTRUCTURE
     1 RES1 1

@<TRIPOS>CRYSIN
   9.5599    9.6679   11.0651 108.0200 111.0270 102.7220   2 1

