# MOL2 file generated by ConQuest
# Please check atom types

@<TRIPOS>MOLECULE
TATGOM
    71    74     1
SMALL
NO_CHARGES
****
Generated from CSD

@<TRIPOS>ATOM
      1 O1         4.6879   -3.4288    1.4024 O.3       1 RES1    0.0000
      2 O2         4.1847   -5.7728   -0.1000 O.3       1 RES1    0.0000
      3 O3         1.5609   -4.2403   -1.8399 O.3       1 RES1    0.0000
      4 O4         2.1657   -1.3223   -1.8219 O.3       1 RES1    0.0000
      5 O5         3.7198   -1.2809    0.4849 O.3       1 RES1    0.0000
      6 O6         8.0144   -0.5240    4.8661 O.3       1 RES1    0.0000
      7 O7        12.5036    2.6098    7.8033 O.2       1 RES1    0.0000
      8 O8        10.8613    2.9981    9.0175 O.2       1 RES1    0.0000
      9 O9         6.5988    2.0848    3.5132 O.3       1 RES1    0.0000
     10 O10        9.9977    6.4608    6.3438 O.2       1 RES1    0.0000
     11 O11        8.3071    6.3685    7.6086 O.2       1 RES1    0.0000
     12 N1        11.3654    2.4844    8.0775 N.pl3     1 RES1    0.0000
     13 N2         8.9199    6.0056    6.6442 N.pl3     1 RES1    0.0000
     14 C1        10.4941    1.6748    7.2198 C.ar      1 RES1    0.0000
     15 C2        11.0445    1.0122    6.2065 C.ar      1 RES1    0.0000
     16 H1        11.9582    1.0782    6.0487 H         1 RES1    0.0000
     17 C3        10.2558    0.2234    5.3909 C.ar      1 RES1    0.0000
     18 H2        10.6334   -0.2696    4.6976 H         1 RES1    0.0000
     19 C4         8.9015    0.1828    5.6220 C.ar      1 RES1    0.0000
     20 C5         8.3591    0.8728    6.6598 C.ar      1 RES1    0.0000
     21 H3         7.4420    0.8369    6.8153 H         1 RES1    0.0000
     22 C6         9.1707    1.6286    7.4864 C.ar      1 RES1    0.0000
     23 H4         8.8149    2.0942    8.2064 H         1 RES1    0.0000
     24 C7         8.4274   -1.0471    3.6014 C.3       1 RES1    0.0000
     25 H5         8.7787   -1.9453    3.7043 H         1 RES1    0.0000
     26 H6         9.1175   -0.4873    3.2110 H         1 RES1    0.0000
     27 C8         7.1980   -1.0575    2.7246 C.ar      1 RES1    0.0000
     28 C9         6.5547   -2.2601    2.4733 C.ar      1 RES1    0.0000
     29 H7         6.9036   -3.0471    2.8266 H         1 RES1    0.0000
     30 C10        5.4042   -2.3129    1.7091 C.ar      1 RES1    0.0000
     31 C11        5.2101   -4.6918    1.7199 C.3       1 RES1    0.0000
     32 H8         5.3702   -4.7643    2.6755 H         1 RES1    0.0000
     33 H9         6.0449   -4.8445    1.2511 H         1 RES1    0.0000
     34 C12        4.1623   -5.6870    1.2800 C.3       1 RES1    0.0000
     35 H10        4.3468   -6.5560    1.6688 H         1 RES1    0.0000
     36 H11        3.2848   -5.3986    1.5799 H         1 RES1    0.0000
     37 C13        2.9699   -5.7012   -0.7733 C.3       1 RES1    0.0000
     38 H12        2.3796   -6.3685   -0.3889 H         1 RES1    0.0000
     39 H13        3.1273   -5.9575   -1.6955 H         1 RES1    0.0000
     40 C14        2.2865   -4.4788   -0.7800 C.3       1 RES1    0.0000
     41 H14        1.7090   -4.4467    0.0000 H         1 RES1    0.0000
     42 H15        2.9360   -3.7643   -0.6889 H         1 RES1    0.0000
     43 C15        0.6128   -3.1922   -1.7733 C.3       1 RES1    0.0000
     44 H16        0.4284   -2.9934   -0.8422 H         1 RES1    0.0000
     45 H17       -0.2148   -3.4901   -2.1822 H         1 RES1    0.0000
     46 C16        1.0620   -1.9566   -2.4466 C.3       1 RES1    0.0000
     47 H18        1.3032   -2.1715   -3.3621 H         1 RES1    0.0000
     48 H19        0.3205   -1.3327   -2.4777 H         1 RES1    0.0000
     49 C17        1.8112   -0.5740   -0.6889 C.3       1 RES1    0.0000
     50 H20        1.2774   -1.1178   -0.0889 H         1 RES1    0.0000
     51 H21        1.2828    0.1951   -0.9533 H         1 RES1    0.0000
     52 C18        3.0585   -0.1188    0.0089 C.3       1 RES1    0.0000
     53 H22        3.6318    0.3657   -0.6066 H         1 RES1    0.0000
     54 H23        2.8347    0.4675    0.7489 H         1 RES1    0.0000
     55 C19        4.8541   -1.1282    1.2097 C.ar      1 RES1    0.0000
     56 C20        5.5084    0.0537    1.4288 C.ar      1 RES1    0.0000
     57 H24        5.1701    0.8360    1.0555 H         1 RES1    0.0000
     58 C21        6.6815    0.1122    2.2055 C.ar      1 RES1    0.0000
     59 C22        7.3167    1.4392    2.4333 C.3       1 RES1    0.0000
     60 H25        8.2496    1.3270    2.6710 H         1 RES1    0.0000
     61 H26        7.2659    1.9774    1.6288 H         1 RES1    0.0000
     62 C23        7.2210    3.0707    4.1910 C.ar      1 RES1    0.0000
     63 C24        6.4761    3.6022    5.2354 C.ar      1 RES1    0.0000
     64 H27        5.6093    3.3044    5.3976 H         1 RES1    0.0000
     65 C25        7.0349    4.5730    6.0243 C.ar      1 RES1    0.0000
     66 H28        6.5565    4.9246    6.7398 H         1 RES1    0.0000
     67 C26        8.2941    5.0216    5.7576 C.ar      1 RES1    0.0000
     68 C27        9.0063    4.5363    4.7087 C.ar      1 RES1    0.0000
     69 H29        9.8608    4.8595    4.5332 H         1 RES1    0.0000
     70 C28        8.4596    3.5692    3.9065 C.ar      1 RES1    0.0000
     71 H30        8.9319    3.2526    3.1710 H         1 RES1    0.0000
@<TRIPOS>BOND
     1    1   30 1
     2    2   34 1
     3    3   40 1
     4    4   46 1
     5    5   52 1
     6    6   19 1
     7    7   12 2
     8    8   12 2
     9    9   59 1
    10   10   13 2
    11   11   13 2
    12   12   14 1
    13   13   67 1
    14   14   15 ar
    15   15   16 1
    16   17   15 ar
    17   18   17 1
    18   19   17 ar
    19   20   19 ar
    20   21   20 1
    21   22   14 ar
    22   23   22 1
    23   24    6 1
    24   25   24 1
    25   26   24 1
    26   27   24 1
    27   28   27 ar
    28   29   28 1
    29   30   28 ar
    30   31    1 1
    31   32   31 1
    32   33   31 1
    33   34   31 1
    34   35   34 1
    35   36   34 1
    36   37    2 1
    37   38   37 1
    38   39   37 1
    39   40   37 1
    40   41   40 1
    41   42   40 1
    42   43    3 1
    43   44   43 1
    44   45   43 1
    45   46   43 1
    46   47   46 1
    47   48   46 1
    48   49    4 1
    49   50   49 1
    50   51   49 1
    51   52   49 1
    52   53   52 1
    53   54   52 1
    54   55    5 1
    55   56   55 ar
    56   57   56 1
    57   58   27 ar
    58   59   58 1
    59   60   59 1
    60   61   59 1
    61   62    9 1
    62   63   62 ar
    63   64   63 1
    64   65   63 ar
    65   66   65 1
    66   67   65 ar
    67   68   67 ar
    68   69   68 1
    69   70   62 ar
    70   71   70 1
    71   20   22 ar
    72   30   55 ar
    73   56   58 ar
    74   68   70 ar
@<TRIPOS>SUBSTRUCTURE
     1 RES1 1

@<TRIPOS>CRYSIN
  12.8400    9.4250   22.4470  90.0000  98.1280  90.0000  14 1

