# MOL2 file generated by ConQuest
# Please check atom types

@<TRIPOS>MOLECULE
TATMUX
    52    52     1
SMALL
NO_CHARGES
****
Generated from CSD

@<TRIPOS>ATOM
      1 C1         8.4568    7.5528    2.0886 C.2       1 RES1    0.0000
      2 C2         7.5449    7.5469    0.9457 C.2       1 RES1    0.0000
      3 H1         7.7509    8.0568    0.1713 H         1 RES1    0.0000
      4 C3         6.4322    6.8312    0.9901 C.2       1 RES1    0.0000
      5 H2         5.8169    6.8604    0.2678 H         1 RES1    0.0000
      6 C4         6.1459    5.9648    2.2025 C.3       1 RES1    0.0000
      7 C5         6.6245    6.6502    3.4979 C.3       1 RES1    0.0000
      8 H3         6.6590    5.9338    4.1953 H         1 RES1    0.0000
      9 C6         8.0431    7.1370    3.3253 C.2       1 RES1    0.0000
     10 O1         9.6853    7.9685    1.7929 O.3       1 RES1    0.0000
     11 H4        10.1540    7.9209    2.5296 H         1 RES1    0.0000
     12 O2         4.7648    5.7019    2.1812 O.3       1 RES1    0.0000
     13 C7         4.3050    4.7623    3.1831 C.3       1 RES1    0.0000
     14 H5         4.2321    5.2107    4.0629 H         1 RES1    0.0000
     15 H6         4.9445    4.0113    3.2653 H         1 RES1    0.0000
     16 C8         2.9704    4.2550    2.7539 C.3       1 RES1    0.0000
     17 H7         2.6130    3.6543    3.4409 H         1 RES1    0.0000
     18 H8         3.0636    3.7662    1.9091 H         1 RES1    0.0000
     19 H9         2.3583    5.0100    2.6289 H         1 RES1    0.0000
     20 O3         6.9039    4.7687    2.1655 O.3       1 RES1    0.0000
     21 C9         6.8117    4.0352    0.9309 C.3       1 RES1    0.0000
     22 H10        7.3665    4.4699    0.2361 H         1 RES1    0.0000
     23 H11        5.8730    4.0175    0.6162 H         1 RES1    0.0000
     24 C10        7.2963    2.6415    1.1785 C.3       1 RES1    0.0000
     25 H12        7.2644    2.1309    0.3427 H         1 RES1    0.0000
     26 H13        6.7243    2.2104    1.8471 H         1 RES1    0.0000
     27 H14        8.2191    2.6706    1.5088 H         1 RES1    0.0000
     28 C11        5.6254    7.7092    4.0179 C.3       1 RES1    0.0000
     29 H15        4.7188    7.2880    4.0528 H         1 RES1    0.0000
     30 N1         5.5505    8.9043    3.0883 N.pl3     1 RES1    0.0000
     31 O4         4.5883    8.9909    2.3397 O.2       1 RES1    0.0000
     32 O5         6.4590    9.7253    3.1309 O.2       1 RES1    0.0000
     33 C12        5.9465    8.2568    5.4091 C.3       1 RES1    0.0000
     34 H16        6.8785    8.5904    5.4205 H         1 RES1    0.0000
     35 H17        5.3474    9.0202    5.6048 H         1 RES1    0.0000
     36 C13        5.7808    7.2072    6.4840 C.2       1 RES1    0.0000
     37 O6         5.2557    6.1368    6.3373 O.2       1 RES1    0.0000
     38 O7         6.2857    7.6487    7.6397 O.3       1 RES1    0.0000
     39 C14        6.1877    6.7395    8.7794 C.3       1 RES1    0.0000
     40 H18        6.8806    6.9735    9.4459 H         1 RES1    0.0000
     41 H19        6.3561    5.8126    8.4756 H         1 RES1    0.0000
     42 C15        4.8311    6.8146    9.4231 C.3       1 RES1    0.0000
     43 H20        4.8218    6.2607   10.2320 H         1 RES1    0.0000
     44 H21        4.1527    6.4867    8.7952 H         1 RES1    0.0000
     45 H22        4.6332    7.7442    9.6619 H         1 RES1    0.0000
     46 C16        8.9975    7.1060    4.4068 C.2       1 RES1    0.0000
     47 O8        10.1446    7.5326    4.3472 O.2       1 RES1    0.0000
     48 O9         8.5170    6.5304    5.5328 O.3       1 RES1    0.0000
     49 C17        9.4329    6.4678    6.6430 C.3       1 RES1    0.0000
     50 H23        9.0188    5.9740    7.3814 H         1 RES1    0.0000
     51 H24        9.6489    7.3765    6.9394 H         1 RES1    0.0000
     52 H25       10.2536    6.0112    6.3635 H         1 RES1    0.0000
@<TRIPOS>BOND
     1    1    2 1
     2    2    3 1
     3    4    2 2
     4    5    4 1
     5    6    4 1
     6    7    6 1
     7    8    7 1
     8    9    1 2
     9   10    1 1
    10   11   10 1
    11   12    6 1
    12   13   12 1
    13   14   13 1
    14   15   13 1
    15   16   13 1
    16   17   16 1
    17   18   16 1
    18   19   16 1
    19   20    6 1
    20   21   20 1
    21   22   21 1
    22   23   21 1
    23   24   21 1
    24   25   24 1
    25   26   24 1
    26   27   24 1
    27   28    7 1
    28   29   28 1
    29   30   28 1
    30   31   30 2
    31   32   30 2
    32   33   28 1
    33   34   33 1
    34   35   33 1
    35   36   33 1
    36   37   36 2
    37   38   36 1
    38   39   38 1
    39   40   39 1
    40   41   39 1
    41   42   39 1
    42   43   42 1
    43   44   42 1
    44   45   42 1
    45   46    9 1
    46   47   46 2
    47   48   46 1
    48   49   48 1
    49   50   49 1
    50   51   49 1
    51   52   49 1
    52    7    9 1
@<TRIPOS>SUBSTRUCTURE
     1 RES1 1

@<TRIPOS>CRYSIN
   7.7240    8.5900   14.8300  82.4460  77.0470  77.6080   2 1

