# MOL2 file generated by ConQuest
# Please check atom types

@<TRIPOS>MOLECULE
TATNBZ03
    24    24     1
SMALL
NO_CHARGES
****
Generated from CSD

@<TRIPOS>ATOM
      1 O1         6.0540    1.6773    1.7387 O.2       1 RES1    0.0000
      2 O2         6.0480   -0.4723    1.6367 O.2       1 RES1    0.0000
      3 O3         1.7097   -2.9309    1.4544 O.2       1 RES1    0.0000
      4 O4        -0.1455   -1.8460    1.5220 O.2       1 RES1    0.0000
      5 O5        -0.1037    3.1454    1.3406 O.2       1 RES1    0.0000
      6 O6         1.7597    4.2118    1.4321 O.2       1 RES1    0.0000
      7 N1         5.4034    0.6111    1.6541 N.pl3     1 RES1    0.0000
      8 N2         3.9248   -1.7816    1.4283 N.3       1 RES1    0.0000
      9 N3         1.1103   -1.8331    1.4911 N.pl3     1 RES1    0.0000
     10 N4        -0.2176    0.6560    1.5741 N.3       1 RES1    0.0000
     11 N5         1.1477    3.1109    1.4056 N.pl3     1 RES1    0.0000
     12 N6         3.9620    3.0249    1.5262 N.3       1 RES1    0.0000
     13 C1         3.9901    0.6194    1.5740 C.ar      1 RES1    0.0000
     14 C2         3.2717   -0.6354    1.5008 C.ar      1 RES1    0.0000
     15 C3         1.8268   -0.6068    1.4984 C.ar      1 RES1    0.0000
     16 C4         1.0985    0.6431    1.5104 C.ar      1 RES1    0.0000
     17 C5         1.8466    1.8834    1.4608 C.ar      1 RES1    0.0000
     18 C6         3.2935    1.8890    1.5193 C.ar      1 RES1    0.0000
     19 H1         4.9374   -1.7731    1.4537 H         1 RES1    0.0000
     20 H2         3.3834   -2.6360    1.3577 H         1 RES1    0.0000
     21 H3        -0.7099   -0.2288    1.6032 H         1 RES1    0.0000
     22 H4        -0.6865    1.5539    1.5894 H         1 RES1    0.0000
     23 H5         3.4354    3.8871    1.4523 H         1 RES1    0.0000
     24 H6         4.9731    2.9741    1.5832 H         1 RES1    0.0000
@<TRIPOS>BOND
     1    1    7 2
     2    2    7 2
     3    3    9 2
     4    4    9 2
     5    5   11 2
     6    6   11 2
     7    7   13 1
     8    8   14 1
     9    9   15 1
    10   10   16 1
    11   11   17 1
    12   12   18 1
    13   13   14 ar
    14   14   15 ar
    15   15   16 ar
    16   16   17 ar
    17   17   18 ar
    18   18   13 ar
    19   19    8 1
    20   20    8 1
    21   21   10 1
    22   22   10 1
    23   23   12 1
    24   24   12 1
@<TRIPOS>SUBSTRUCTURE
     1 RES1 1

@<TRIPOS>CRYSIN
   8.9970    9.0201    6.5975 108.8700  92.3840 119.9600   2 1

