# MOL2 file generated by ConQuest
# Please check atom types

@<TRIPOS>MOLECULE
TATZUL
    65    67     1
SMALL
NO_CHARGES
****
Generated from CSD

@<TRIPOS>ATOM
      1 C1         5.3454    3.9653    2.8551 C.3       1 RES1    0.0000
      2 C2         4.6093    3.3173    1.7012 C.3       1 RES1    0.0000
      3 C3         4.7580    5.3351    3.2871 C.3       1 RES1    0.0000
      4 C4         4.9289    6.3968    2.2073 C.ar      1 RES1    0.0000
      5 C5         6.1075    7.1322    2.0624 C.ar      1 RES1    0.0000
      6 C6         6.2510    8.0605    1.0345 C.ar      1 RES1    0.0000
      7 C7         5.2176    8.2686    0.1353 C.ar      1 RES1    0.0000
      8 C8         4.0300    7.5597    0.2792 C.ar      1 RES1    0.0000
      9 C9         3.8858    6.6308    1.3048 C.ar      1 RES1    0.0000
     10 C10        5.2194    5.7994    4.6807 C.3       1 RES1    0.0000
     11 C11        4.4055    7.0290    5.1350 C.3       1 RES1    0.0000
     12 C12        4.8252    7.5095    6.5086 C.ar      1 RES1    0.0000
     13 C13        3.9970    7.3601    7.6137 C.ar      1 RES1    0.0000
     14 C14        4.4025    7.8003    8.8668 C.ar      1 RES1    0.0000
     15 C15        5.6480    8.3829    9.0432 C.ar      1 RES1    0.0000
     16 C16        6.4823    8.5307    7.9492 C.ar      1 RES1    0.0000
     17 C17        6.0712    8.1021    6.6961 C.ar      1 RES1    0.0000
     18 C18        4.9899    4.6842    5.6893 C.2       1 RES1    0.0000
     19 C19        6.0608    3.1594    7.2978 C.3       1 RES1    0.0000
     20 C20        7.1124    2.0789    6.9847 C.3       1 RES1    0.0000
     21 C21        6.9052    1.4765    5.6143 C.ar      1 RES1    0.0000
     22 C22        7.9019    1.5436    4.6433 C.ar      1 RES1    0.0000
     23 C23        7.7088    0.9959    3.3838 C.ar      1 RES1    0.0000
     24 C24        6.5042    0.3815    3.0635 C.ar      1 RES1    0.0000
     25 C25        5.4960    0.3131    4.0103 C.ar      1 RES1    0.0000
     26 C26        5.6976    0.8531    5.2796 C.ar      1 RES1    0.0000
     27 C27        6.2715    3.7548    8.6771 C.2       1 RES1    0.0000
     28 C28        7.6708    5.1846    9.9543 C.3       1 RES1    0.0000
     29 N1         6.8013    4.1709    2.5004 N.pl3     1 RES1    0.0000
     30 N2         6.1041    4.2100    6.2937 N.am      1 RES1    0.0000
     31 O1         7.1528    4.1163    1.3322 O.2       1 RES1    0.0000
     32 O2         7.5580    4.4364    3.4295 O.2       1 RES1    0.0000
     33 O3         3.8680    4.2463    5.9246 O.2       1 RES1    0.0000
     34 O4         5.5371    3.5922    9.6137 O.2       1 RES1    0.0000
     35 O5         7.3919    4.4727    8.7232 O.3       1 RES1    0.0000
     36 H1         6.8817    4.5158    6.0360 H         1 RES1    0.0000
     37 H2         5.3596    3.3500    3.6554 H         1 RES1    0.0000
     38 H3         5.0358    2.4735    1.4327 H         1 RES1    0.0000
     39 H4         4.6123    3.9270    0.9468 H         1 RES1    0.0000
     40 H5         3.7012    3.1488    1.9857 H         1 RES1    0.0000
     41 H6         3.8008    5.1615    3.3654 H         1 RES1    0.0000
     42 H7         6.8224    7.0009    2.6880 H         1 RES1    0.0000
     43 H8         7.0519    8.5464    0.9414 H         1 RES1    0.0000
     44 H9         5.3026    8.8881   -0.5854 H         1 RES1    0.0000
     45 H10        3.3196    7.7096   -0.3419 H         1 RES1    0.0000
     46 H11        3.0764    6.1424    1.3894 H         1 RES1    0.0000
     47 H12        6.1716    6.0376    4.6617 H         1 RES1    0.0000
     48 H13        4.5294    7.7527    4.4713 H         1 RES1    0.0000
     49 H14        3.4638    6.7689    5.1703 H         1 RES1    0.0000
     50 H15        3.1411    6.9499    7.4979 H         1 RES1    0.0000
     51 H16        3.8129    7.7068    9.6308 H         1 RES1    0.0000
     52 H17        5.9238    8.6766    9.9100 H         1 RES1    0.0000
     53 H18        7.3431    8.9307    8.0628 H         1 RES1    0.0000
     54 H19        6.6506    8.2147    5.9386 H         1 RES1    0.0000
     55 H20        5.1435    2.7574    7.2750 H         1 RES1    0.0000
     56 H21        8.0028    2.4960    7.0261 H         1 RES1    0.0000
     57 H22        7.0502    1.3856    7.6830 H         1 RES1    0.0000
     58 H23        8.7294    1.9758    4.8598 H         1 RES1    0.0000
     59 H24        8.4035    1.0481    2.7107 H         1 RES1    0.0000
     60 H25        6.3716    0.0008    2.1978 H         1 RES1    0.0000
     61 H26        4.6600   -0.1098    3.8025 H         1 RES1    0.0000
     62 H27        4.9965    0.7926    5.9408 H         1 RES1    0.0000
     63 H28        8.6040    5.4668    9.9284 H         1 RES1    0.0000
     64 H29        7.5065    4.5836   10.7151 H         1 RES1    0.0000
     65 H30        7.0897    5.9570    9.9965 H         1 RES1    0.0000
@<TRIPOS>BOND
     1    1    2 1
     2    2   38 1
     3    3    1 1
     4    4    3 1
     5    5    4 ar
     6    6    5 ar
     7    7    6 ar
     8    8    7 ar
     9    9    4 ar
    10   10    3 1
    11   11   10 1
    12   12   11 1
    13   13   12 ar
    14   14   13 ar
    15   15   14 ar
    16   16   15 ar
    17   17   12 ar
    18   18   10 1
    19   19   20 1
    20   20   21 1
    21   21   22 ar
    22   22   23 ar
    23   23   24 ar
    24   24   25 ar
    25   25   26 ar
    26   26   21 ar
    27   27   19 1
    28   28   35 1
    29   29    1 1
    30   30   18 1
    31   31   29 2
    32   32   29 2
    33   33   18 2
    34   34   27 2
    35   35   27 1
    36   36   30 1
    37   37    1 1
    38   39    2 1
    39   40    2 1
    40   41    3 1
    41   42    5 1
    42   43    6 1
    43   44    7 1
    44   45    8 1
    45   46    9 1
    46   47   10 1
    47   48   11 1
    48   49   11 1
    49   50   13 1
    50   51   14 1
    51   52   15 1
    52   53   16 1
    53   54   17 1
    54   55   19 1
    55   56   20 1
    56   57   20 1
    57   58   22 1
    58   59   23 1
    59   60   24 1
    60   61   25 1
    61   62   26 1
    62   63   28 1
    63   64   28 1
    64   65   28 1
    65    8    9 ar
    66   16   17 ar
    67   19   30 1
@<TRIPOS>SUBSTRUCTURE
     1 RES1 1

@<TRIPOS>CRYSIN
   5.9193    9.9781   11.2851  73.7940  88.4470  74.0730   1 1

