# MOL2 file generated by ConQuest
# Please check atom types

@<TRIPOS>MOLECULE
TAVPIQ
    50    51     1
SMALL
NO_CHARGES
****
Generated from CSD

@<TRIPOS>ATOM
      1 O1         8.3079    1.3601    0.8549 O.3       1 RES1    0.0000
      2 O2        11.6089    5.7647   -2.5536 O.2       1 RES1    0.0000
      3 O3        14.4365    3.3940    0.2874 O.2       1 RES1    0.0000
      4 N1        12.6595    5.3214   -1.9506 N.pl3     1 RES1    0.0000
      5 N2        14.0008    4.2044   -0.5895 N.3       1 RES1    0.0000
      6 C1         3.9229   -0.9067    0.5399 C.3       1 RES1    0.0000
      7 C2         4.8056    0.2507    0.0343 C.3       1 RES1    0.0000
      8 C3         6.0941    0.4103    0.8641 C.3       1 RES1    0.0000
      9 C4         5.8079    1.0308    2.2441 C.3       1 RES1    0.0000
     10 C5         7.0918    1.2487    0.0729 C.3       1 RES1    0.0000
     11 C6         9.3354    2.1048    0.3377 C.ar      1 RES1    0.0000
     12 C7         9.3239    2.6822   -0.9247 C.ar      1 RES1    0.0000
     13 C8        10.4251    3.4193   -1.3402 C.ar      1 RES1    0.0000
     14 C9        11.5503    3.5864   -0.5135 C.ar      1 RES1    0.0000
     15 C10       11.5469    2.9912    0.7464 C.ar      1 RES1    0.0000
     16 C11       10.4480    2.2517    1.1607 C.ar      1 RES1    0.0000
     17 C12       12.7078    4.3539   -0.9946 C.2       1 RES1    0.0000
     18 C13       13.9836    6.0154   -2.1363 C.3       1 RES1    0.0000
     19 C14       14.1790    6.2636   -3.6186 C.3       1 RES1    0.0000
     20 C15       13.8871    7.3477   -1.3727 C.3       1 RES1    0.0000
     21 C16       14.9560    4.9795   -1.4861 C.3       1 RES1    0.0000
     22 C17       15.5203    3.9613   -2.4923 C.3       1 RES1    0.0000
     23 C18       16.0813    5.5848   -0.6373 C.3       1 RES1    0.0000
     24 H1         3.6792   -0.7446    1.4426 H         1 RES1    0.0000
     25 H2         3.1402   -0.9625    0.0043 H         1 RES1    0.0000
     26 H3         4.4068   -1.7223    0.4811 H         1 RES1    0.0000
     27 H4         5.0447    0.0760   -0.8696 H         1 RES1    0.0000
     28 H5         4.3091    1.0562    0.0827 H         1 RES1    0.0000
     29 H6         6.4711   -0.4534    0.9983 H         1 RES1    0.0000
     30 H7         6.6159    1.0916    2.7399 H         1 RES1    0.0000
     31 H8         5.4413    1.8996    2.1307 H         1 RES1    0.0000
     32 H9         5.1884    0.4863    2.7154 H         1 RES1    0.0000
     33 H10        6.7309    2.1124   -0.0852 H         1 RES1    0.0000
     34 H11        7.2803    0.8282   -0.7580 H         1 RES1    0.0000
     35 H12        8.5734    2.5733   -1.4983 H         1 RES1    0.0000
     36 H13       10.4182    3.8195   -2.2024 H         1 RES1    0.0000
     37 H14       12.2974    3.0900    1.3212 H         1 RES1    0.0000
     38 H15       10.4526    1.8413    2.0180 H         1 RES1    0.0000
     39 H16       15.0123    6.6993   -3.7608 H         1 RES1    0.0000
     40 H17       14.1698    5.4354   -4.0832 H         1 RES1    0.0000
     41 H18       13.4756    6.8158   -3.9416 H         1 RES1    0.0000
     42 H19       14.7066    7.8213   -1.4566 H         1 RES1    0.0000
     43 H20       13.1825    7.8694   -1.7367 H         1 RES1    0.0000
     44 H21       13.7135    7.1754   -0.4559 H         1 RES1    0.0000
     45 H22       14.8089    3.5839   -2.9954 H         1 RES1    0.0000
     46 H23       16.1284    4.3944   -3.0775 H         1 RES1    0.0000
     47 H24       15.9744    3.2698   -2.0204 H         1 RES1    0.0000
     48 H25       16.5617    4.8883   -0.2071 H         1 RES1    0.0000
     49 H26       16.6697    6.0787   -1.1962 H         1 RES1    0.0000
     50 H27       15.7077    6.1648    0.0172 H         1 RES1    0.0000
@<TRIPOS>BOND
     1    1   10 1
     2    2    4 1
     3    3    5 1
     4    4   17 2
     5    5   17 1
     6    6    7 1
     7    7    8 1
     8    8    9 1
     9    9   30 1
    10   10    8 1
    11   11    1 1
    12   12   11 ar
    13   13   12 ar
    14   14   13 ar
    15   15   14 ar
    16   16   11 ar
    17   17   14 1
    18   18    4 1
    19   19   18 1
    20   20   18 1
    21   21    5 1
    22   22   21 1
    23   23   21 1
    24   24    6 1
    25   25    6 1
    26   26    6 1
    27   27    7 1
    28   28    7 1
    29   29    8 1
    30   31    9 1
    31   32    9 1
    32   33   10 1
    33   34   10 1
    34   35   12 1
    35   36   13 1
    36   37   15 1
    37   38   16 1
    38   39   19 1
    39   40   19 1
    40   41   19 1
    41   42   20 1
    42   43   20 1
    43   44   20 1
    44   45   22 1
    45   46   22 1
    46   47   22 1
    47   48   23 1
    48   49   23 1
    49   50   23 1
    50   15   16 ar
    51   18   21 1
@<TRIPOS>SUBSTRUCTURE
     1 RES1 1

@<TRIPOS>CRYSIN
  11.4940   25.3280    6.1281  90.0000  90.0000  90.0000  19 1

