# MOL2 file generated by ConQuest
# Please check atom types

@<TRIPOS>MOLECULE
TAVVUJ
    72    74     1
SMALL
NO_CHARGES
****
Generated from CSD

@<TRIPOS>ATOM
      1 C1        19.7996    6.1666    5.8518 C.3       1 RES1    0.0000
      2 H1        19.4622    5.8544    6.7397 H         1 RES1    0.0000
      3 C2        21.1884    6.6829    6.0601 C.3       1 RES1    0.0000
      4 H2        21.2405    7.2576    6.8647 H         1 RES1    0.0000
      5 H3        21.5026    7.1948    5.2738 H         1 RES1    0.0000
      6 C3        21.9964    5.3983    6.2450 C.3       1 RES1    0.0000
      7 H4        21.8296    4.9971    7.1339 H         1 RES1    0.0000
      8 H5        22.9663    5.5710    6.1456 H         1 RES1    0.0000
      9 C4        21.4790    4.4870    5.1205 C.3       1 RES1    0.0000
     10 H6        21.9434    4.7870    4.2865 H         1 RES1    0.0000
     11 C5        21.8474    2.9939    5.3017 C.3       1 RES1    0.0000
     12 H7        21.2548    2.6207    6.0163 H         1 RES1    0.0000
     13 C6        21.6538    2.1323    4.0376 C.3       1 RES1    0.0000
     14 H8        21.9474    2.6608    3.2534 H         1 RES1    0.0000
     15 H9        22.2503    1.3457    4.1038 H         1 RES1    0.0000
     16 C7        20.2338    1.6326    3.7694 C.3       1 RES1    0.0000
     17 H10       20.2776    0.8616    3.1497 H         1 RES1    0.0000
     18 H11       19.8405    1.3134    4.6210 H         1 RES1    0.0000
     19 C8        19.3233    2.6878    3.1764 C.2       1 RES1    0.0000
     20 C9        18.1916    3.2250    4.0228 C.3       1 RES1    0.0000
     21 C10       18.8596    3.8852    5.2643 C.3       1 RES1    0.0000
     22 H12       18.1548    4.3335    5.7962 H         1 RES1    0.0000
     23 H13       19.2486    3.1692    5.8283 H         1 RES1    0.0000
     24 C11       19.9620    4.9108    4.9543 C.3       1 RES1    0.0000
     25 H14       19.8373    5.2047    4.0066 H         1 RES1    0.0000
     26 C12       18.7796    7.1626    5.3058 C.3       1 RES1    0.0000
     27 H15       17.9007    6.7335    5.2524 H         1 RES1    0.0000
     28 H16       19.0564    7.4547    4.4116 H         1 RES1    0.0000
     29 H17       18.7278    7.9387    5.9020 H         1 RES1    0.0000
     30 C13       23.2864    2.8352    5.7656 C.3       1 RES1    0.0000
     31 H18       23.4265    3.3131    6.6211 H         1 RES1    0.0000
     32 H19       23.4989    1.8776    5.9010 H         1 RES1    0.0000
     33 C14       25.4423    3.2067    4.8305 C.2       1 RES1    0.0000
     34 C15       26.1704    3.8146    3.6846 C.ar      1 RES1    0.0000
     35 C16       25.4995    4.3849    2.5984 C.ar      1 RES1    0.0000
     36 H20       24.5499    4.3936    2.5696 H         1 RES1    0.0000
     37 C17       26.2300    4.9309    1.5752 C.ar      1 RES1    0.0000
     38 C18       27.6201    4.9640    1.5820 C.ar      1 RES1    0.0000
     39 H21       28.1110    5.3730    0.8793 H         1 RES1    0.0000
     40 C19       28.2490    4.3753    2.6561 C.ar      1 RES1    0.0000
     41 C20       27.5630    3.8032    3.7064 C.ar      1 RES1    0.0000
     42 H22       28.0306    3.4090    4.4329 H         1 RES1    0.0000
     43 C21       17.2807    2.0590    4.4991 C.3       1 RES1    0.0000
     44 H23       17.7618    1.5532    5.2001 H         1 RES1    0.0000
     45 H24       16.4713    2.4462    4.9159 H         1 RES1    0.0000
     46 C22       16.8439    1.0823    3.4147 C.3       1 RES1    0.0000
     47 H25       16.4520    1.5907    2.6604 H         1 RES1    0.0000
     48 H26       17.6391    0.6000    3.0749 H         1 RES1    0.0000
     49 C23       15.8380    0.0828    3.9030 C.2       1 RES1    0.0000
     50 H27       15.7033    0.0419    4.8432 H         1 RES1    0.0000
     51 C24       15.1134   -0.7561    3.1604 C.2       1 RES1    0.0000
     52 C25       15.2193   -0.8503    1.6742 C.3       1 RES1    0.0000
     53 H28       15.6578   -1.6910    1.4317 H         1 RES1    0.0000
     54 H29       15.7473   -0.0959    1.3366 H         1 RES1    0.0000
     55 H30       14.3223   -0.8241    1.2811 H         1 RES1    0.0000
     56 C26       14.1254   -1.7023    3.7790 C.3       1 RES1    0.0000
     57 H31       14.3970   -2.6250    3.5921 H         1 RES1    0.0000
     58 H32       13.2369   -1.5393    3.4008 H         1 RES1    0.0000
     59 H33       14.1003   -1.5593    4.7481 H         1 RES1    0.0000
     60 C27       17.3617    4.2480    3.2470 C.3       1 RES1    0.0000
     61 H34       16.6341    4.5777    3.8154 H         1 RES1    0.0000
     62 H35       16.9845    3.8233    2.4478 H         1 RES1    0.0000
     63 H36       17.9345    4.9971    2.9799 H         1 RES1    0.0000
     64 N1        25.5212    5.5037    0.4178 N.pl3     1 RES1    0.0000
     65 N2        29.7202    4.3544    2.6918 N.pl3     1 RES1    0.0000
     66 O1        19.5483    3.1276    2.0615 O.2       1 RES1    0.0000
     67 O2        24.1347    3.3995    4.7255 O.3       1 RES1    0.0000
     68 O3        25.9922    2.6070    5.7312 O.2       1 RES1    0.0000
     69 O4        24.3085    5.3204    0.3351 O.2       1 RES1    0.0000
     70 O5        26.1861    6.1171   -0.4210 O.2       1 RES1    0.0000
     71 O6        30.3240    5.1172    1.9534 O.2       1 RES1    0.0000
     72 O7        30.2640    3.5596    3.4648 O.2       1 RES1    0.0000
@<TRIPOS>BOND
     1    1    2 1
     2    3    1 1
     3    4    3 1
     4    5    3 1
     5    6    3 1
     6    7    6 1
     7    8    6 1
     8    9    6 1
     9   10    9 1
    10   11    9 1
    11   12   11 1
    12   13   11 1
    13   14   13 1
    14   15   13 1
    15   16   13 1
    16   17   16 1
    17   18   16 1
    18   19   16 1
    19   20   19 1
    20   21   20 1
    21   22   21 1
    22   23   21 1
    23   24    1 1
    24   25   24 1
    25   26    1 1
    26   27   26 1
    27   28   26 1
    28   29   26 1
    29   30   11 1
    30   31   30 1
    31   32   30 1
    32   33   34 1
    33   34   35 ar
    34   35   36 1
    35   37   35 ar
    36   38   37 ar
    37   39   38 1
    38   40   38 ar
    39   41   34 ar
    40   42   41 1
    41   43   20 1
    42   44   43 1
    43   45   43 1
    44   46   43 1
    45   47   46 1
    46   48   46 1
    47   49   46 1
    48   50   49 1
    49   51   49 2
    50   52   51 1
    51   53   52 1
    52   54   52 1
    53   55   52 1
    54   56   51 1
    55   57   56 1
    56   58   56 1
    57   59   56 1
    58   60   20 1
    59   61   60 1
    60   62   60 1
    61   63   60 1
    62   64   37 1
    63   65   40 1
    64   66   19 2
    65   67   30 1
    66   68   33 2
    67   69   64 2
    68   70   64 2
    69   71   65 2
    70   72   65 2
    71    9   24 1
    72   21   24 1
    73   33   67 1
    74   40   41 ar
@<TRIPOS>SUBSTRUCTURE
     1 RES1 1

@<TRIPOS>CRYSIN
  27.8360    8.7210   10.6844  90.0000  90.2190  90.0000  14 1

