# MOL2 file generated by ConQuest
# Please check atom types

@<TRIPOS>MOLECULE
TAWBAV
    88    92     1
SMALL
NO_CHARGES
****
Generated from CSD

@<TRIPOS>ATOM
      1 O1        -1.5639    4.4173    4.7659 O.3       1 RES1    0.0000
      2 O2        -3.5479    2.3679    4.2378 O.3       1 RES1    0.0000
      3 N1        -2.8153   -0.5276    8.6758 N.pl3     1 RES1    0.0000
      4 O3        -9.1470    4.8631   -2.5540 O.2       1 RES1    0.0000
      5 N2        -4.1029    1.4443    0.8392 N.3       1 RES1    0.0000
      6 N3         1.2901    2.8522    4.8629 N.3       1 RES1    0.0000
      7 O4         1.8747    2.5953    1.6551 O.3       1 RES1    0.0000
      8 C1        -0.6803    5.3893    4.3891 C.ar      1 RES1    0.0000
      9 C2        -4.6105    0.5993    3.1133 C.ar      1 RES1    0.0000
     10 C3        -4.5475    1.4287    4.2418 C.ar      1 RES1    0.0000
     11 C4        -5.2702    3.4894    0.1202 C.ar      1 RES1    0.0000
     12 C5        -0.9173    1.2897    6.0543 C.ar      1 RES1    0.0000
     13 H1        -1.0850    1.7228    5.2482 H         1 RES1    0.0000
     14 C6        -2.9359    4.6485    4.4576 C.3       1 RES1    0.0000
     15 H2        -3.0553    4.6871    3.4958 H         1 RES1    0.0000
     16 H3        -3.2206    5.4959    4.8352 H         1 RES1    0.0000
     17 C7         0.6292    5.2456    4.8584 C.ar      1 RES1    0.0000
     18 O5        -1.4217    2.6358    0.1149 O.3       1 RES1    0.0000
     19 C8        -3.6012    0.7046    2.0043 C.3       1 RES1    0.0000
     20 H4        -2.8069    1.1488    2.3417 H         1 RES1    0.0000
     21 H5        -3.3459   -0.1879    1.7254 H         1 RES1    0.0000
     22 C9         1.5561    1.7111    5.7401 C.3       1 RES1    0.0000
     23 H6         2.2588    1.9593    6.3612 H         1 RES1    0.0000
     24 H7         1.8920    0.9793    5.1980 H         1 RES1    0.0000
     25 C10       -4.3378    2.8589    1.1288 C.3       1 RES1    0.0000
     26 H8        -3.4910    3.3324    1.1220 H         1 RES1    0.0000
     27 H9        -4.7207    2.9450    2.0162 H         1 RES1    0.0000
     28 C11       -4.9626    4.6978   -0.4764 C.ar      1 RES1    0.0000
     29 H10       -4.1524    5.1115   -0.2831 H         1 RES1    0.0000
     30 C12       -5.4391    1.2716    5.2971 C.ar      1 RES1    0.0000
     31 H11       -5.3705    1.8090    6.0524 H         1 RES1    0.0000
     32 C13       -3.2865    1.2076   -0.3495 C.3       1 RES1    0.0000
     33 H12       -3.5741    1.8309   -1.0332 H         1 RES1    0.0000
     34 H13       -3.4894    0.3163   -0.6729 H         1 RES1    0.0000
     35 C14       -1.6993    0.1022    7.9579 C.ar      1 RES1    0.0000
     36 C15        0.3798    1.2131    6.5304 C.ar      1 RES1    0.0000
     37 C16       -1.0202    6.4818    3.5962 C.ar      1 RES1    0.0000
     38 H14       -1.8882    6.5700    3.2719 H         1 RES1    0.0000
     39 C17       -3.7546    3.5391    5.0263 C.3       1 RES1    0.0000
     40 H15       -3.4916    3.3709    5.9443 H         1 RES1    0.0000
     41 H16       -4.6936    3.7830    5.0179 H         1 RES1    0.0000
     42 C18       -7.0397    4.6809   -1.6092 C.ar      1 RES1    0.0000
     43 C19       -5.6277   -0.3465    3.0777 C.ar      1 RES1    0.0000
     44 H17       -5.6952   -0.9035    2.3353 H         1 RES1    0.0000
     45 C20        1.0325    4.0433    5.6757 C.3       1 RES1    0.0000
     46 H18        1.8324    4.2597    6.1798 H         1 RES1    0.0000
     47 H19        0.3275    3.8441    6.3110 H         1 RES1    0.0000
     48 C21        1.5488    6.2346    4.5444 C.ar      1 RES1    0.0000
     49 H20        2.4192    6.1607    4.8648 H         1 RES1    0.0000
     50 C22       -6.4978    2.8866   -0.1575 C.ar      1 RES1    0.0000
     51 H21       -6.7135    2.0767    0.2432 H         1 RES1    0.0000
     52 C23       -5.8488    5.3006   -1.3626 C.ar      1 RES1    0.0000
     53 H22       -5.6356    6.1057   -1.7769 H         1 RES1    0.0000
     54 C24       -0.4269    0.0114    8.4545 C.ar      1 RES1    0.0000
     55 H23       -0.2629   -0.4213    9.2613 H         1 RES1    0.0000
     56 N4        -8.0025    5.3123   -2.5231 N.pl3     1 RES1    0.0000
     57 C25       -6.4265    0.3107    5.2148 C.ar      1 RES1    0.0000
     58 H24       -7.0225    0.2014    5.9199 H         1 RES1    0.0000
     59 C26        1.2085    7.3298    3.7673 C.ar      1 RES1    0.0000
     60 H25        1.8403    7.9837    3.5704 H         1 RES1    0.0000
     61 C27        2.5195    2.1108    2.8036 C.3       1 RES1    0.0000
     62 H26        3.4503    1.9432    2.5913 H         1 RES1    0.0000
     63 H27        2.1177    1.2635    3.0519 H         1 RES1    0.0000
     64 C28       -1.7861    1.3202   -0.2290 C.3       1 RES1    0.0000
     65 H28       -1.4669    0.7066    0.4516 H         1 RES1    0.0000
     66 H29       -1.3721    1.0775   -1.0718 H         1 RES1    0.0000
     67 C29       -7.3908    3.4808   -1.0177 C.ar      1 RES1    0.0000
     68 H30       -8.2126    3.0847   -1.1979 H         1 RES1    0.0000
     69 C30       -1.9639    0.7342    6.7575 C.ar      1 RES1    0.0000
     70 H31       -2.8327    0.7827    6.4294 H         1 RES1    0.0000
     71 C31       -0.0694    7.4368    3.2925 C.ar      1 RES1    0.0000
     72 H32       -0.3012    8.1625    2.7586 H         1 RES1    0.0000
     73 C32        2.4508    3.0466    3.9847 C.3       1 RES1    0.0000
     74 H33        3.2576    2.9386    4.5110 H         1 RES1    0.0000
     75 H34        2.4375    3.9597    3.6541 H         1 RES1    0.0000
     76 C33        0.4737    2.4492    1.6611 C.3       1 RES1    0.0000
     77 H35        0.0758    3.0425    2.3160 H         1 RES1    0.0000
     78 H36        0.2314    1.5371    1.8811 H         1 RES1    0.0000
     79 O6        -7.6294    6.2727   -3.1742 O.2       1 RES1    0.0000
     80 O7        -2.5535   -1.0591    9.7489 O.2       1 RES1    0.0000
     81 C34        0.6046    0.5716    7.7392 C.ar      1 RES1    0.0000
     82 H37        1.4714    0.5198    8.0737 H         1 RES1    0.0000
     83 C35       -6.5376   -0.4878    4.0993 C.ar      1 RES1    0.0000
     84 H38       -7.2202   -1.1166    4.0375 H         1 RES1    0.0000
     85 C36       -0.0111    2.8025    0.2663 C.3       1 RES1    0.0000
     86 H39        0.2225    3.7242    0.0733 H         1 RES1    0.0000
     87 H40        0.4460    2.2400   -0.3796 H         1 RES1    0.0000
     88 O8        -3.9287   -0.5113    8.1844 O.2       1 RES1    0.0000
@<TRIPOS>BOND
     1    1    8 1
     2    2   10 1
     3    3   35 1
     4    4   56 2
     5    5   19 1
     6    6   22 1
     7    7   61 1
     8    8   17 ar
     9    9   10 ar
    10   10   30 ar
    11   11   25 1
    12   12   13 1
    13   14    1 1
    14   15   14 1
    15   16   14 1
    16   17   45 1
    17   18   64 1
    18   19    9 1
    19   20   19 1
    20   21   19 1
    21   22   23 1
    22   24   22 1
    23   25    5 1
    24   26   25 1
    25   27   25 1
    26   28   11 ar
    27   29   28 1
    28   30   31 1
    29   32    5 1
    30   33   32 1
    31   34   32 1
    32   35   54 ar
    33   36   12 ar
    34   37    8 ar
    35   38   37 1
    36   39    2 1
    37   40   39 1
    38   41   39 1
    39   42   52 ar
    40   43    9 ar
    41   44   43 1
    42   45    6 1
    43   46   45 1
    44   47   45 1
    45   48   17 ar
    46   49   48 1
    47   50   11 ar
    48   51   50 1
    49   52   28 ar
    50   53   52 1
    51   54   55 1
    52   56   42 1
    53   57   30 ar
    54   58   57 1
    55   59   48 ar
    56   60   59 1
    57   61   62 1
    58   63   61 1
    59   64   32 1
    60   65   64 1
    61   66   64 1
    62   67   42 ar
    63   68   67 1
    64   69   12 ar
    65   70   69 1
    66   71   37 ar
    67   72   71 1
    68   73    6 1
    69   74   73 1
    70   75   73 1
    71   76    7 1
    72   77   76 1
    73   78   76 1
    74   79   56 2
    75   80    3 2
    76   81   36 ar
    77   82   81 1
    78   83   43 ar
    79   84   83 1
    80   85   18 1
    81   86   85 1
    82   87   85 1
    83   88    3 2
    84   14   39 1
    85   22   36 1
    86   35   69 ar
    87   50   67 ar
    88   54   81 ar
    89   57   83 ar
    90   59   71 ar
    91   61   73 1
    92   76   85 1
@<TRIPOS>SUBSTRUCTURE
     1 RES1 1

@<TRIPOS>CRYSIN
  11.3538   11.7872   13.3039  95.9240 101.8570 102.1660   2 1

