# MOL2 file generated by ConQuest
# Please check atom types

@<TRIPOS>MOLECULE
TAWCOL
    51    53     1
SMALL
NO_CHARGES
****
Generated from CSD

@<TRIPOS>ATOM
      1 C1         2.4671    0.0633    1.3363 C.3       1 RES1    0.0000
      2 H1         3.3887    0.4510    1.3472 H         1 RES1    0.0000
      3 C2         2.5010   -1.4532    1.2444 C.3       1 RES1    0.0000
      4 H2         3.3480   -1.7539    0.8297 H         1 RES1    0.0000
      5 H3         2.4319   -1.8541    2.1457 H         1 RES1    0.0000
      6 C3         1.3323   -1.8631    0.4002 C.3       1 RES1    0.0000
      7 H4         0.7076   -2.4156    0.9323 H         1 RES1    0.0000
      8 H5         1.6436   -2.3989   -0.3725 H         1 RES1    0.0000
      9 C4         0.6199   -0.5975   -0.0939 C.3       1 RES1    0.0000
     10 H6         0.4397   -0.6964   -1.0729 H         1 RES1    0.0000
     11 C5         1.6940    0.4953    0.0979 C.3       1 RES1    0.0000
     12 H7         2.3242    0.4163   -0.6758 H         1 RES1    0.0000
     13 C6         1.2122    1.9299    0.1204 C.3       1 RES1    0.0000
     14 H8         0.6675    2.0867    0.9323 H         1 RES1    0.0000
     15 H9         1.9888    2.5441    0.1450 H         1 RES1    0.0000
     16 C7        -0.7007   -0.3405    0.6158 C.3       1 RES1    0.0000
     17 H10       -1.1066    0.4793    0.2632 H         1 RES1    0.0000
     18 H11       -0.5398   -0.2377    1.5770 H         1 RES1    0.0000
     19 H12       -1.3054   -1.0960    0.4639 H         1 RES1    0.0000
     20 C8         0.0324    0.9066    4.6258 C.ar      1 RES1    0.0000
     21 H13       -0.3238    0.9341    3.7450 H         1 RES1    0.0000
     22 C9        -0.8021    1.0690    5.7063 C.ar      1 RES1    0.0000
     23 H14       -1.7340    1.2052    5.5852 H         1 RES1    0.0000
     24 C10       -0.2533    1.0296    6.9734 C.ar      1 RES1    0.0000
     25 C11        1.0907    0.8254    7.1987 C.ar      1 RES1    0.0000
     26 H15        1.4400    0.8031    8.0811 H         1 RES1    0.0000
     27 C12        1.9156    0.6535    6.1058 C.ar      1 RES1    0.0000
     28 H16        2.8447    0.5011    6.2365 H         1 RES1    0.0000
     29 C13        1.3979    0.7008    4.8156 C.ar      1 RES1    0.0000
     30 C14        2.3374    0.4976    3.6794 C.2       1 RES1    0.0000
     31 C15        0.6862    2.6055   -4.6448 C.ar      1 RES1    0.0000
     32 H17        1.6208    2.7484   -4.7331 H         1 RES1    0.0000
     33 C16       -0.1070    2.5835   -5.7703 C.ar      1 RES1    0.0000
     34 H18        0.2685    2.7073   -6.6335 H         1 RES1    0.0000
     35 C17       -1.4579    2.3767   -5.6090 C.ar      1 RES1    0.0000
     36 C18       -2.0364    2.1964   -4.3742 C.ar      1 RES1    0.0000
     37 H19       -2.9724    2.0597   -4.2937 H         1 RES1    0.0000
     38 C19       -1.2315    2.2186   -3.2554 C.ar      1 RES1    0.0000
     39 H20       -1.6125    2.0944   -2.3933 H         1 RES1    0.0000
     40 C20        0.1388    2.4224   -3.3861 C.ar      1 RES1    0.0000
     41 C21        1.0686    2.4029   -2.2129 C.2       1 RES1    0.0000
     42 N1        -1.1431    1.2138    8.1306 N.pl3     1 RES1    0.0000
     43 N2        -2.3160    2.3744   -6.8077 N.pl3     1 RES1    0.0000
     44 O1         1.6974    0.4790    2.5046 O.3       1 RES1    0.0000
     45 O2         3.5226    0.3465    3.8041 O.2       1 RES1    0.0000
     46 O3        -2.3166    1.4663    7.9290 O.2       1 RES1    0.0000
     47 O4        -0.6661    1.1179    9.2412 O.2       1 RES1    0.0000
     48 O5         0.4114    2.1978   -1.0709 O.3       1 RES1    0.0000
     49 O6         2.2580    2.5400   -2.2974 O.2       1 RES1    0.0000
     50 O7        -3.5274    2.2523   -6.6487 O.2       1 RES1    0.0000
     51 O8        -1.7879    2.5302   -7.8971 O.2       1 RES1    0.0000
@<TRIPOS>BOND
     1    1    2 1
     2    3    1 1
     3    4    3 1
     4    5    3 1
     5    6    3 1
     6    7    6 1
     7    8    6 1
     8    9    6 1
     9   10    9 1
    10   11    1 1
    11   12   11 1
    12   13   11 1
    13   14   13 1
    14   15   13 1
    15   16    9 1
    16   17   16 1
    17   18   16 1
    18   19   16 1
    19   20   21 1
    20   22   20 ar
    21   23   22 1
    22   24   22 ar
    23   25   24 ar
    24   26   25 1
    25   27   25 ar
    26   28   27 1
    27   29   20 ar
    28   30   29 1
    29   31   32 1
    30   33   31 ar
    31   34   33 1
    32   35   33 ar
    33   36   35 ar
    34   37   36 1
    35   38   36 ar
    36   39   38 1
    37   40   31 ar
    38   41   40 1
    39   42   24 1
    40   43   35 1
    41   44    1 1
    42   45   30 2
    43   46   42 2
    44   47   42 2
    45   48   13 1
    46   49   41 2
    47   50   43 2
    48   51   43 2
    49    9   11 1
    50   27   29 ar
    51   30   44 1
    52   38   40 ar
    53   41   48 1
@<TRIPOS>SUBSTRUCTURE
     1 RES1 1

@<TRIPOS>CRYSIN
   6.9030   12.8490   22.3050  90.0000  90.0000  90.0000  19 1

