# MOL2 file generated by ConQuest
# Please check atom types

@<TRIPOS>MOLECULE
TAWDIG
    36    37     1
SMALL
NO_CHARGES
****
Generated from CSD

@<TRIPOS>ATOM
      1 O1         0.2367    2.8306    5.6535 O.3       1 RES1    0.0000
      2 O2        -0.6593    1.8637    7.5314 O.3       1 RES1    0.0000
      3 O3         1.4630    3.3581   13.7495 O.2       1 RES1    0.0000
      4 O4        -2.9074    1.6451    6.2501 O.2       1 RES1    0.0000
      5 N1        -0.6241    1.8235    6.1300 N.am      1 RES1    0.0000
      6 C1        -1.9307    1.8783    5.5737 C.2       1 RES1    0.0000
      7 C2         0.1856    0.8062    8.0492 C.3       1 RES1    0.0000
      8 H1         1.0216    0.7677    7.5598 H         1 RES1    0.0000
      9 H2        -0.2598   -0.0521    7.9746 H         1 RES1    0.0000
     10 C3        -0.1444    0.3988   10.5066 C.ar      1 RES1    0.0000
     11 H3        -0.6671   -0.3404   10.2920 H         1 RES1    0.0000
     12 O5         0.7022    1.4457   14.3960 O.2       1 RES1    0.0000
     13 C4        -0.9808    1.6493    3.2495 C.ar      1 RES1    0.0000
     14 H4        -0.2204    1.2418    3.5981 H         1 RES1    0.0000
     15 C5        -1.9861    2.0967    4.1040 C.ar      1 RES1    0.0000
     16 C6         1.4031    2.6193   11.1308 C.ar      1 RES1    0.0000
     17 H5         1.9144    3.3642   11.3506 H         1 RES1    0.0000
     18 C7         1.2215    2.2490    9.8154 C.ar      1 RES1    0.0000
     19 H6         1.6293    2.7389    9.1386 H         1 RES1    0.0000
     20 C8         0.0466    0.7383   11.8377 C.ar      1 RES1    0.0000
     21 H7        -0.3263    0.2275   12.5206 H         1 RES1    0.0000
     22 C9        -2.2315    2.4322    1.3673 C.ar      1 RES1    0.0000
     23 H8        -2.3131    2.5479    0.4487 H         1 RES1    0.0000
     24 C10       -3.2299    2.8815    2.2097 C.ar      1 RES1    0.0000
     25 H9        -3.9809    3.2999    1.8566 H         1 RES1    0.0000
     26 C11        0.4339    1.1473    9.4910 C.ar      1 RES1    0.0000
     27 N2         1.0019    2.2460   13.5198 N.pl3     1 RES1    0.0000
     28 C12       -1.1138    1.8113    1.8852 C.ar      1 RES1    0.0000
     29 H10       -0.4490    1.5023    1.3138 H         1 RES1    0.0000
     30 C13       -0.2497    4.1473    5.9855 C.3       1 RES1    0.0000
     31 H11        0.3597    4.8074    5.6489 H         1 RES1    0.0000
     32 H12       -0.3180    4.2326    6.9394 H         1 RES1    0.0000
     33 H13       -1.1148    4.2777    5.5902 H         1 RES1    0.0000
     34 C14       -3.1142    2.7096    3.5770 C.ar      1 RES1    0.0000
     35 H14       -3.7912    3.0046    4.1424 H         1 RES1    0.0000
     36 C15        0.8043    1.8530   12.1178 C.ar      1 RES1    0.0000
@<TRIPOS>BOND
     1    1    5 1
     2    2    5 1
     3    3   27 2
     4    4    6 2
     5    5    6 1
     6    6   15 1
     7    7    2 1
     8    8    7 1
     9    9    7 1
    10   10   11 1
    11   12   27 2
    12   13   14 1
    13   15   13 ar
    14   16   17 1
    15   18   16 ar
    16   19   18 1
    17   20   10 ar
    18   21   20 1
    19   22   23 1
    20   24   22 ar
    21   25   24 1
    22   26    7 1
    23   27   36 1
    24   28   13 ar
    25   29   28 1
    26   30    1 1
    27   31   30 1
    28   32   30 1
    29   33   30 1
    30   34   15 ar
    31   35   34 1
    32   36   16 ar
    33   10   26 ar
    34   18   26 ar
    35   20   36 ar
    36   22   28 ar
    37   24   34 ar
@<TRIPOS>SUBSTRUCTURE
     1 RES1 1

@<TRIPOS>CRYSIN
  10.9575   17.3679    7.9564  90.0000 108.8670  90.0000  14 1

