# MOL2 file generated by ConQuest
# Please check atom types

@<TRIPOS>MOLECULE
TAWLUZ
    34    37     1
SMALL
NO_CHARGES
****
Generated from CSD

@<TRIPOS>ATOM
      1 C1         3.6816   13.9713   -1.3195 C.ar      1 RES1    0.0000
      2 C2         2.4637   13.9321   -1.9783 C.ar      1 RES1    0.0000
      3 H1         1.7448   13.4498   -1.6381 H         1 RES1    0.0000
      4 C3         2.3616   14.6357   -3.1569 C.ar      1 RES1    0.0000
      5 H2         1.5533   14.6324   -3.6171 H         1 RES1    0.0000
      6 C4         3.4325   15.3502   -3.6768 C.ar      1 RES1    0.0000
      7 H3         3.3321   15.8064   -4.4817 H         1 RES1    0.0000
      8 C5         4.6402   15.3941   -3.0187 C.ar      1 RES1    0.0000
      9 H4         5.3521   15.8799   -3.3689 H         1 RES1    0.0000
     10 C6         4.7778   14.6997   -1.8198 C.ar      1 RES1    0.0000
     11 C7         5.8605   14.5511   -0.8692 C.ar      1 RES1    0.0000
     12 C8         7.1827   14.9887   -0.8411 C.ar      1 RES1    0.0000
     13 H5         7.5211   15.5188   -1.5266 H         1 RES1    0.0000
     14 C9         7.9761   14.6246    0.2144 C.ar      1 RES1    0.0000
     15 H6         8.8605   14.9113    0.2403 H         1 RES1    0.0000
     16 C10        7.4843   13.8364    1.2463 C.ar      1 RES1    0.0000
     17 H7         8.0476   13.5990    1.9468 H         1 RES1    0.0000
     18 C11        6.1806   13.3983    1.2533 C.ar      1 RES1    0.0000
     19 H8         5.8522   12.8747    1.9475 H         1 RES1    0.0000
     20 C12        5.3743   13.7668    0.1880 C.ar      1 RES1    0.0000
     21 C13        3.2060   12.6576    0.7708 C.ar      1 RES1    0.0000
     22 C14        3.0925   13.0317    2.1023 C.ar      1 RES1    0.0000
     23 H9         3.5484   13.7806    2.4148 H         1 RES1    0.0000
     24 C15        2.3046   12.2975    2.9634 C.ar      1 RES1    0.0000
     25 H10        2.2311   12.5353    3.8597 H         1 RES1    0.0000
     26 C16        1.6284   11.2039    2.4701 C.ar      1 RES1    0.0000
     27 C17        1.7138   10.8234    1.1549 C.ar      1 RES1    0.0000
     28 H11        1.2419   10.0836    0.8466 H         1 RES1    0.0000
     29 C18        2.5095   11.5546    0.2969 C.ar      1 RES1    0.0000
     30 H12        2.5791   11.3094   -0.5976 H         1 RES1    0.0000
     31 N1         4.0474   13.4048   -0.0920 N.pl3     1 RES1    0.0000
     32 N2         0.7970   10.4269    3.3994 N.pl3     1 RES1    0.0000
     33 O1         0.2970    9.3976    2.9990 O.2       1 RES1    0.0000
     34 O2         0.6636   10.8286    4.5315 O.2       1 RES1    0.0000
@<TRIPOS>BOND
     1    1    2 ar
     2    2    3 1
     3    4    2 ar
     4    5    4 1
     5    6    4 ar
     6    7    6 1
     7    8    6 ar
     8    9    8 1
     9   10    1 ar
    10   11   10 1
    11   12   11 ar
    12   13   12 1
    13   14   12 ar
    14   15   14 1
    15   16   14 ar
    16   17   16 1
    17   18   16 ar
    18   19   18 1
    19   20   11 ar
    20   21   22 ar
    21   22   23 1
    22   24   22 ar
    23   25   24 1
    24   26   24 ar
    25   27   26 ar
    26   28   27 1
    27   29   21 ar
    28   30   29 1
    29   31    1 1
    30   32   26 1
    31   33   32 2
    32   34   32 2
    33    8   10 ar
    34   18   20 ar
    35   20   31 1
    36   21   31 1
    37   27   29 ar
@<TRIPOS>SUBSTRUCTURE
     1 RES1 1

@<TRIPOS>CRYSIN
   8.3560   21.6200    8.1530  90.0000 105.5920  90.0000  14 1

