# MOL2 file generated by ConQuest
# Please check atom types

@<TRIPOS>MOLECULE
TAWSEQ
    35    36     1
SMALL
NO_CHARGES
****
Generated from CSD

@<TRIPOS>ATOM
      1 O1        10.0043    4.5612    8.1058 O.2       1 RES1    0.0000
      2 O2         7.9787    5.1696    8.5295 O.2       1 RES1    0.0000
      3 N1         9.9898    1.3259    5.6686 N.3       1 RES1    0.0000
      4 N2         8.8269    4.7032    7.7825 N.pl3     1 RES1    0.0000
      5 C1        10.1877    1.3349    4.2612 C.ar      1 RES1    0.0000
      6 C2        10.8223    0.3152    3.5898 C.ar      1 RES1    0.0000
      7 C3        10.9054    0.3124    2.1806 C.ar      1 RES1    0.0000
      8 C4        10.3172    1.2999    1.4514 C.ar      1 RES1    0.0000
      9 C5         9.0628    3.4197    1.3469 C.ar      1 RES1    0.0000
     10 C6         8.4836    4.4910    1.9624 C.ar      1 RES1    0.0000
     11 C7         8.5485    4.6081    3.3663 C.ar      1 RES1    0.0000
     12 C8         9.1346    3.6313    4.1493 C.ar      1 RES1    0.0000
     13 C9         9.6656    2.4511    3.5266 C.ar      1 RES1    0.0000
     14 C10        9.6762    2.3875    2.0982 C.ar      1 RES1    0.0000
     15 C11        9.3381    3.9185    5.5893 C.2       1 RES1    0.0000
     16 C12        8.3829    4.3221    6.4311 C.2       1 RES1    0.0000
     17 C13        6.9115    4.4200    6.2204 C.3       1 RES1    0.0000
     18 C14        8.6128    0.9825    6.0341 C.3       1 RES1    0.0000
     19 C15       10.9473    0.5410    6.4445 C.3       1 RES1    0.0000
     20 H1        11.1919   -0.4898    4.0964 H         1 RES1    0.0000
     21 H2        11.3764   -0.3976    1.7243 H         1 RES1    0.0000
     22 H3        10.3179    1.2992    0.4751 H         1 RES1    0.0000
     23 H4         9.0848    3.3508    0.3719 H         1 RES1    0.0000
     24 H5         8.0682    5.2250    1.4539 H         1 RES1    0.0000
     25 H6         8.2197    5.4167    3.7619 H         1 RES1    0.0000
     26 H7        10.2523    3.8904    5.8706 H         1 RES1    0.0000
     27 H8         6.6675    3.9898    5.3777 H         1 RES1    0.0000
     28 H9         6.6242    5.3457    6.2301 H         1 RES1    0.0000
     29 H10        6.4278    3.9543    6.9525 H         1 RES1    0.0000
     30 H11        7.9789    1.5618    5.5040 H         1 RES1    0.0000
     31 H12        8.4174    0.0284    5.8457 H         1 RES1    0.0000
     32 H13        8.4795    1.1146    6.9739 H         1 RES1    0.0000
     33 H14       11.8715    0.7596    6.2283 H         1 RES1    0.0000
     34 H15       10.7838    0.7454    7.3814 H         1 RES1    0.0000
     35 H16       10.8332   -0.4331    6.3084 H         1 RES1    0.0000
@<TRIPOS>BOND
     1    1    4 2
     2    2    4 2
     3    3    5 1
     4    4   16 1
     5    5    6 ar
     6    6    7 ar
     7    7    8 ar
     8    8   14 ar
     9    9   10 ar
    10   10   11 ar
    11   11   12 ar
    12   12   13 ar
    13   13    5 ar
    14   14    9 ar
    15   15   12 1
    16   16   15 2
    17   17   16 1
    18   18    3 1
    19   19    3 1
    20   20    6 1
    21   21    7 1
    22   22    8 1
    23   23    9 1
    24   24   10 1
    25   25   11 1
    26   26   15 1
    27   27   17 1
    28   28   17 1
    29   29   17 1
    30   30   18 1
    31   31   18 1
    32   32   18 1
    33   33   19 1
    34   34   19 1
    35   35   19 1
    36   13   14 ar
@<TRIPOS>SUBSTRUCTURE
     1 RES1 1

@<TRIPOS>CRYSIN
  10.3347    7.0992   18.2556  90.0000 102.8970  90.0000 231 1

