# MOL2 file generated by ConQuest
# Please check atom types

@<TRIPOS>MOLECULE
TAWSAM
    32    33     1
SMALL
NO_CHARGES
****
Generated from CSD

@<TRIPOS>ATOM
      1 O1         3.1522   -0.7190   14.7806 O.2       1 RES1    0.0000
      2 O2         1.7088   -1.9821   15.7774 O.2       1 RES1    0.0000
      3 N1        -1.6564    0.2603   16.6416 N.3       1 RES1    0.0000
      4 N2         2.2415   -0.8941   15.5896 N.pl3     1 RES1    0.0000
      5 C1        -1.9312    1.0656   17.7729 C.ar      1 RES1    0.0000
      6 C2        -3.2040    1.3123   18.2380 C.ar      1 RES1    0.0000
      7 C3        -3.4282    2.2250   19.2868 C.ar      1 RES1    0.0000
      8 C4        -2.3987    2.9185   19.8386 C.ar      1 RES1    0.0000
      9 C5         0.0288    3.3268   20.0377 C.ar      1 RES1    0.0000
     10 C6         1.3134    3.0023   19.7248 C.ar      1 RES1    0.0000
     11 C7         1.5724    1.9767   18.8014 C.ar      1 RES1    0.0000
     12 C8         0.5502    1.2948   18.1697 C.ar      1 RES1    0.0000
     13 C9        -1.0611    2.6597   19.4325 C.ar      1 RES1    0.0000
     14 C10       -0.8130    1.6637   18.4422 C.ar      1 RES1    0.0000
     15 C11        0.8995    0.1557   17.3013 C.2       1 RES1    0.0000
     16 C12        1.8194    0.2554   16.3547 C.2       1 RES1    0.0000
     17 C13       -2.6403   -0.7702   16.3250 C.3       1 RES1    0.0000
     18 C14       -1.3216    1.0508   15.4467 C.3       1 RES1    0.0000
     19 H1        -3.9705    0.8497   17.8138 H         1 RES1    0.0000
     20 H2        -4.3548    2.3626   19.5901 H         1 RES1    0.0000
     21 H3        -2.5727    3.5741   20.5108 H         1 RES1    0.0000
     22 H4        -0.1474    4.0126   20.6632 H         1 RES1    0.0000
     23 H5         2.0110    3.4370   20.1747 H         1 RES1    0.0000
     24 H6         2.5296    1.6993   18.6130 H         1 RES1    0.0000
     25 H7         0.4811   -0.7126   17.4637 H         1 RES1    0.0000
     26 H8         2.2690    1.0141   16.0827 H         1 RES1    0.0000
     27 H9        -3.5119   -0.3837   16.0065 H         1 RES1    0.0000
     28 H10       -2.8034   -1.3046   17.1022 H         1 RES1    0.0000
     29 H11       -2.2618   -1.3540   15.6506 H         1 RES1    0.0000
     30 H12       -2.1415    1.4636   15.0661 H         1 RES1    0.0000
     31 H13       -0.6860    1.7596   15.6676 H         1 RES1    0.0000
     32 H14       -0.9264    0.4385   14.7921 H         1 RES1    0.0000
@<TRIPOS>BOND
     1    1    4 2
     2    2    4 2
     3    3    5 1
     4    4   16 1
     5    5    6 ar
     6    6    7 ar
     7    7    8 ar
     8    8   13 ar
     9    9   10 ar
    10   10   11 ar
    11   11   12 ar
    12   12   14 ar
    13   13    9 ar
    14   14    5 ar
    15   15   12 1
    16   16   15 2
    17   17    3 1
    18   18    3 1
    19   19    6 1
    20   20    7 1
    21   21    8 1
    22   22    9 1
    23   23   10 1
    24   24   11 1
    25   25   15 1
    26   26   16 1
    27   27   17 1
    28   28   17 1
    29   29   17 1
    30   30   18 1
    31   31   18 1
    32   32   18 1
    33   13   14 ar
@<TRIPOS>SUBSTRUCTURE
     1 RES1 1

@<TRIPOS>CRYSIN
  15.8700    5.4817   28.7715  90.0000 101.0295  90.0000  15 1

