# MOL2 file generated by ConQuest
# Please check atom types

@<TRIPOS>MOLECULE
TAWYIC
    43    44     1
SMALL
NO_CHARGES
****
Generated from CSD

@<TRIPOS>ATOM
      1 O1         5.1352    3.1746    7.3479 O.3       1 RES1    0.0000
      2 O2         5.5450    2.7047    2.5565 O.2       1 RES1    0.0000
      3 O3         3.2820   -2.2748    5.0369 O.2       1 RES1    0.0000
      4 C1         3.7479   -0.0097    5.1534 C.ar      1 RES1    0.0000
      5 O4         3.2030   -1.1423    3.2038 O.2       1 RES1    0.0000
      6 C2         4.6170    2.1620    6.6036 C.ar      1 RES1    0.0000
      7 C3         4.8936    0.8689    7.0599 C.ar      1 RES1    0.0000
      8 H1         5.3818    0.7394    7.8645 H         1 RES1    0.0000
      9 C4         3.4188    1.2657    4.6835 C.ar      1 RES1    0.0000
     10 N1         3.3822   -1.2160    4.4157 N.pl3     1 RES1    0.0000
     11 C5         3.8275    4.2566    2.1633 C.2       1 RES1    0.0000
     12 C6         4.4554   -0.2072    6.3390 C.ar      1 RES1    0.0000
     13 H2         4.6330   -1.0888    6.6453 H         1 RES1    0.0000
     14 C7         3.8606    2.3469    5.4499 C.ar      1 RES1    0.0000
     15 H3         3.6402    3.2297    5.1768 H         1 RES1    0.0000
     16 C8         3.3841    1.7533    2.1483 C.3       1 RES1    0.0000
     17 H4         3.9046    0.9165    1.9794 H         1 RES1    0.0000
     18 C9         1.4249    0.9173    0.7327 C.3       1 RES1    0.0000
     19 H5         0.9499    1.0574   -0.1130 H         1 RES1    0.0000
     20 H6         0.7857    0.9462    1.4751 H         1 RES1    0.0000
     21 H7         1.8684    0.0435    0.7174 H         1 RES1    0.0000
     22 C10        4.3644    2.9023    2.3095 C.2       1 RES1    0.0000
     23 C11        2.6535    4.4950    1.5684 C.2       1 RES1    0.0000
     24 C12        2.1504    5.8864    1.3170 C.3       1 RES1    0.0000
     25 H8         2.7072    6.5283    1.8052 H         1 RES1    0.0000
     26 H9         1.2225    5.9589    1.6242 H         1 RES1    0.0000
     27 H10        2.1928    6.0807    0.3573 H         1 RES1    0.0000
     28 C13        2.4731    2.0193    0.9182 C.3       1 RES1    0.0000
     29 C14        2.5760    1.5693    3.4576 C.3       1 RES1    0.0000
     30 H11        2.0575    2.3951    3.6275 H         1 RES1    0.0000
     31 H12        1.9292    0.8312    3.3285 H         1 RES1    0.0000
     32 C15        1.7757    3.3794    1.0756 C.3       1 RES1    0.0000
     33 H13        1.3974    3.6415    0.1989 H         1 RES1    0.0000
     34 H14        1.0195    3.2732    1.7060 H         1 RES1    0.0000
     35 C16        3.3637    2.0499   -0.3336 C.3       1 RES1    0.0000
     36 H15        3.8270    1.1914   -0.4261 H         1 RES1    0.0000
     37 H16        4.0233    2.7696   -0.2478 H         1 RES1    0.0000
     38 H17        2.8085    2.2085   -1.1255 H         1 RES1    0.0000
     39 C17        4.9457    4.5124    6.8655 C.3       1 RES1    0.0000
     40 H18        5.2712    4.5762    5.9433 H         1 RES1    0.0000
     41 H19        5.4447    5.1376    7.4319 H         1 RES1    0.0000
     42 H20        3.9924    4.7372    6.8919 H         1 RES1    0.0000
     43 H21        4.3842    4.9600    2.4623 H         1 RES1    0.0000
@<TRIPOS>BOND
     1    1    6 1
     2    2   22 2
     3    3   10 2
     4    4    9 ar
     5    5   10 2
     6    6    7 ar
     7    7    8 1
     8    9   14 ar
     9   10    4 1
    10   11   22 1
    11   12    4 ar
    12   13   12 1
    13   14    6 ar
    14   15   14 1
    15   16   17 1
    16   18   19 1
    17   20   18 1
    18   21   18 1
    19   22   16 1
    20   23   11 2
    21   24   23 1
    22   25   24 1
    23   26   24 1
    24   27   24 1
    25   28   16 1
    26   29    9 1
    27   30   29 1
    28   31   29 1
    29   32   23 1
    30   33   32 1
    31   34   32 1
    32   35   28 1
    33   36   35 1
    34   37   35 1
    35   38   35 1
    36   39    1 1
    37   40   39 1
    38   41   39 1
    39   42   39 1
    40   43   11 1
    41    7   12 ar
    42   16   29 1
    43   18   28 1
    44   28   32 1
@<TRIPOS>SUBSTRUCTURE
     1 RES1 1

@<TRIPOS>CRYSIN
   7.9810    9.1356   11.4590  84.9330  71.1090  84.0800   2 1

