# MOL2 file generated by ConQuest
# Please check atom types

@<TRIPOS>MOLECULE
TAXDUU01
    26    27     1
SMALL
NO_CHARGES
****
Generated from CSD

@<TRIPOS>ATOM
      1 O1         2.0208    4.0091   12.4606 O.3       1 RES1    0.0000
      2 O2         1.1645    2.3524   10.0941 O.3       1 RES1    0.0000
      3 O3         0.2571    5.3621   12.7433 O.2       1 RES1    0.0000
      4 O4         1.1469    4.3021   14.4232 O.2       1 RES1    0.0000
      5 N1         0.1257    1.8378    9.3079 N.2       1 RES1    0.0000
      6 N2         1.0423    4.6236   13.2697 N.pl3     1 RES1    0.0000
      7 C1         0.9236    3.6701   10.3101 C.2       1 RES1    0.0000
      8 C2        -0.6763    2.8511    9.0914 C.2       1 RES1    0.0000
      9 C3        -0.2208    4.0432    9.7094 C.2       1 RES1    0.0000
     10 H1        -0.6189    4.8838    9.7014 H         1 RES1    0.0000
     11 C4         1.9621    4.4124   11.0708 C.3       1 RES1    0.0000
     12 H2         2.8269    4.2609   10.6589 H         1 RES1    0.0000
     13 H3         1.7722    5.3625   11.0234 H         1 RES1    0.0000
     14 O1B       -4.5776    1.4769    4.9143 O.3       1 RES1    0.0000
     15 O2B       -3.7212    3.1336    7.2808 O.3       1 RES1    0.0000
     16 O3B       -2.8139    0.1239    4.6316 O.2       1 RES1    0.0000
     17 O4B       -3.7036    1.1839    2.9516 O.2       1 RES1    0.0000
     18 N1B       -2.6824    3.6482    8.0670 N.2       1 RES1    0.0000
     19 N2B       -3.5990    0.8624    4.1052 N.pl3     1 RES1    0.0000
     20 C1B       -3.4803    1.8159    7.0648 C.2       1 RES1    0.0000
     21 C2B       -1.8804    2.6349    8.2835 C.2       1 RES1    0.0000
     22 C3B       -2.3359    1.4428    7.6655 C.2       1 RES1    0.0000
     23 H1B       -1.9378    0.6022    7.6735 H         1 RES1    0.0000
     24 C4B       -4.5188    1.0736    6.3041 C.3       1 RES1    0.0000
     25 H2B       -5.3836    1.2251    6.7160 H         1 RES1    0.0000
     26 H3B       -4.3289    0.1235    6.3515 H         1 RES1    0.0000
@<TRIPOS>BOND
     1    1    6 1
     2    2    5 1
     3    3    6 2
     4    4    6 2
     5    5    8 2
     6    7    2 1
     7    8    9 1
     8    9    7 2
     9   10    9 1
    10   11    1 1
    11   12   11 1
    12   13   11 1
    13   14   19 1
    14   15   18 1
    15   16   19 2
    16   17   19 2
    17   18   21 2
    18   20   15 1
    19   21    8 1
    20   22   20 2
    21   23   22 1
    22   24   14 1
    23   25   24 1
    24   26   24 1
    25    7   11 1
    26   20   24 1
    27   21   22 1
@<TRIPOS>SUBSTRUCTURE
     1 RES1 1

@<TRIPOS>CRYSIN
   5.9328    5.4860   17.5620  90.0000  98.3710  90.0000 231 1

