# MOL2 file generated by ConQuest
# Please check atom types

@<TRIPOS>MOLECULE
TAXSER
    32    32     1
SMALL
NO_CHARGES
****
Generated from CSD

@<TRIPOS>ATOM
      1 O1         1.9827   11.1414    1.4024 O.2       1 RES1    0.0000
      2 O2         2.9635   12.4632    0.0202 O.2       1 RES1    0.0000
      3 O3         7.6452   12.4441   -0.2782 O.2       1 RES1    0.0000
      4 O4         8.9221   11.6432    1.2514 O.2       1 RES1    0.0000
      5 O5        10.0495    8.9731    7.0060 O.2       1 RES1    0.0000
      6 O6         7.9509    8.5466    6.7566 O.2       1 RES1    0.0000
      7 N1         2.9727   11.7030    0.9684 N.pl3     1 RES1    0.0000
      8 N2         7.8055   11.8703    0.7929 N.pl3     1 RES1    0.0000
      9 N3         7.9019   10.4538    3.3343 N.pl3     1 RES1    0.0000
     10 H1         8.6353   10.6338    2.9222 H         1 RES1    0.0000
     11 N4         7.9353    9.8456    4.5404 N.2       1 RES1    0.0000
     12 N5         9.0162    8.9802    6.3568 N.pl3     1 RES1    0.0000
     13 C1         5.4941   10.4741    3.4113 C.ar      1 RES1    0.0000
     14 H2         5.5132   10.0497    4.2391 H         1 RES1    0.0000
     15 C2         4.2875   10.7814    2.8446 C.ar      1 RES1    0.0000
     16 H3         3.4958   10.5652    3.2811 H         1 RES1    0.0000
     17 C3         4.2574   11.4185    1.6121 C.ar      1 RES1    0.0000
     18 C4         5.4026   11.7598    0.9586 C.ar      1 RES1    0.0000
     19 H4         5.3640   12.1997    0.1400 H         1 RES1    0.0000
     20 C5         6.6217   11.4444    1.5271 C.ar      1 RES1    0.0000
     21 C6         6.7023   10.7842    2.7700 C.ar      1 RES1    0.0000
     22 C7         9.0903    9.5977    5.0057 C.2       1 RES1    0.0000
     23 C8        10.4294    9.8818    4.4494 C.3       1 RES1    0.0000
     24 H5        10.4223    9.6978    3.4969 H         1 RES1    0.0000
     25 H6        11.0773    9.2896    4.8620 H         1 RES1    0.0000
     26 C9        10.8658   11.3464    4.6780 C.3       1 RES1    0.0000
     27 H7        10.1309   11.9358    4.4475 H         1 RES1    0.0000
     28 H8        11.0671   11.4748    5.6182 H         1 RES1    0.0000
     29 C10       12.0588   11.7155    3.8698 C.3       1 RES1    0.0000
     30 H9        12.8060   11.1739    4.1364 H         1 RES1    0.0000
     31 H10       12.2683   12.6413    4.0122 H         1 RES1    0.0000
     32 H11       11.8731   11.5681    2.9393 H         1 RES1    0.0000
@<TRIPOS>BOND
     1    1    7 2
     2    2    7 2
     3    3    8 2
     4    4    8 2
     5    5   12 2
     6    6   12 2
     7    7   17 1
     8    8   20 1
     9    9   10 1
    10   11    9 1
    11   12   22 1
    12   13   14 1
    13   15   13 ar
    14   16   15 1
    15   17   15 ar
    16   18   17 ar
    17   19   18 1
    18   20   18 ar
    19   21    9 1
    20   22   11 2
    21   23   22 1
    22   24   23 1
    23   25   23 1
    24   26   23 1
    25   27   26 1
    26   28   26 1
    27   29   26 1
    28   30   29 1
    29   31   29 1
    30   32   29 1
    31   13   21 ar
    32   20   21 ar
@<TRIPOS>SUBSTRUCTURE
     1 RES1 1

@<TRIPOS>CRYSIN
  12.2840   17.5940    6.1338  90.0000  94.6700  90.0000  14 1

