# MOL2 file generated by ConQuest
# Please check atom types

@<TRIPOS>MOLECULE
TAXSOB
    39    36     2
SMALL
NO_CHARGES
****
Generated from CSD

@<TRIPOS>ATOM
      1 O1         5.7335   -1.2801   13.8515 O.2       1 RES1    0.0000
      2 O2         4.0803   -0.0158   13.2848 O.2       1 RES1    0.0000
      3 O3         3.3351    4.5796   17.4258 O.2       1 RES1    0.0000
      4 O4         2.1078    2.7431   17.8269 O.3       1 RES1    0.0000
      5 O5         1.2170    3.5393   13.7113 O.2       1 RES1    0.0000
      6 O6         0.8780    4.7161   15.5777 O.3       1 RES1    0.0000
      7 N1         5.1354    2.0932   16.7236 N.2       1 RES1    0.0000
      8 N2         6.3186    0.3577   15.9828 N.pl3     1 RES1    0.0000
      9 N3         5.0147   -0.3014   14.0220 N.pl3     1 RES1    0.0000
     10 C1         4.5360    1.6252   15.5902 C.2       1 RES1    0.0000
     11 C2         6.1879    1.3237   16.9126 C.2       1 RES1    0.0000
     12 H1         6.8293    1.3860   17.6240 H         1 RES1    0.0000
     13 C3         7.4549   -0.5652   15.9146 C.3       1 RES1    0.0000
     14 H2         7.3345   -1.1577   15.1704 H         1 RES1    0.0000
     15 H3         7.5016   -1.0769   16.7257 H         1 RES1    0.0000
     16 H4         8.2688   -0.0699   15.8022 H         1 RES1    0.0000
     17 C4         5.2642    0.5472   15.1291 C.2       1 RES1    0.0000
     18 C5         3.3789    2.2729   15.0096 C.2       1 RES1    0.0000
     19 H5         3.1209    2.0659   14.1082 H         1 RES1    0.0000
     20 C6         2.6115    3.1778   15.6143 C.2       1 RES1    0.0000
     21 C7         2.7568    3.6015   17.0440 C.2       1 RES1    0.0000
     22 C8         2.1101    3.0145   19.2514 C.3       1 RES1    0.0000
     23 H6         3.0177    3.0128   19.5647 H         1 RES1    0.0000
     24 H7         1.7189    3.8773   19.4080 H         1 RES1    0.0000
     25 C9         1.3098    1.9496   19.9031 C.3       1 RES1    0.0000
     26 H8         1.2779    2.0741   20.8536 H         1 RES1    0.0000
     27 H9         1.7169    1.1031   19.7051 H         1 RES1    0.0000
     28 H10        0.4180    1.9676   19.5485 H         1 RES1    0.0000
     29 C10        1.5062    3.8140   14.8375 C.2       1 RES1    0.0000
     30 C11       -0.1813    5.4785   14.9437 C.3       1 RES1    0.0000
     31 H11        0.1867    5.9689   14.2054 H         1 RES1    0.0000
     32 H12       -0.8440    4.8636   14.6213 H         1 RES1    0.0000
     33 C12       -0.7449    6.3894   15.9360 C.3       1 RES1    0.0000
     34 H13       -1.4571    6.9131   15.5628 H         1 RES1    0.0000
     35 H14       -0.0502    6.9721   16.2505 H         1 RES1    0.0000
     36 H15       -1.0810    5.8668   16.6681 H         1 RES1    0.0000
     37 H16        8.0119   -0.2883   16.7707 Du        2 SUP2    0.0000
     38 H17        7.9539   -0.3774   14.9777 Du        2 SUP2    0.0000
     39 H18        7.1093   -1.6268   15.9967 Du        2 SUP2    0.0000
@<TRIPOS>BOND
     1    1    9 2
     2    2    9 2
     3    3   21 2
     4    4   21 1
     5    5   29 2
     6    6   29 1
     7    7   10 1
     8    8   11 1
     9    9   17 1
    10   10   17 2
    11   11    7 2
    12   12   11 1
    13   13    8 1
    14   14   13 1
    15   15   13 1
    16   16   13 1
    17   17    8 1
    18   18   10 1
    19   19   18 1
    20   20   18 2
    21   21   20 1
    22   22    4 1
    23   23   22 1
    24   24   22 1
    25   25   22 1
    26   26   25 1
    27   27   25 1
    28   28   25 1
    29   29   20 1
    30   30    6 1
    31   31   30 1
    32   32   30 1
    33   33   30 1
    34   34   33 1
    35   35   33 1
    36   36   33 1
@<TRIPOS>SUBSTRUCTURE
     1 RES1 1
     2 SUP2 37

@<TRIPOS>CRYSIN
  14.7940    5.4610   18.0420  90.0000  93.8120  90.0000  14 1

