# MOL2 file generated by ConQuest
# Please check atom types

@<TRIPOS>MOLECULE
TAXWOG
    55    59     1
SMALL
NO_CHARGES
****
Generated from CSD

@<TRIPOS>ATOM
      1 C1        17.2597    1.2294    6.7661 C.ar      1 RES1    0.0000
      2 H1        17.5829    0.3867    7.0623 H         1 RES1    0.0000
      3 C2        16.1742    1.8098    7.3685 C.ar      1 RES1    0.0000
      4 C3        15.7051    3.0653    7.0313 C.ar      1 RES1    0.0000
      5 H2        14.9593    3.4575    7.4709 H         1 RES1    0.0000
      6 C4        16.3775    3.7144    6.0226 C.ar      1 RES1    0.0000
      7 C5        17.4349    3.1532    5.3301 C.ar      1 RES1    0.0000
      8 H3        17.8451    3.6175    4.6106 H         1 RES1    0.0000
      9 C6        17.8814    1.8977    5.7101 C.ar      1 RES1    0.0000
     10 C7        19.1405    1.2926    5.1625 C.2       1 RES1    0.0000
     11 C8        18.3769    1.5852    2.8079 C.3       1 RES1    0.0000
     12 H4        18.2016    2.5351    2.5900 H         1 RES1    0.0000
     13 H5        17.5284    1.1532    3.0804 H         1 RES1    0.0000
     14 C9        19.0107    0.8572    1.6253 C.3       1 RES1    0.0000
     15 H6        18.7154    1.2562    0.7698 H         1 RES1    0.0000
     16 H7        18.7636   -0.1017    1.6318 H         1 RES1    0.0000
     17 C10       20.5217    1.0275    1.8072 C.3       1 RES1    0.0000
     18 H8        20.9573    0.1992    1.4552 H         1 RES1    0.0000
     19 C11       20.7224    1.0323    3.3355 C.3       1 RES1    0.0000
     20 H9        20.8608    0.0831    3.6181 H         1 RES1    0.0000
     21 C12       21.9021    1.8544    3.9063 C.3       1 RES1    0.0000
     22 H10       21.5571    2.3703    4.6897 H         1 RES1    0.0000
     23 C13       23.0411    0.9616    4.4077 C.3       1 RES1    0.0000
     24 H11       22.7882    0.4938    5.2420 H         1 RES1    0.0000
     25 H12       23.2978    0.2919    3.7249 H         1 RES1    0.0000
     26 C14       24.1662    1.9575    4.6537 C.3       1 RES1    0.0000
     27 H13       25.0448    1.5014    4.6805 H         1 RES1    0.0000
     28 H14       24.0297    2.4437    5.5056 H         1 RES1    0.0000
     29 C15       24.0801    2.9087    3.4615 C.3       1 RES1    0.0000
     30 H15       24.6987    2.6196    2.7456 H         1 RES1    0.0000
     31 H16       24.3233    3.8277    3.7368 H         1 RES1    0.0000
     32 C16       22.6122    2.8668    2.9539 C.3       1 RES1    0.0000
     33 C17       22.5545    2.3709    1.5105 C.3       1 RES1    0.0000
     34 H17       23.0273    3.0131    0.9240 H         1 RES1    0.0000
     35 H18       23.0168    1.4980    1.4446 H         1 RES1    0.0000
     36 C18       21.1215    2.2191    1.0396 C.3       1 RES1    0.0000
     37 C19       20.3990    3.5674    1.1794 C.3       1 RES1    0.0000
     38 H19       20.7623    4.1931    0.5048 H         1 RES1    0.0000
     39 H20       19.4389    3.4342    0.9767 H         1 RES1    0.0000
     40 C20       20.5226    4.2096    2.5556 C.3       1 RES1    0.0000
     41 H21       19.9863    3.6938    3.2082 H         1 RES1    0.0000
     42 H22       20.1604    5.1306    2.5215 H         1 RES1    0.0000
     43 C21       21.9745    4.2535    3.0187 C.3       1 RES1    0.0000
     44 H23       22.0143    4.5915    3.9490 H         1 RES1    0.0000
     45 H24       22.4841    4.8779    2.4437 H         1 RES1    0.0000
     46 N1        15.9633    5.0963    5.6916 N.pl3     1 RES1    0.0000
     47 N2        15.4710    1.0625    8.4265 N.pl3     1 RES1    0.0000
     48 N3        19.4037    1.4602    3.8655 N.am      1 RES1    0.0000
     49 O1        16.5914    5.6938    4.8352 O.2       1 RES1    0.0000
     50 O2        15.0399    5.5805    6.3238 O.2       1 RES1    0.0000
     51 O3        14.3268    1.3950    8.6825 O.2       1 RES1    0.0000
     52 O4        16.0660    0.1559    8.9790 O.2       1 RES1    0.0000
     53 O5        19.9159    0.7467    5.9482 O.2       1 RES1    0.0000
     54 O6        21.0678    1.9311   -0.3600 O.3       1 RES1    0.0000
     55 H25       21.3747    1.1614   -0.4996 H         1 RES1    0.0000
@<TRIPOS>BOND
     1    1    2 1
     2    3    1 ar
     3    4    3 ar
     4    5    4 1
     5    6    4 ar
     6    7    6 ar
     7    8    7 1
     8    9    1 ar
     9   10    9 1
    10   11   12 1
    11   13   11 1
    12   14   11 1
    13   15   14 1
    14   16   14 1
    15   17   14 1
    16   18   17 1
    17   19   17 1
    18   20   19 1
    19   21   19 1
    20   22   21 1
    21   23   21 1
    22   24   23 1
    23   25   23 1
    24   26   23 1
    25   27   26 1
    26   28   26 1
    27   29   26 1
    28   30   29 1
    29   31   29 1
    30   32   21 1
    31   33   32 1
    32   34   33 1
    33   35   33 1
    34   36   17 1
    35   37   36 1
    36   38   37 1
    37   39   37 1
    38   40   37 1
    39   41   40 1
    40   42   40 1
    41   43   32 1
    42   44   43 1
    43   45   43 1
    44   46    6 1
    45   47    3 1
    46   48   10 1
    47   49   46 2
    48   50   46 2
    49   51   47 2
    50   52   47 2
    51   53   10 2
    52   54   36 1
    53   55   54 1
    54    7    9 ar
    55   11   48 1
    56   19   48 1
    57   29   32 1
    58   33   36 1
    59   40   43 1
@<TRIPOS>SUBSTRUCTURE
     1 RES1 1

@<TRIPOS>CRYSIN
  20.9720    6.8683   13.1808  90.0000  90.0000  90.0000  33 1

