# MOL2 file generated by ConQuest
# Please check atom types

@<TRIPOS>MOLECULE
TAXWUM
    53    57     1
SMALL
NO_CHARGES
****
Generated from CSD

@<TRIPOS>ATOM
      1 C1         9.2458    9.3523    4.3234 C.ar      1 RES1    0.0000
      2 C2         8.6275    9.9032    5.4316 C.ar      1 RES1    0.0000
      3 C3         7.7116    9.1255    6.1198 C.ar      1 RES1    0.0000
      4 C4         7.4534    7.8271    5.7121 C.ar      1 RES1    0.0000
      5 C5         8.1218    7.2686    4.6233 C.ar      1 RES1    0.0000
      6 C6         9.0267    8.0500    3.9065 C.ar      1 RES1    0.0000
      7 C7         7.8612    5.8634    4.1428 C.2       1 RES1    0.0000
      8 C8         8.2074    5.0119    6.4349 C.3       1 RES1    0.0000
      9 C9         8.8820    3.6588    6.6166 C.3       1 RES1    0.0000
     10 C10        8.0030    2.6712    5.8532 C.3       1 RES1    0.0000
     11 C11        7.4592    3.4920    4.6507 C.3       1 RES1    0.0000
     12 C12        6.1090    2.9675    4.0645 C.3       1 RES1    0.0000
     13 C13        5.2472    3.9704    3.2711 C.3       1 RES1    0.0000
     14 C14        4.3591    4.8407    4.1544 C.3       1 RES1    0.0000
     15 C15        3.4818    3.9986    5.0828 C.3       1 RES1    0.0000
     16 C16        4.3056    3.0185    5.9215 C.3       1 RES1    0.0000
     17 C17        5.1933    2.1559    5.0161 C.3       1 RES1    0.0000
     18 C18        6.0125    1.1775    5.8530 C.3       1 RES1    0.0000
     19 C19        6.9644    1.9558    6.7430 C.3       1 RES1    0.0000
     20 C20        6.1427    2.8436    7.6850 C.3       1 RES1    0.0000
     21 C21        5.1361    3.7511    6.9784 C.3       1 RES1    0.0000
     22 N1        10.1713   10.1996    3.5490 N.pl3     1 RES1    0.0000
     23 N2         7.5821    4.9255    5.0850 N.am      1 RES1    0.0000
     24 O1        10.9031    9.6518    2.7345 O.2       1 RES1    0.0000
     25 O2        10.1603   11.4032    3.7517 O.2       1 RES1    0.0000
     26 O3         7.8659    5.6401    2.9310 O.2       1 RES1    0.0000
     27 O4         7.7676    1.0644    7.5414 O.3       1 RES1    0.0000
     28 H1         8.8436   10.7932    5.7312 H         1 RES1    0.0000
     29 H2         7.2661    9.4755    6.8591 H         1 RES1    0.0000
     30 H3         6.8414    7.3000    6.1754 H         1 RES1    0.0000
     31 H4         7.2724    0.7510    8.1473 H         1 RES1    0.0000
     32 H5         9.4770    7.6856    3.1806 H         1 RES1    0.0000
     33 H6         7.5428    5.1729    7.1257 H         1 RES1    0.0000
     34 H7         8.8430    5.7800    6.4527 H         1 RES1    0.0000
     35 H8         8.9404    3.4167    7.5402 H         1 RES1    0.0000
     36 H9         9.7598    3.6551    6.2185 H         1 RES1    0.0000
     37 H10        8.5446    1.9360    5.5010 H         1 RES1    0.0000
     38 H11        8.1194    3.3976    3.9114 H         1 RES1    0.0000
     39 H12        6.4268    2.2879    3.4040 H         1 RES1    0.0000
     40 H13        5.7945    4.5253    2.7014 H         1 RES1    0.0000
     41 H14        4.6861    3.4032    2.6852 H         1 RES1    0.0000
     42 H15        4.9616    5.4764    4.6773 H         1 RES1    0.0000
     43 H16        3.7853    5.4056    3.5817 H         1 RES1    0.0000
     44 H17        2.9507    4.6118    5.6626 H         1 RES1    0.0000
     45 H18        2.8631    3.4684    4.5373 H         1 RES1    0.0000
     46 H19        3.6901    2.3745    6.3907 H         1 RES1    0.0000
     47 H20        4.5799    1.6134    4.4444 H         1 RES1    0.0000
     48 H21        5.3995    0.6296    6.4204 H         1 RES1    0.0000
     49 H22        6.5425    0.5453    5.2843 H         1 RES1    0.0000
     50 H23        5.6582    2.2373    8.2563 H         1 RES1    0.0000
     51 H24        6.7548    3.3976    8.2778 H         1 RES1    0.0000
     52 H25        4.5571    4.1531    7.6412 H         1 RES1    0.0000
     53 H26        5.5883    4.5095    6.5469 H         1 RES1    0.0000
@<TRIPOS>BOND
     1    1    2 ar
     2    2    3 ar
     3    3    4 ar
     4    4    5 ar
     5    5    6 ar
     6    6    1 ar
     7    7    5 1
     8    8    9 1
     9    9   10 1
    10   10   11 1
    11   11   12 1
    12   12   13 1
    13   13   14 1
    14   14   15 1
    15   15   16 1
    16   16   17 1
    17   17   12 1
    18   18   17 1
    19   19   10 1
    20   20   19 1
    21   21   16 1
    22   22    1 1
    23   23    7 1
    24   24   22 2
    25   25   22 2
    26   26    7 2
    27   27   19 1
    28   28    2 1
    29   29    3 1
    30   30    4 1
    31   31   27 1
    32   32    6 1
    33   33    8 1
    34   34    8 1
    35   35    9 1
    36   36    9 1
    37   37   10 1
    38   38   11 1
    39   39   12 1
    40   40   13 1
    41   41   13 1
    42   42   14 1
    43   43   14 1
    44   44   15 1
    45   45   15 1
    46   46   16 1
    47   47   17 1
    48   48   18 1
    49   49   18 1
    50   50   20 1
    51   51   20 1
    52   52   21 1
    53   53   21 1
    54    8   23 1
    55   11   23 1
    56   18   19 1
    57   20   21 1
@<TRIPOS>SUBSTRUCTURE
     1 RES1 1

@<TRIPOS>CRYSIN
  11.7373   11.2429   13.9114  90.0000 104.6380  90.0000  14 1

