# MOL2 file generated by ConQuest
# Please check atom types

@<TRIPOS>MOLECULE
TAYHOR
    29    33     1
SMALL
NO_CHARGES
****
Generated from CSD

@<TRIPOS>ATOM
      1 N1         1.9172    9.4122    1.8877 N.2       1 RES1    0.0000
      2 C1         2.2643    8.0949    1.5728 C.2       1 RES1    0.0000
      3 N2         3.3885    7.7656    1.0131 N.2       1 RES1    0.0000
      4 O1         3.3212    6.3828    0.8997 O.3       1 RES1    0.0000
      5 N3         2.1228    5.8858    1.4083 N.2       1 RES1    0.0000
      6 C2         1.4792    6.9435    1.8055 C.2       1 RES1    0.0000
      7 C3         0.2325    7.1430    2.4765 C.2       1 RES1    0.0000
      8 N4        -0.6930    6.3173    2.8877 N.2       1 RES1    0.0000
      9 O2        -1.5929    7.1357    3.5598 O.3       1 RES1    0.0000
     10 N5        -1.2175    8.4687    3.5497 N.2       1 RES1    0.0000
     11 C4        -0.0921    8.4747    2.8727 C.2       1 RES1    0.0000
     12 C5         0.8087    9.5829    2.5136 C.2       1 RES1    0.0000
     13 N6         0.4727   10.9107    2.8436 N.pl3     1 RES1    0.0000
     14 N7        -0.4874   11.1743    3.7925 N.2       1 RES1    0.0000
     15 N8        -0.5133   12.4387    4.0151 N.2       1 RES1    0.0000
     16 C6         0.4526   13.0408    3.2267 C.ar      1 RES1    0.0000
     17 C7         0.8929   14.3702    3.1485 C.ar      1 RES1    0.0000
     18 N9         0.2639   15.4218    3.9750 N.pl3     1 RES1    0.0000
     19 O3         0.9962   16.3161    4.3903 O.2       1 RES1    0.0000
     20 O4        -0.9244   15.3040    4.1927 O.2       1 RES1    0.0000
     21 C8         1.9116   14.7055    2.3240 C.ar      1 RES1    0.0000
     22 H1         2.2351   15.5889    2.3270 H         1 RES1    0.0000
     23 C9         2.4754   13.6995    1.5276 C.ar      1 RES1    0.0000
     24 N10        3.5334   14.0817    0.5978 N.pl3     1 RES1    0.0000
     25 O5         3.9467   13.2283   -0.1625 O.2       1 RES1    0.0000
     26 O6         3.9501   15.2337    0.6068 O.2       1 RES1    0.0000
     27 C10        2.1082   12.3750    1.5557 C.ar      1 RES1    0.0000
     28 H2         2.6619   11.7788    0.9930 H         1 RES1    0.0000
     29 C11        1.0917   12.0805    2.4725 C.ar      1 RES1    0.0000
@<TRIPOS>BOND
     1    1    2 1
     2    2    3 2
     3    3    4 1
     4    4    5 1
     5    5    6 2
     6    6    2 1
     7    7    6 1
     8    8    7 2
     9    9    8 1
    10   10    9 1
    11   11    7 1
    12   12    1 2
    13   13   12 1
    14   14   13 1
    15   15   14 2
    16   16   15 1
    17   17   16 ar
    18   18   17 1
    19   19   18 2
    20   20   18 2
    21   21   17 ar
    22   22   21 1
    23   23   21 ar
    24   24   23 1
    25   25   24 2
    26   26   24 2
    27   27   23 ar
    28   28   27 1
    29   29   13 1
    30   10   11 2
    31   11   12 1
    32   16   29 ar
    33   27   29 ar
@<TRIPOS>SUBSTRUCTURE
     1 RES1 1

@<TRIPOS>CRYSIN
  11.2315   12.0192   10.0303  90.0000  90.0000  90.0000  33 1

