# MOL2 file generated by ConQuest
# Please check atom types

@<TRIPOS>MOLECULE
TAYNIS
    52    54     1
SMALL
NO_CHARGES
****
Generated from CSD

@<TRIPOS>ATOM
      1 N1        -3.1406    1.4984    6.3361 N.pl3     1 RES1    0.0000
      2 N2         3.9414    4.0463    9.2558 N.3       1 RES1    0.0000
      3 O1        -2.6613    1.0255    5.3155 O.2       1 RES1    0.0000
      4 O2        -4.3464    1.5930    6.5323 O.2       1 RES1    0.0000
      5 O3         3.5886    1.8120   10.6578 O.2       1 RES1    0.0000
      6 O4         1.4748    1.3152   11.2336 O.3       1 RES1    0.0000
      7 C1        -2.2350    1.9991    7.3768 C.ar      1 RES1    0.0000
      8 C2        -0.8723    1.9967    7.1429 C.ar      1 RES1    0.0000
      9 H1        -0.5273    1.6580    6.3481 H         1 RES1    0.0000
     10 C3        -0.0333    2.5111    8.1206 C.ar      1 RES1    0.0000
     11 H2         0.8859    2.5068    7.9774 H         1 RES1    0.0000
     12 C4        -0.5298    3.0308    9.3037 C.ar      1 RES1    0.0000
     13 C5        -1.9085    2.9783    9.5125 C.ar      1 RES1    0.0000
     14 H3        -2.2584    3.2950   10.3148 H         1 RES1    0.0000
     15 C6        -2.7673    2.4688    8.5569 C.ar      1 RES1    0.0000
     16 H4        -3.6840    2.4434    8.7087 H         1 RES1    0.0000
     17 C7         0.3598    3.6629   10.3829 C.3       1 RES1    0.0000
     18 H5         0.0887    3.2795   11.2429 H         1 RES1    0.0000
     19 C8         0.1170    5.1740   10.4646 C.3       1 RES1    0.0000
     20 H6        -0.8366    5.3471   10.4097 H         1 RES1    0.0000
     21 H7         0.4300    5.5019   11.3216 H         1 RES1    0.0000
     22 C9         0.8169    5.9178    9.3662 C.2       1 RES1    0.0000
     23 C10        1.9874    5.4681    8.9265 C.2       1 RES1    0.0000
     24 H8         2.4211    5.9340    8.2482 H         1 RES1    0.0000
     25 C11        2.6231    4.2615    9.4722 C.2       1 RES1    0.0000
     26 C12        1.8431    3.3746   10.2114 C.2       1 RES1    0.0000
     27 C13        2.4063    2.1478   10.6930 C.2       1 RES1    0.0000
     28 C14        1.9640    0.0718   11.7645 C.3       1 RES1    0.0000
     29 H9         2.4322   -0.4068   11.0762 H         1 RES1    0.0000
     30 H10        1.2247   -0.4546   12.0760 H         1 RES1    0.0000
     31 H11        2.5615    0.2491   12.4949 H         1 RES1    0.0000
     32 C15        0.1848    7.1853    8.8682 C.3       1 RES1    0.0000
     33 H12        0.7232    7.5583    8.1672 H         1 RES1    0.0000
     34 H13        0.1183    7.8158    9.5905 H         1 RES1    0.0000
     35 H14       -0.6937    6.9939    8.5282 H         1 RES1    0.0000
     36 C16        4.8015    4.8508    8.3794 C.3       1 RES1    0.0000
     37 H15        4.5970    5.7989    8.5213 H         1 RES1    0.0000
     38 C17        4.5896    4.5195    6.9075 C.3       1 RES1    0.0000
     39 H16        4.7522    3.5736    6.7624 H         1 RES1    0.0000
     40 H17        3.6692    4.7053    6.6652 H         1 RES1    0.0000
     41 C18        5.5198    5.3316    6.0213 C.3       1 RES1    0.0000
     42 H18        5.3892    5.0740    5.0961 H         1 RES1    0.0000
     43 H19        5.3030    6.2732    6.1051 H         1 RES1    0.0000
     44 C19        6.9700    5.1120    6.4071 C.3       1 RES1    0.0000
     45 H20        7.2176    4.1958    6.2093 H         1 RES1    0.0000
     46 H21        7.5343    5.6962    5.8760 H         1 RES1    0.0000
     47 C20        7.2127    5.3879    7.8781 C.3       1 RES1    0.0000
     48 H22        7.1018    6.3366    8.0491 H         1 RES1    0.0000
     49 H23        8.1257    5.1486    8.1024 H         1 RES1    0.0000
     50 C21        6.2504    4.5997    8.7659 C.3       1 RES1    0.0000
     51 H24        6.4439    3.6525    8.6879 H         1 RES1    0.0000
     52 H25        6.3847    4.8573    9.6923 H         1 RES1    0.0000
@<TRIPOS>BOND
     1    1    3 2
     2    2   25 1
     3    4    1 2
     4    5   27 2
     5    6   27 1
     6    7    1 1
     7    8    7 ar
     8    9    8 1
     9   10    8 ar
    10   11   10 1
    11   12   10 ar
    12   13   12 ar
    13   14   13 1
    14   15    7 ar
    15   16   15 1
    16   17   12 1
    17   18   17 1
    18   19   17 1
    19   20   19 1
    20   21   19 1
    21   22   19 1
    22   23   22 2
    23   24   23 1
    24   25   23 1
    25   26   17 1
    26   27   26 1
    27   28    6 1
    28   29   28 1
    29   30   28 1
    30   31   28 1
    31   32   22 1
    32   33   32 1
    33   34   32 1
    34   35   32 1
    35   36    2 1
    36   37   36 1
    37   38   36 1
    38   39   38 1
    39   40   38 1
    40   41   38 1
    41   42   41 1
    42   43   41 1
    43   44   41 1
    44   45   44 1
    45   46   44 1
    46   47   44 1
    47   48   47 1
    48   49   47 1
    49   50   36 1
    50   51   50 1
    51   52   50 1
    52   13   15 ar
    53   25   26 2
    54   47   50 1
@<TRIPOS>SUBSTRUCTURE
     1 RES1 1

@<TRIPOS>CRYSIN
  12.3210   14.0750   23.1430  90.0000  90.0000  90.0000  61 1

