# MOL2 file generated by ConQuest
# Please check atom types

@<TRIPOS>MOLECULE
TAYWAR
    43    46     1
SMALL
NO_CHARGES
****
Generated from CSD

@<TRIPOS>ATOM
      1 O1         4.6451    3.8043   -0.8109 O.3       1 RES1    0.0000
      2 O2         3.4009    2.6768    2.1618 O.3       1 RES1    0.0000
      3 N1         3.3681    4.2876   -1.2824 N.3       1 RES1    0.0000
      4 C1         4.5295    2.3773   -0.6026 C.3       1 RES1    0.0000
      5 C2         3.0671    2.1237   -0.2102 C.3       1 RES1    0.0000
      6 C3         2.4540    1.0093   -1.0655 C.3       1 RES1    0.0000
      7 C4         2.4240    3.5171   -0.4484 C.3       1 RES1    0.0000
      8 C5         3.2539    4.0456   -2.7500 C.3       1 RES1    0.0000
      9 C6         4.4181    4.7160   -3.4472 C.3       1 RES1    0.0000
     10 C7         1.9484    4.6339   -3.2215 C.ar      1 RES1    0.0000
     11 C8         1.5343    5.8968   -2.8165 C.ar      1 RES1    0.0000
     12 C9         0.3492    6.4483   -3.2871 C.ar      1 RES1    0.0000
     13 C10       -0.4014    5.7557   -4.2108 C.ar      1 RES1    0.0000
     14 C11        0.0088    4.5059   -4.6447 C.ar      1 RES1    0.0000
     15 C12        1.1676    3.9413   -4.1433 C.ar      1 RES1    0.0000
     16 C13        2.2166    4.2917    0.8389 C.ar      1 RES1    0.0000
     17 C14        1.5508    5.5177    0.8244 C.ar      1 RES1    0.0000
     18 C15        1.4704    6.3129    1.9487 C.ar      1 RES1    0.0000
     19 C16        2.0599    5.8903    3.1232 C.ar      1 RES1    0.0000
     20 C17        2.7051    4.6807    3.1743 C.ar      1 RES1    0.0000
     21 C18        2.7602    3.8880    2.0355 C.ar      1 RES1    0.0000
     22 C19        2.9015    1.7011    1.2371 C.3       1 RES1    0.0000
     23 H1         5.1537    2.1500    0.1736 H         1 RES1    0.0000
     24 H2         4.8151    1.9530   -1.5428 H         1 RES1    0.0000
     25 H3         2.9073    0.1231   -0.8967 H         1 RES1    0.0000
     26 H4         2.4474    1.2637   -2.0635 H         1 RES1    0.0000
     27 H5         1.6441    0.9601   -0.6943 H         1 RES1    0.0000
     28 H6         1.7096    3.3973   -0.8967 H         1 RES1    0.0000
     29 H7         3.3223    3.0198   -2.8349 H         1 RES1    0.0000
     30 H8         4.5839    5.5555   -3.2013 H         1 RES1    0.0000
     31 H9         4.4697    4.6528   -4.5608 H         1 RES1    0.0000
     32 H10        5.1768    4.2671   -3.2591 H         1 RES1    0.0000
     33 H11        2.2361    6.4089   -1.9960 H         1 RES1    0.0000
     34 H12       -0.0000    7.3526   -3.1145 H         1 RES1    0.0000
     35 H13       -1.2650    6.1791   -4.5608 H         1 RES1    0.0000
     36 H14       -0.4510    3.9143   -5.3322 H         1 RES1    0.0000
     37 H15        1.4711    3.0855   -4.4548 H         1 RES1    0.0000
     38 H16        1.2725    5.8016    0.1350 H         1 RES1    0.0000
     39 H17        0.9305    7.3444    2.0442 H         1 RES1    0.0000
     40 H18        1.9388    6.5074    3.8570 H         1 RES1    0.0000
     41 H19        3.0085    4.2999    3.8955 H         1 RES1    0.0000
     42 H20        3.3319    0.7550    1.3114 H         1 RES1    0.0000
     43 H21        1.8718    1.5017    1.5235 H         1 RES1    0.0000
@<TRIPOS>BOND
     1    1    3 1
     2    2   21 1
     3    3    7 1
     4    4    1 1
     5    5    4 1
     6    6    5 1
     7    7    5 1
     8    8    3 1
     9    9    8 1
    10   10    8 1
    11   11   10 ar
    12   12   11 ar
    13   13   12 ar
    14   14   13 ar
    15   15   10 ar
    16   16    7 1
    17   17   16 ar
    18   18   17 ar
    19   19   18 ar
    20   20   19 ar
    21   21   16 ar
    22   22    2 1
    23   23    4 1
    24   24    4 1
    25   25    6 1
    26   26    6 1
    27   27    6 1
    28   28    7 1
    29   29    8 1
    30   30    9 1
    31   31    9 1
    32   32    9 1
    33   33   11 1
    34   34   12 1
    35   35   13 1
    36   36   14 1
    37   37   15 1
    38   38   17 1
    39   39   18 1
    40   40   19 1
    41   41   20 1
    42   42   22 1
    43   43   22 1
    44    5   22 1
    45   14   15 ar
    46   20   21 ar
@<TRIPOS>SUBSTRUCTURE
     1 RES1 1

@<TRIPOS>CRYSIN
  10.1500    8.2060   10.4720  90.0000 112.9600  90.0000   4 1

