# MOL2 file generated by ConQuest
# Please check atom types

@<TRIPOS>MOLECULE
TAZBAY
    39    39     1
SMALL
NO_CHARGES
****
Generated from CSD

@<TRIPOS>ATOM
      1 N1         5.7459    2.6845   11.1938 N.am      1 RES1    0.0000
      2 H1         4.8912    2.6845   11.2867 H         1 RES1    0.0000
      3 O1         7.7031    2.6845   12.2671 O.2       1 RES1    0.0000
      4 C1         6.4980    2.6845   12.2963 C.2       1 RES1    0.0000
      5 C2         6.2834    2.6845    9.8624 C.ar      1 RES1    0.0000
      6 N2         7.4619    2.6845    5.8329 N.pl3     1 RES1    0.0000
      7 O2         7.6041    1.6236    5.2812 O.2       1 RES1    0.0000
      8 C3         6.5044    1.4580    9.2347 C.ar      1 RES1    0.0000
      9 C4         6.9071    1.4861    7.8987 C.ar      1 RES1    0.0000
     10 H2         7.0648    0.6905    7.4427 H         1 RES1    0.0000
     11 C5         7.0694    2.6845    7.2636 C.ar      1 RES1    0.0000
     12 C6         6.3237    0.1417    9.9452 C.3       1 RES1    0.0000
     13 H3         6.1504    0.3404   10.8897 H         1 RES1    0.0000
     14 C7         7.6023   -0.6851    9.8806 C.3       1 RES1    0.0000
     15 H4         8.3332   -0.1718   10.2306 H         1 RES1    0.0000
     16 H5         7.7839   -0.9213    8.9670 H         1 RES1    0.0000
     17 H6         7.4931   -1.4840   10.4018 H         1 RES1    0.0000
     18 C8         5.1260   -0.6196    9.4155 C.3       1 RES1    0.0000
     19 H7         4.3409   -0.0719    9.4897 H         1 RES1    0.0000
     20 H8         5.0058   -1.4228    9.9291 H         1 RES1    0.0000
     21 H9         5.2727   -0.8472    8.4957 H         1 RES1    0.0000
     22 C9         5.7322    2.6845   13.5913 C.3       1 RES1    0.0000
     23 H10        6.3458    2.6845   14.3308 H         1 RES1    0.0000
     24 H11        5.1801    3.4684   13.6338 H         1 RES1    0.0000
     25 O2F        7.6041    3.7454    5.2812 O.2       1 RES1    0.0000
     26 C3F        6.5044    3.9110    9.2347 C.ar      1 RES1    0.0000
     27 C4F        6.9071    3.8829    7.8987 C.ar      1 RES1    0.0000
     28 H2F        7.0648    4.6785    7.4427 H         1 RES1    0.0000
     29 C6F        6.3237    5.2273    9.9452 C.3       1 RES1    0.0000
     30 H3F        6.1504    5.0286   10.8897 H         1 RES1    0.0000
     31 C7F        7.6023    6.0541    9.8806 C.3       1 RES1    0.0000
     32 H4F        8.3332    5.5408   10.2306 H         1 RES1    0.0000
     33 H5F        7.7839    6.2903    8.9670 H         1 RES1    0.0000
     34 H6F        7.4931    6.8530   10.4018 H         1 RES1    0.0000
     35 C8F        5.1260    5.9886    9.4155 C.3       1 RES1    0.0000
     36 H7F        4.3409    5.4409    9.4897 H         1 RES1    0.0000
     37 H8F        5.0058    6.7918    9.9291 H         1 RES1    0.0000
     38 H9F        5.2727    6.2162    8.4957 H         1 RES1    0.0000
     39 H11F       5.1801    1.9006   13.6338 H         1 RES1    0.0000
@<TRIPOS>BOND
     1    1    2 1
     2    3    4 2
     3    4    1 1
     4    5    1 1
     5    6    7 2
     6    8    5 ar
     7    9    8 ar
     8   10    9 1
     9   11    6 1
    10   12    8 1
    11   13   12 1
    12   14   12 1
    13   15   14 1
    14   16   14 1
    15   17   14 1
    16   18   12 1
    17   19   18 1
    18   20   18 1
    19   21   18 1
    20   22    4 1
    21   23   22 1
    22   24   22 1
    23   25    6 2
    24   26    5 ar
    25   27   11 ar
    26   28   27 1
    27   29   26 1
    28   30   29 1
    29   31   29 1
    30   32   31 1
    31   33   31 1
    32   34   31 1
    33   35   29 1
    34   36   35 1
    35   37   35 1
    36   38   35 1
    37   39   22 1
    38    9   11 ar
    39   26   27 ar
@<TRIPOS>SUBSTRUCTURE
     1 RES1 1

@<TRIPOS>CRYSIN
   9.1715   10.7380   15.1520  90.0000  90.0000  90.0000  62 1

