# MOL2 file generated by ConQuest
# Please check atom types

@<TRIPOS>MOLECULE
TAZHEK
    37    38     1
SMALL
USER_CHARGES
****
Generated from CSD

@<TRIPOS>ATOM
      1 O1         6.7499   10.2376    2.5752 O.2       1 RES1   -1.0000
      2 O2         4.6393    7.2418    5.3863 O.2       1 RES1    0.0000
      3 N1         6.1875    9.1743    3.0159 N.pl3     1 RES1    1.0000
      4 N2         4.1954   10.3349    5.8803 N.pl3     1 RES1    0.0000
      5 N3         5.1512    7.7620    4.3359 N.3       1 RES1    0.0000
      6 N4         5.6118   11.9723    6.3895 N.2       1 RES1    0.0000
      7 C1         6.1175    8.0388    0.8348 C.3       1 RES1    0.0000
      8 H1         5.2751    8.4791    0.6982 H         1 RES1    0.0000
      9 H2         6.1032    7.1812    0.4044 H         1 RES1    0.0000
     10 H3         6.8225    8.5735    0.4597 H         1 RES1    0.0000
     11 C2         6.3588    7.8548    2.3272 C.3       1 RES1    0.0000
     12 C3         5.5328    9.0487    4.1899 C.2       1 RES1    0.0000
     13 C4         5.3363   10.1324    5.1184 C.2       1 RES1    0.0000
     14 C5         2.8842    9.6882    5.7778 C.3       1 RES1    0.0000
     15 H4         2.3499    9.9186    6.5541 H         1 RES1    0.0000
     16 H5         3.0003    8.7254    5.7695 H         1 RES1    0.0000
     17 C6         2.1609   10.1135    4.5333 C.3       1 RES1    0.0000
     18 H6         2.0673   11.0690    4.5276 H         1 RES1    0.0000
     19 H7         1.2914    9.7077    4.5138 H         1 RES1    0.0000
     20 H8         2.6610    9.8374    3.7615 H         1 RES1    0.0000
     21 C7         5.6893    5.5647    3.3277 C.3       1 RES1    0.0000
     22 H9         6.4839    5.5573    3.8663 H         1 RES1    0.0000
     23 H10        5.8611    5.1149    2.4977 H         1 RES1    0.0000
     24 H11        4.9815    5.1149    3.7949 H         1 RES1    0.0000
     25 C8         5.2810    6.9957    3.0509 C.3       1 RES1    0.0000
     26 C9         4.4265   11.4411    6.6046 C.2       1 RES1    0.0000
     27 H12        3.8081   11.7976    7.2016 H         1 RES1    0.0000
     28 C10        6.1713   11.1561    5.4589 C.2       1 RES1    0.0000
     29 H13        7.0204   11.2799    5.0979 H         1 RES1    0.0000
     30 C11        7.7860    7.4021    2.6003 C.3       1 RES1    0.0000
     31 H14        8.4002    8.0602    2.2673 H         1 RES1    0.0000
     32 H15        7.9460    6.5647    2.1601 H         1 RES1    0.0000
     33 H16        7.9129    7.2962    3.5461 H         1 RES1    0.0000
     34 C12        3.9022    7.0456    2.3848 C.3       1 RES1    0.0000
     35 H17        3.2460    6.6738    2.9792 H         1 RES1    0.0000
     36 H18        3.9217    6.5367    1.5703 H         1 RES1    0.0000
     37 H19        3.6750    7.9570    2.1878 H         1 RES1    0.0000
@<TRIPOS>BOND
     1    1    3 1
     2    2    5 1
     3    3   11 1
     4    4   13 1
     5    5   12 1
     6    6   26 2
     7    7    8 1
     8    9    7 1
     9   10    7 1
    10   11    7 1
    11   12    3 2
    12   13   12 1
    13   14    4 1
    14   15   14 1
    15   16   14 1
    16   17   14 1
    17   18   17 1
    18   19   17 1
    19   20   17 1
    20   21   22 1
    21   23   21 1
    22   24   21 1
    23   25    5 1
    24   26    4 1
    25   27   26 1
    26   28    6 1
    27   29   28 1
    28   30   11 1
    29   31   30 1
    30   32   30 1
    31   33   30 1
    32   34   25 1
    33   35   34 1
    34   36   34 1
    35   37   34 1
    36   11   25 1
    37   13   28 2
    38   21   25 1
@<TRIPOS>SUBSTRUCTURE
     1 RES1 1

@<TRIPOS>CRYSIN
   7.7145   14.7488   11.8269  90.0000 103.0670  90.0000 231 1

