# MOL2 file generated by ConQuest
# Please check atom types

@<TRIPOS>MOLECULE
TBMNBZ10
    56    56     1
SMALL
NO_CHARGES
****
Generated from CSD

@<TRIPOS>ATOM
      1 O1         6.3595    2.5340    7.4092 O.3       1 RES1    0.0000
      2 O2         6.8481    1.0103    5.7900 O.2       1 RES1    0.0000
      3 O3        10.0700    5.9763    2.3201 O.2       1 RES1    0.0000
      4 O4         9.0749    7.4681    3.5147 O.2       1 RES1    0.0000
      5 N1         9.3364    6.3019    3.2363 N.pl3     1 RES1    0.0000
      6 C1         7.5651    3.2481    5.5239 C.ar      1 RES1    0.0000
      7 C2         8.2986    2.9208    4.3943 C.ar      1 RES1    0.0000
      8 C3         8.9108    3.9361    3.6630 C.ar      1 RES1    0.0000
      9 C4         8.7617    5.2361    4.0652 C.ar      1 RES1    0.0000
     10 C5         8.0541    5.5870    5.1785 C.ar      1 RES1    0.0000
     11 C6         7.4569    4.5693    5.9282 C.ar      1 RES1    0.0000
     12 C7         6.8689    2.1276    6.2471 C.2       1 RES1    0.0000
     13 C8         5.3236    1.9578    8.3214 C.3       1 RES1    0.0000
     14 C9         3.9464    2.4760    7.6632 C.3       1 RES1    0.0000
     15 C10        5.7367    2.7454    9.6927 C.3       1 RES1    0.0000
     16 C11        5.4565    0.3648    8.4758 C.3       1 RES1    0.0000
     17 C12        3.8596    2.1512    6.1273 C.3       1 RES1    0.0000
     18 C13        2.6737    1.8681    8.3072 C.3       1 RES1    0.0000
     19 C14        3.7719    4.0054    7.6896 C.3       1 RES1    0.0000
     20 C15        4.5885    2.8751   10.7167 C.3       1 RES1    0.0000
     21 C16        6.2654    4.1907    9.4307 C.3       1 RES1    0.0000
     22 C17        6.9491    2.1365   10.4241 C.3       1 RES1    0.0000
     23 C18        4.7937   -0.4709    7.3381 C.3       1 RES1    0.0000
     24 C19        4.7381   -0.1510    9.7598 C.3       1 RES1    0.0000
     25 C20        6.9444   -0.1175    8.5449 C.3       1 RES1    0.0000
     26 H1         8.4028    1.9505    4.1241 H         1 RES1    0.0000
     27 H2         9.3939    3.6725    2.9864 H         1 RES1    0.0000
     28 H3         7.9558    6.5941    5.4040 H         1 RES1    0.0000
     29 H4         6.9409    4.7579    6.7652 H         1 RES1    0.0000
     30 H5         4.0228    1.2242    5.9119 H         1 RES1    0.0000
     31 H6         4.6133    2.6605    5.6478 H         1 RES1    0.0000
     32 H7         2.9893    2.5136    5.9323 H         1 RES1    0.0000
     33 H8         2.6703    0.8814    8.1670 H         1 RES1    0.0000
     34 H9         2.6550    2.1300    9.2844 H         1 RES1    0.0000
     35 H10        1.8591    2.2769    7.8826 H         1 RES1    0.0000
     36 H11        3.6267    4.3172    8.6140 H         1 RES1    0.0000
     37 H12        4.5389    4.4069    7.2122 H         1 RES1    0.0000
     38 H13        2.9526    4.1050    7.1918 H         1 RES1    0.0000
     39 H14        4.1609    1.9668   11.0722 H         1 RES1    0.0000
     40 H15        3.8042    3.4603   10.4424 H         1 RES1    0.0000
     41 H16        5.0584    3.1991   11.5598 H         1 RES1    0.0000
     42 H17        7.0126    4.1213    8.8577 H         1 RES1    0.0000
     43 H18        5.6779    4.7171    8.9187 H         1 RES1    0.0000
     44 H19        6.2994    4.5620   10.3611 H         1 RES1    0.0000
     45 H20        7.7419    1.9423    9.7720 H         1 RES1    0.0000
     46 H21        6.7209    1.1262   10.7471 H         1 RES1    0.0000
     47 H22        7.1389    2.6523   11.2550 H         1 RES1    0.0000
     48 H23        4.9322   -1.3384    7.5778 H         1 RES1    0.0000
     49 H24        5.2936   -0.2775    6.4605 H         1 RES1    0.0000
     50 H25        3.8664   -0.4162    7.5169 H         1 RES1    0.0000
     51 H26        4.9259   -1.0691    9.7720 H         1 RES1    0.0000
     52 H27        3.6050    0.0898    9.7516 H         1 RES1    0.0000
     53 H28        5.1884    0.2448   10.6659 H         1 RES1    0.0000
     54 H29        7.1167   -0.6855    7.8623 H         1 RES1    0.0000
     55 H30        7.5542    0.6774    8.4921 H         1 RES1    0.0000
     56 H31        7.0947   -0.5876    9.4063 H         1 RES1    0.0000
@<TRIPOS>BOND
     1    1   12 1
     2    2   12 2
     3    3    5 2
     4    4    5 2
     5    5    9 1
     6    6    7 ar
     7    7    8 ar
     8    8    9 ar
     9    9   10 ar
    10   10   11 ar
    11   11    6 ar
    12   12    6 1
    13   13    1 1
    14   14   13 1
    15   15   13 1
    16   16   13 1
    17   17   14 1
    18   18   14 1
    19   19   14 1
    20   20   15 1
    21   21   15 1
    22   22   15 1
    23   23   16 1
    24   24   16 1
    25   25   16 1
    26   26    7 1
    27   27    8 1
    28   28   10 1
    29   29   11 1
    30   30   17 1
    31   31   17 1
    32   32   17 1
    33   33   18 1
    34   34   18 1
    35   35   18 1
    36   36   19 1
    37   37   19 1
    38   38   19 1
    39   39   20 1
    40   40   20 1
    41   41   20 1
    42   42   21 1
    43   43   21 1
    44   44   21 1
    45   45   22 1
    46   46   22 1
    47   47   22 1
    48   48   23 1
    49   49   23 1
    50   50   23 1
    51   51   24 1
    52   52   24 1
    53   53   24 1
    54   54   25 1
    55   55   25 1
    56   56   25 1
@<TRIPOS>SUBSTRUCTURE
     1 RES1 1

@<TRIPOS>CRYSIN
  11.5410    8.1610   21.2890  90.0000 107.3900  90.0000  14 1

