# MOL2 file generated by ConQuest
# Please check atom types

@<TRIPOS>MOLECULE
TCAZBE
    32    33     1
SMALL
NO_CHARGES
****
Generated from CSD

@<TRIPOS>ATOM
      1 C1         3.5903   -1.7864   -1.7926 C.ar      1 RES1    0.0000
      2 C2         3.6805   -1.9696   -0.4253 C.ar      1 RES1    0.0000
      3 C3         2.7662   -1.3407    0.3990 C.ar      1 RES1    0.0000
      4 C4         1.7907   -0.5439   -0.1349 C.ar      1 RES1    0.0000
      5 C5         1.6932   -0.3717   -1.5108 C.ar      1 RES1    0.0000
      6 C6         2.5958   -0.9952   -2.3619 C.ar      1 RES1    0.0000
      7 C7         2.4640   -0.8390   -3.8378 C.2       1 RES1    0.0000
      8 H1         1.4701    0.0809   -5.1273 H         1 RES1    0.0000
      9 H2         4.4024   -2.5198   -0.0857 H         1 RES1    0.0000
     10 H3         2.7932   -1.4526    1.3661 H         1 RES1    0.0000
     11 H4         1.1653   -0.1295    0.3715 H         1 RES1    0.0000
     12 H5         0.9641    0.1774   -1.8635 H         1 RES1    0.0000
     13 N1         4.5529   -2.5273   -2.6020 N.pl3     1 RES1    0.0000
     14 O1         4.4689   -3.7876   -2.7100 O.2       1 RES1    0.0000
     15 O2         1.5814    0.0446   -4.2025 O.3       1 RES1    0.0000
     16 O3         3.1094   -1.5055   -4.6272 O.2       1 RES1    0.0000
     17 N1A        5.5470   -1.8491   -3.1141 N.pl3     1 RES1    0.0000
     18 C1A        6.5096   -2.5900   -3.9235 C.ar      1 RES1    0.0000
     19 O1A        5.6309   -0.5888   -3.0061 O.2       1 RES1    0.0000
     20 C2A        6.4194   -2.4068   -5.2908 C.ar      1 RES1    0.0000
     21 C6A        7.5041   -3.3812   -3.3542 C.ar      1 RES1    0.0000
     22 C3A        7.3336   -3.0357   -6.1151 C.ar      1 RES1    0.0000
     23 H2A        5.6975   -1.8566   -5.6304 H         1 RES1    0.0000
     24 C5A        8.4067   -4.0048   -4.2053 C.ar      1 RES1    0.0000
     25 C7A        7.6359   -3.5375   -1.8783 C.2       1 RES1    0.0000
     26 C4A        8.3091   -3.8326   -5.5812 C.ar      1 RES1    0.0000
     27 H3A        7.3067   -2.9239   -7.0823 H         1 RES1    0.0000
     28 H5A        9.1358   -4.5538   -3.8527 H         1 RES1    0.0000
     29 O2A        8.5184   -4.4210   -1.5136 O.3       1 RES1    0.0000
     30 O3A        6.9905   -2.8710   -1.0889 O.2       1 RES1    0.0000
     31 H4A        8.9346   -4.2469   -6.0877 H         1 RES1    0.0000
     32 H1A        8.6297   -4.4573   -0.5888 H         1 RES1    0.0000
@<TRIPOS>BOND
     1    1    2 ar
     2    2    3 ar
     3    3    4 ar
     4    4    5 ar
     5    5    6 ar
     6    6    1 ar
     7    7    6 1
     8    8   15 1
     9    9    2 1
    10   10    3 1
    11   11    4 1
    12   12    5 1
    13   13    1 1
    14   14   13 1
    15   15    7 1
    16   16    7 2
    17   17   13 2
    18   18   17 1
    19   19   17 1
    20   20   18 ar
    21   21   18 ar
    22   22   20 ar
    23   23   20 1
    24   24   21 ar
    25   25   21 1
    26   26   22 ar
    27   27   22 1
    28   28   24 1
    29   29   25 1
    30   30   25 2
    31   31   26 1
    32   32   29 1
    33   24   26 ar
@<TRIPOS>SUBSTRUCTURE
     1 RES1 1

@<TRIPOS>CRYSIN
   7.6230    7.4120    6.7460 115.1400 106.6600  94.2000   2 1

