# MOL2 file generated by ConQuest
# Please check atom types

@<TRIPOS>MOLECULE
TEBHAJ
    22    23     1
SMALL
NO_CHARGES
****
Generated from CSD

@<TRIPOS>ATOM
      1 O1         2.1592   -3.1173    1.6918 O.2       1 RES1    0.0000
      2 O2         1.5741   -2.0708    3.4410 O.2       1 RES1    0.0000
      3 O3         3.7612    2.2505    3.6308 O.2       1 RES1    0.0000
      4 O4         3.7035    3.5247    1.9251 O.2       1 RES1    0.0000
      5 N1         1.8872   -2.0904    2.2883 N.pl3     1 RES1    0.0000
      6 N2         3.4763    2.4793    2.4830 N.pl3     1 RES1    0.0000
      7 C1         2.0805   -0.8219    1.5866 C.ar      1 RES1    0.0000
      8 C2         2.6092    0.1864    2.3236 C.ar      1 RES1    0.0000
      9 C3         2.8514    1.4016    1.6942 C.ar      1 RES1    0.0000
     10 C4         1.9890    0.5786   -0.3804 C.ar      1 RES1    0.0000
     11 C5         2.5584    1.6213    0.3903 C.ar      1 RES1    0.0000
     12 C6         1.6814    0.7908   -1.7501 C.ar      1 RES1    0.0000
     13 C7         1.1329   -0.2104   -2.4912 C.ar      1 RES1    0.0000
     14 C8         0.8732   -1.4502   -1.9111 C.ar      1 RES1    0.0000
     15 C9         1.7433   -0.6919    0.2054 C.ar      1 RES1    0.0000
     16 C10        1.1598   -1.7026   -0.6006 C.ar      1 RES1    0.0000
     17 H1         2.8423    0.0460    3.0483 H         1 RES1    0.0000
     18 H2         2.7707    2.4500   -0.0493 H         1 RES1    0.0000
     19 H3         1.8186    1.6766   -2.1363 H         1 RES1    0.0000
     20 H4         0.8483   -0.0495   -3.3770 H         1 RES1    0.0000
     21 H5         0.5034   -2.0006   -2.4649 H         1 RES1    0.0000
     22 H6         1.0092   -2.5234   -0.3122 H         1 RES1    0.0000
@<TRIPOS>BOND
     1    1    5 2
     2    2    5 2
     3    3    6 2
     4    4    6 2
     5    5    7 1
     6    6    9 1
     7    7    8 ar
     8    8    9 ar
     9    9   11 ar
    10   10   11 ar
    11   11   18 1
    12   12   10 ar
    13   13   12 ar
    14   14   13 ar
    15   15    7 ar
    16   16   14 ar
    17   17    8 1
    18   19   12 1
    19   20   13 1
    20   21   14 1
    21   22   16 1
    22   10   15 ar
    23   15   16 ar
@<TRIPOS>SUBSTRUCTURE
     1 RES1 1

@<TRIPOS>CRYSIN
   7.5552    7.7630    9.0730 110.7420  99.5700 100.3090   2 1

