# MOL2 file generated by ConQuest
# Please check atom types

@<TRIPOS>MOLECULE
TEBMAO
    46    48     1
SMALL
USER_CHARGES
****
Generated from CSD

@<TRIPOS>ATOM
      1 N1         5.1954    2.0253    1.0304 N.pl3     1 RES1    1.0000
      2 O1        -2.0895    9.5169   -1.3471 O.3       1 RES1    0.0000
      3 C1         1.8106    5.5205   -0.6708 C.2       1 RES1    0.0000
      4 C2        -1.1229    8.6043   -1.2148 C.ar      1 RES1    0.0000
      5 C3         0.8274    6.6025   -0.8329 C.ar      1 RES1    0.0000
      6 C4         2.3974    5.1550    0.4434 C.2       1 RES1    0.0000
      7 C5         4.8048    2.8378    2.0272 C.ar      1 RES1    0.0000
      8 C6        -0.6470    7.8520   -2.2880 C.ar      1 RES1    0.0000
      9 C7         0.3047    6.8679   -2.0998 C.ar      1 RES1    0.0000
     10 C8         3.3696    4.0567    0.5906 C.ar      1 RES1    0.0000
     11 C9         4.7230    2.2325   -0.2068 C.ar      1 RES1    0.0000
     12 C10        6.1055    0.8983    1.3415 C.3       1 RES1    0.0000
     13 C11        3.9153    3.8341    1.8371 C.ar      1 RES1    0.0000
     14 C12        0.3796    7.3855    0.2292 C.ar      1 RES1    0.0000
     15 C13        3.8025    3.2482   -0.4658 C.ar      1 RES1    0.0000
     16 C14       -0.5748    8.3624    0.0447 C.ar      1 RES1    0.0000
     17 O2        -2.6871   10.5755   -3.4898 O.3       1 RES1   -1.0000
     18 C15       -1.9027   11.6249   -3.6724 C.ar      1 RES1    0.0000
     19 C16       -0.5263   11.5891   -3.6016 C.ar      1 RES1    0.0000
     20 C17       -2.5385   12.8886   -3.9444 C.ar      1 RES1    0.0000
     21 C18        0.2189   12.7620   -3.7953 C.ar      1 RES1    0.0000
     22 C19       -1.7467   14.0156   -4.1736 C.ar      1 RES1    0.0000
     23 N2        -3.8787   12.9376   -3.9910 N.3       1 RES1    0.0000
     24 N3         1.6365   12.7243   -3.6407 N.pl3     1 RES1    0.0000
     25 C20       -0.3825   13.9717   -4.0897 C.ar      1 RES1    0.0000
     26 O3         2.2844   13.7828   -3.6947 O.2       1 RES1    0.0000
     27 O4         2.2056   11.6412   -3.4525 O.2       1 RES1    0.0000
     28 H1         2.0623    5.0274   -1.4552 H         1 RES1    0.0000
     29 H2         2.1516    5.6593    1.2223 H         1 RES1    0.0000
     30 H3         5.1528    2.6816    2.9085 H         1 RES1    0.0000
     31 H4        -0.9769    8.0388   -3.1693 H         1 RES1    0.0000
     32 H5         0.6189    6.3545   -2.8488 H         1 RES1    0.0000
     33 H6         5.0406    1.6802   -0.9241 H         1 RES1    0.0000
     34 H7         6.3070    0.4134    0.5385 H         1 RES1    0.0000
     35 H8         6.9185    1.2341    1.7253 H         1 RES1    0.0000
     36 H9         5.6730    0.3144    1.9675 H         1 RES1    0.0000
     37 H10        3.6785    4.4221    2.5582 H         1 RES1    0.0000
     38 H11        0.7543    7.2375    1.1012 H         1 RES1    0.0000
     39 H12        3.4549    3.3850   -1.3490 H         1 RES1    0.0000
     40 H13       -0.8823    8.8850    0.7881 H         1 RES1    0.0000
     41 H14       -2.2725    9.8711   -2.4743 H         1 RES1    0.0000
     42 H15       -0.0851   10.7623   -3.3873 H         1 RES1    0.0000
     43 H16       -2.1724   14.8557   -4.3767 H         1 RES1    0.0000
     44 H17       -4.3529   12.1843   -3.8643 H         1 RES1    0.0000
     45 H18       -4.3055   13.7144   -4.1587 H         1 RES1    0.0000
     46 H19        0.1527   14.7495   -4.2518 H         1 RES1    0.0000
@<TRIPOS>BOND
     1    1    7 ar
     2    2    4 1
     3    3    5 1
     4    4    8 ar
     5    5    9 ar
     6    6    3 2
     7    7   13 ar
     8    8    9 ar
     9    9   32 1
    10   10    6 1
    11   11    1 ar
    12   12    1 1
    13   13   10 ar
    14   14    5 ar
    15   15   10 ar
    16   16    4 ar
    17   17   18 1
    18   18   19 ar
    19   19   21 ar
    20   20   18 ar
    21   21   24 1
    22   22   20 ar
    23   23   20 1
    24   24   26 2
    25   25   21 ar
    26   27   24 2
    27   28    3 1
    28   29    6 1
    29   30    7 1
    30   31    8 1
    31   33   11 1
    32   34   12 1
    33   35   12 1
    34   36   12 1
    35   37   13 1
    36   38   14 1
    37   39   15 1
    38   40   16 1
    39   41    2 1
    40   42   19 1
    41   43   22 1
    42   44   23 1
    43   45   23 1
    44   46   25 1
    45   11   15 ar
    46   14   16 ar
    47   17   41 1
    48   22   25 ar
@<TRIPOS>SUBSTRUCTURE
     1 RES1 1

@<TRIPOS>CRYSIN
   9.0870   10.2080   19.1400  90.0000 103.2300  90.0000  14 1

