# MOL2 file generated by ConQuest
# Please check atom types

@<TRIPOS>MOLECULE
TECDAJ
    56    58     1
SMALL
NO_CHARGES
****
Generated from CSD

@<TRIPOS>ATOM
      1 O1        11.8813    3.1209    7.1338 O.3       1 RES1    0.0000
      2 O2        10.6931    1.4670    8.1493 O.2       1 RES1    0.0000
      3 O3         9.8991    5.8826    3.8203 O.2       1 RES1    0.0000
      4 O4         8.0451    5.3216    2.8343 O.2       1 RES1    0.0000
      5 O5         5.5790    1.4851    4.4694 O.2       1 RES1    0.0000
      6 O6         6.2908    0.4313    6.2338 O.2       1 RES1    0.0000
      7 N1        17.2936    9.4215    3.8068 N.ar      1 RES1    0.0000
      8 N2         8.9454    5.1302    3.6526 N.pl3     1 RES1    0.0000
      9 N3         6.4083    1.2783    5.3492 N.pl3     1 RES1    0.0000
     10 C1        14.0403    4.0829    7.4227 C.3       1 RES1    0.0000
     11 H1        14.9011    4.0103    7.9250 H         1 RES1    0.0000
     12 C2        14.3675    3.8506    5.9402 C.3       1 RES1    0.0000
     13 H2        14.8258    2.9776    5.8476 H         1 RES1    0.0000
     14 H3        13.5210    3.8006    5.4307 H         1 RES1    0.0000
     15 C3        15.2505    4.9405    5.3267 C.3       1 RES1    0.0000
     16 H4        15.3618    4.7567    4.3609 H         1 RES1    0.0000
     17 H5        16.1467    4.9018    5.7458 H         1 RES1    0.0000
     18 C4        14.6794    6.3581    5.5015 C.3       1 RES1    0.0000
     19 C5        14.4419    6.5646    7.0097 C.3       1 RES1    0.0000
     20 H6        15.3144    6.5436    7.4770 H         1 RES1    0.0000
     21 H7        14.0461    7.4610    7.1523 H         1 RES1    0.0000
     22 C6        13.5216    5.5124    7.6303 C.3       1 RES1    0.0000
     23 H8        12.6207    5.5915    7.2278 H         1 RES1    0.0000
     24 H9        13.4370    5.6879    8.6007 H         1 RES1    0.0000
     25 C7        13.0887    3.0058    8.0011 C.3       1 RES1    0.0000
     26 C8        12.6952    3.3127    9.4447 C.3       1 RES1    0.0000
     27 H10       12.1261    4.1097    9.4657 H         1 RES1    0.0000
     28 H11       13.5023    3.4736    9.9761 H         1 RES1    0.0000
     29 H12       12.2043    2.5513    9.8191 H         1 RES1    0.0000
     30 C9        13.6625    1.5977    7.8466 C.3       1 RES1    0.0000
     31 H13       13.0991    0.9601    8.3336 H         1 RES1    0.0000
     32 H14       14.5716    1.5743    8.2102 H         1 RES1    0.0000
     33 H15       13.6838    1.3566    6.8971 H         1 RES1    0.0000
     34 C10       10.8286    2.3181    7.3017 C.2       1 RES1    0.0000
     35 C11        9.7708    2.6163    6.2795 C.ar      1 RES1    0.0000
     36 C12        8.6195    1.8254    6.2699 C.ar      1 RES1    0.0000
     37 H16        8.5228    1.1042    6.8803 H         1 RES1    0.0000
     38 C13        7.6242    2.1124    5.3548 C.ar      1 RES1    0.0000
     39 C14        7.7057    3.1639    4.4530 C.ar      1 RES1    0.0000
     40 H17        7.0142    3.3414    3.8265 H         1 RES1    0.0000
     41 C15        8.8488    3.9390    4.5173 C.ar      1 RES1    0.0000
     42 C16        9.8905    3.6824    5.3931 C.ar      1 RES1    0.0000
     43 H18       10.6722    4.2230    5.3888 H         1 RES1    0.0000
     44 C17       15.6417    7.4130    4.9552 C.ar      1 RES1    0.0000
     45 C18       15.5216    8.7611    5.3043 C.ar      1 RES1    0.0000
     46 H19       14.8711    9.0323    5.9399 H         1 RES1    0.0000
     47 C19       16.3563    9.6998    4.7194 C.ar      1 RES1    0.0000
     48 H20       16.2552   10.6056    4.9862 H         1 RES1    0.0000
     49 C20       17.3934    8.1385    3.4713 C.ar      1 RES1    0.0000
     50 H21       18.0409    7.9023    2.8178 H         1 RES1    0.0000
     51 C21       16.6188    7.1194    4.0086 C.ar      1 RES1    0.0000
     52 H22       16.7562    6.2216    3.7295 H         1 RES1    0.0000
     53 C22       13.3703    6.5221    4.6979 C.3       1 RES1    0.0000
     54 H23       13.0231    7.4302    4.8221 H         1 RES1    0.0000
     55 H24       12.7094    5.8728    5.0150 H         1 RES1    0.0000
     56 H25       13.5501    6.3677    3.7463 H         1 RES1    0.0000
@<TRIPOS>BOND
     1    1   25 1
     2    2   34 2
     3    3    8 2
     4    4    8 2
     5    5    9 2
     6    6    9 2
     7    7   47 ar
     8    8   41 1
     9    9   38 1
    10   10   11 1
    11   12   10 1
    12   13   12 1
    13   14   12 1
    14   15   12 1
    15   16   15 1
    16   17   15 1
    17   18   15 1
    18   19   18 1
    19   20   19 1
    20   21   19 1
    21   22   10 1
    22   23   22 1
    23   24   22 1
    24   25   10 1
    25   26   25 1
    26   27   26 1
    27   28   26 1
    28   29   26 1
    29   30   25 1
    30   31   30 1
    31   32   30 1
    32   33   30 1
    33   34    1 1
    34   35   34 1
    35   36   35 ar
    36   37   36 1
    37   38   36 ar
    38   39   38 ar
    39   40   39 1
    40   41   39 ar
    41   42   35 ar
    42   43   42 1
    43   44   18 1
    44   45   44 ar
    45   46   45 1
    46   47   45 ar
    47   48   47 1
    48   49    7 ar
    49   50   49 1
    50   51   44 ar
    51   52   51 1
    52   53   18 1
    53   54   53 1
    54   55   53 1
    55   56   53 1
    56   19   22 1
    57   41   42 ar
    58   49   51 ar
@<TRIPOS>SUBSTRUCTURE
     1 RES1 1

@<TRIPOS>CRYSIN
  17.4243    9.9387   11.9804  90.0000  90.0390  90.0000  14 1

