# MOL2 file generated by ConQuest
# Please check atom types

@<TRIPOS>MOLECULE
TECLUI
    38    41     1
SMALL
NO_CHARGES
****
Generated from CSD

@<TRIPOS>ATOM
      1 C1         4.3655   -0.1790   -1.7042 C.ar      1 RES1    0.0000
      2 C2         5.6303    0.3540   -1.8699 C.ar      1 RES1    0.0000
      3 C3         5.8561    1.7059   -1.6724 C.ar      1 RES1    0.0000
      4 C4         4.8221    2.5638   -1.3059 C.ar      1 RES1    0.0000
      5 C5         3.5606    2.0256   -1.1394 C.ar      1 RES1    0.0000
      6 C6         2.2496    2.7247   -0.8015 C.3       1 RES1    0.0000
      7 N1         1.3518    1.5443   -0.8072 N.am      1 RES1    0.0000
      8 O1        -0.0172    1.7223   -0.7819 O.3       1 RES1    0.0000
      9 C7         1.9157    0.3718   -1.1476 C.2       1 RES1    0.0000
     10 O2         1.3323   -0.7076   -1.2667 O.2       1 RES1    0.0000
     11 C8         3.3427    0.6730   -1.3394 C.ar      1 RES1    0.0000
     12 C9         1.8839    3.6918   -1.9466 C.ar      1 RES1    0.0000
     13 C10        1.5675    3.1740   -3.1994 C.ar      1 RES1    0.0000
     14 C11        1.2954    4.0115   -4.2646 C.ar      1 RES1    0.0000
     15 C12        1.3337    5.3776   -4.1046 C.ar      1 RES1    0.0000
     16 C13        1.6512    5.9062   -2.8722 C.ar      1 RES1    0.0000
     17 C14        1.9325    5.0648   -1.7997 C.ar      1 RES1    0.0000
     18 C15        2.1962    3.3710    0.5877 C.ar      1 RES1    0.0000
     19 C16        3.2619    3.3372    1.4708 C.ar      1 RES1    0.0000
     20 C17        3.1649    3.9264    2.7236 C.ar      1 RES1    0.0000
     21 C18        2.0072    4.5653    3.0966 C.ar      1 RES1    0.0000
     22 C19        0.9370    4.6011    2.2388 C.ar      1 RES1    0.0000
     23 C20        1.0229    3.9988    0.9941 C.ar      1 RES1    0.0000
     24 H1         4.1687   -1.1383   -1.8038 H         1 RES1    0.0000
     25 H2         6.3635   -0.2201   -2.1302 H         1 RES1    0.0000
     26 H3         6.7579    2.0587   -1.7793 H         1 RES1    0.0000
     27 H4         4.9904    3.5463   -1.1590 H         1 RES1    0.0000
     28 H5        -0.3117    1.3285    0.0653 H         1 RES1    0.0000
     29 H6         1.4772    2.1930   -3.3219 H         1 RES1    0.0000
     30 H7         1.0588    3.5922   -5.1338 H         1 RES1    0.0000
     31 H8         1.1407    5.9570   -4.7992 H         1 RES1    0.0000
     32 H9         1.6942    6.9239   -2.7097 H         1 RES1    0.0000
     33 H10        2.1445    5.4391   -0.9549 H         1 RES1    0.0000
     34 H11        4.0725    2.9249    1.2080 H         1 RES1    0.0000
     35 H12        3.9135    3.9122    3.3137 H         1 RES1    0.0000
     36 H13        1.9434    5.0257    3.9830 H         1 RES1    0.0000
     37 H14        0.1052    5.0489    2.5220 H         1 RES1    0.0000
     38 H15        0.2577    4.0128    0.3265 H         1 RES1    0.0000
@<TRIPOS>BOND
     1    1    2 ar
     2    2    3 ar
     3    3    4 ar
     4    4    5 ar
     5    5    6 1
     6    6    7 1
     7    7    8 1
     8    8   28 1
     9    9    7 1
    10   10    9 2
    11   11    1 ar
    12   12    6 1
    13   13   12 ar
    14   14   13 ar
    15   15   14 ar
    16   16   15 ar
    17   17   12 ar
    18   18    6 1
    19   19   18 ar
    20   20   19 ar
    21   21   20 ar
    22   22   21 ar
    23   23   18 ar
    24   24    1 1
    25   25    2 1
    26   26    3 1
    27   27    4 1
    28   29   13 1
    29   30   14 1
    30   31   15 1
    31   32   16 1
    32   33   17 1
    33   34   19 1
    34   35   20 1
    35   36   21 1
    36   37   22 1
    37   38   23 1
    38    5   11 ar
    39    9   11 1
    40   16   17 ar
    41   22   23 ar
@<TRIPOS>SUBSTRUCTURE
     1 RES1 1

@<TRIPOS>CRYSIN
   9.5840    9.7040    9.2540 117.6400  92.4700  94.9000   2 1

