# MOL2 file generated by ConQuest
# Please check atom types

@<TRIPOS>MOLECULE
TECSEB
    25    25     1
SMALL
USER_CHARGES
****
Generated from CSD

@<TRIPOS>ATOM
      1 O1         1.5705    1.9545    6.8400 O.2       1 RES1   -1.0000
      2 N1         1.5352    0.8917    6.0904 N.pl3     1 RES1    1.0000
      3 C1         1.3368   -0.3377    6.7080 C.ar      1 RES1    0.0000
      4 C2         1.2497   -1.4978    5.9072 C.ar      1 RES1    0.0000
      5 C3         1.4363   -1.3322    4.5482 C.ar      1 RES1    0.0000
      6 C4         1.6378   -0.1323    3.9695 C.ar      1 RES1    0.0000
      7 H1         1.7410   -0.0684    3.0473 H         1 RES1    0.0000
      8 C5         1.6910    0.9944    4.7488 C.ar      1 RES1    0.0000
      9 H2         1.8332    1.8267    4.3577 H         1 RES1    0.0000
     10 N2         1.2325   -0.2084    8.0284 N.3       1 RES1    0.0000
     11 H3         1.0702    0.5869    8.3123 H         1 RES1    0.0000
     12 C6         1.3528   -1.2050    9.0312 C.3       1 RES1    0.0000
     13 H4         2.2391   -1.5929    8.9669 H         1 RES1    0.0000
     14 H5         0.7145   -1.9088    8.8362 H         1 RES1    0.0000
     15 C7         1.1500   -0.7822   10.3848 C.3       1 RES1    0.0000
     16 H6         1.9748   -0.4439   10.7415 H         1 RES1    0.0000
     17 H7         0.8551   -1.5270   10.9121 H         1 RES1    0.0000
     18 H8         0.4848   -0.0908   10.4081 H         1 RES1    0.0000
     19 N3         1.3715   -2.4792    3.6399 N.pl3     1 RES1    0.0000
     20 O2         1.5463   -3.5947    4.0314 O.2       1 RES1    0.0000
     21 O3         1.1464   -2.2756    2.4990 O.2       1 RES1    0.0000
     22 C8         0.7972   -2.8389    6.5721 C.3       1 RES1    0.0000
     23 H9         1.5683   -3.3139    6.8900 H         1 RES1    0.0000
     24 H10        0.3346   -3.3761    5.9251 H         1 RES1    0.0000
     25 H11        0.2119   -2.6487    7.3087 H         1 RES1    0.0000
@<TRIPOS>BOND
     1    1    2 1
     2    2    3 ar
     3    3    4 ar
     4    4    5 ar
     5    5    6 ar
     6    6    7 1
     7    8    2 ar
     8    9    8 1
     9   10    3 1
    10   11   10 1
    11   12   10 1
    12   13   12 1
    13   14   12 1
    14   15   12 1
    15   16   15 1
    16   17   15 1
    17   18   15 1
    18   19    5 1
    19   20   19 2
    20   21   19 2
    21   22    4 1
    22   23   22 1
    23   24   22 1
    24   25   22 1
    25    6    8 ar
@<TRIPOS>SUBSTRUCTURE
     1 RES1 1

@<TRIPOS>CRYSIN
   6.8340   12.4350   11.0870  90.0000  92.4200  90.0000 231 1

