# MOL2 file generated by ConQuest
# Please check atom types

@<TRIPOS>MOLECULE
TECSUQ
    41    43     1
SMALL
NO_CHARGES
****
Generated from CSD

@<TRIPOS>ATOM
      1 O1        -1.6975   -2.4434   10.4052 O.2       1 RES1    0.0000
      2 O2        -0.6984   -3.2140   12.1237 O.2       1 RES1    0.0000
      3 O3         2.0981    0.0886   17.5451 O.2       1 RES1    0.0000
      4 N1         1.0337    1.9605   15.2248 N.2       1 RES1    0.0000
      5 N2         2.4861    3.5103   18.0775 N.3       1 RES1    0.0000
      6 N3         2.7432    2.1698   18.4124 N.am      1 RES1    0.0000
      7 N4        -1.1093   -2.2890   11.4400 N.pl3     1 RES1    0.0000
      8 C1        -0.4961    1.6007   12.8821 C.ar      1 RES1    0.0000
      9 H1        -0.3830    2.4654   13.2054 H         1 RES1    0.0000
     10 C2        -1.2510    1.4040   11.7448 C.ar      1 RES1    0.0000
     11 H2        -1.6272    2.1322   11.3053 H         1 RES1    0.0000
     12 C3        -1.4512    0.1207   11.2562 C.ar      1 RES1    0.0000
     13 H3        -1.9661   -0.0306   10.4970 H         1 RES1    0.0000
     14 C4        -0.8631   -0.9203   11.9346 C.ar      1 RES1    0.0000
     15 C5        -0.0906   -0.7502   13.0651 C.ar      1 RES1    0.0000
     16 H4         0.2934   -1.4839   13.4889 H         1 RES1    0.0000
     17 C6         0.1061    0.5378   13.5650 C.ar      1 RES1    0.0000
     18 C7         0.8707    0.7643   14.7864 C.2       1 RES1    0.0000
     19 H5         1.2401    0.0447   15.2459 H         1 RES1    0.0000
     20 C8         1.6981    2.2239   16.4129 C.2       1 RES1    0.0000
     21 C9         2.1691    1.3201   17.4362 C.2       1 RES1    0.0000
     22 C10        1.9305    3.5095   16.8390 C.2       1 RES1    0.0000
     23 C11        3.4156    4.5302   18.5732 C.3       1 RES1    0.0000
     24 H6         4.3053    4.3224   18.2799 H         1 RES1    0.0000
     25 H7         3.3908    4.5474   19.5317 H         1 RES1    0.0000
     26 H8         3.1585    5.3901   18.2322 H         1 RES1    0.0000
     27 C12        1.6515    4.7857   16.0896 C.3       1 RES1    0.0000
     28 H9         1.4180    5.4779   16.7110 H         1 RES1    0.0000
     29 H10        0.9244    4.6462   15.4788 H         1 RES1    0.0000
     30 H11        2.4346    5.0467   15.5995 H         1 RES1    0.0000
     31 C13        2.9660    1.7865   19.7694 C.ar      1 RES1    0.0000
     32 C14        3.8032    0.7126   20.0234 C.ar      1 RES1    0.0000
     33 H12        4.2215    0.2673   19.3212 H         1 RES1    0.0000
     34 C15        4.0110    0.3112   21.3237 C.ar      1 RES1    0.0000
     35 H13        4.5429   -0.4319   21.4964 H         1 RES1    0.0000
     36 C16        3.4311    1.0097   22.3855 C.ar      1 RES1    0.0000
     37 H14        3.5916    0.7478   23.2646 H         1 RES1    0.0000
     38 C17        2.6173    2.0907   22.1203 C.ar      1 RES1    0.0000
     39 H15        2.2355    2.5634   22.8239 H         1 RES1    0.0000
     40 C18        2.3659    2.4756   20.8278 C.ar      1 RES1    0.0000
     41 H16        1.7977    3.1920   20.6572 H         1 RES1    0.0000
@<TRIPOS>BOND
     1    1    7 2
     2    2    7 2
     3    3   21 2
     4    4   18 2
     5    5    6 1
     6    6   21 1
     7    7   14 1
     8    8    9 1
     9   10    8 ar
    10   11   10 1
    11   12   10 ar
    12   13   12 1
    13   14   12 ar
    14   15   14 ar
    15   16   15 1
    16   17    8 ar
    17   18   17 1
    18   19   18 1
    19   20    4 1
    20   21   20 1
    21   22    5 1
    22   23    5 1
    23   24   23 1
    24   25   23 1
    25   26   23 1
    26   27   22 1
    27   28   27 1
    28   29   27 1
    29   30   27 1
    30   31    6 1
    31   32   31 ar
    32   33   32 1
    33   34   32 ar
    34   35   34 1
    35   36   34 ar
    36   37   36 1
    37   38   36 ar
    38   39   38 1
    39   40   31 ar
    40   41   40 1
    41   15   17 ar
    42   20   22 2
    43   38   40 ar
@<TRIPOS>SUBSTRUCTURE
     1 RES1 1

@<TRIPOS>CRYSIN
   7.6450    7.8390   28.2400  90.0000  96.3490  90.0000  14 1

