# MOL2 file generated by ConQuest
# Please check atom types

@<TRIPOS>MOLECULE
TECVOM
    52    54     1
SMALL
NO_CHARGES
****
Generated from CSD

@<TRIPOS>ATOM
      1 C1        -1.4617    2.7948    5.2049 C.3       1 RES1    0.0000
      2 H1        -2.1784    3.1334    4.6633 H         1 RES1    0.0000
      3 H2        -1.7143    2.8871    6.1265 H         1 RES1    0.0000
      4 C2        -0.1762    3.6396    4.9441 C.3       1 RES1    0.0000
      5 H3        -0.3166    4.5562    5.1927 H         1 RES1    0.0000
      6 H4         0.0348    3.6118    4.0080 H         1 RES1    0.0000
      7 C3         0.9847    3.0792    5.7079 C.ar      1 RES1    0.0000
      8 C4         1.1048    3.3667    7.0577 C.ar      1 RES1    0.0000
      9 H5         0.6298    4.1194    7.4174 H         1 RES1    0.0000
     10 C5         1.8939    2.6073    7.9143 C.ar      1 RES1    0.0000
     11 C6         2.4433    1.4477    7.3842 C.ar      1 RES1    0.0000
     12 H6         2.9172    0.8612    7.9785 H         1 RES1    0.0000
     13 C7         2.3274    1.0951    6.0501 C.ar      1 RES1    0.0000
     14 C8         1.7303    2.0121    5.1821 C.ar      1 RES1    0.0000
     15 C9         2.5496   -0.3573    5.6919 C.3       1 RES1    0.0000
     16 H7         3.3137   -0.6923    6.1669 H         1 RES1    0.0000
     17 H8         2.7175   -0.4356    4.7499 H         1 RES1    0.0000
     18 C10        1.2818   -1.1715    6.0529 C.3       1 RES1    0.0000
     19 H9         1.1305   -1.0983    6.9980 H         1 RES1    0.0000
     20 H10        1.4100   -2.0990    5.8415 H         1 RES1    0.0000
     21 C11        0.0715   -0.6518    5.3235 C.ar      1 RES1    0.0000
     22 C12       -0.3585   -1.2016    4.1354 C.ar      1 RES1    0.0000
     23 H11       -0.0455   -2.0655    3.8572 H         1 RES1    0.0000
     24 C13       -1.2358   -0.4900    3.3548 C.ar      1 RES1    0.0000
     25 C14       -1.6504    0.7933    3.6626 C.ar      1 RES1    0.0000
     26 H12       -2.2062    1.2857    3.0542 H         1 RES1    0.0000
     27 C15       -1.2604    1.3450    4.8754 C.ar      1 RES1    0.0000
     28 C16       -0.4904    0.5589    5.7264 C.ar      1 RES1    0.0000
     29 H13       -0.3370    0.8605    6.6247 H         1 RES1    0.0000
     30 C17        1.8558    1.9468    3.6913 C.2       1 RES1    0.0000
     31 O1         2.2103    2.8832    3.0465 O.2       1 RES1    0.0000
     32 O2         1.6059    0.7818    3.1470 O.3       1 RES1    0.0000
     33 C18        1.6521    0.7351    1.6942 C.3       1 RES1    0.0000
     34 H14        1.4472   -0.1544    1.3970 H         1 RES1    0.0000
     35 H15        1.0042    1.3483    1.3394 H         1 RES1    0.0000
     36 H16        2.5276    0.9815    1.3870 H         1 RES1    0.0000
     37 C19        2.0544    2.9418    9.3981 C.3       1 RES1    0.0000
     38 C20        3.5081    2.7130    9.8356 C.3       1 RES1    0.0000
     39 H17        3.6085    2.9215   10.7673 H         1 RES1    0.0000
     40 H18        3.7420    1.7939    9.6863 H         1 RES1    0.0000
     41 H19        4.0854    3.2783    9.3171 H         1 RES1    0.0000
     42 C21        1.7620    4.3771    9.6919 C.3       1 RES1    0.0000
     43 H20        1.8827    4.5635   10.6260 H         1 RES1    0.0000
     44 H21        2.3638    4.9196    9.1771 H         1 RES1    0.0000
     45 H22        0.8572    4.5757    9.4402 H         1 RES1    0.0000
     46 C22        1.1610    2.0430   10.1821 C.3       1 RES1    0.0000
     47 H23        1.2424    2.2044   11.1250 H         1 RES1    0.0000
     48 H24        0.2401    2.1244    9.9216 H         1 RES1    0.0000
     49 H25        1.4736    1.1578    9.9809 H         1 RES1    0.0000
     50 N1        -1.6740   -1.0696    2.0947 N.pl3     1 RES1    0.0000
     51 O3        -2.2869   -0.3816    1.3183 O.2       1 RES1    0.0000
     52 O4        -1.4040   -2.2103    1.8461 O.2       1 RES1    0.0000
@<TRIPOS>BOND
     1    1    2 1
     2    3    1 1
     3    4    1 1
     4    5    4 1
     5    6    4 1
     6    7    4 1
     7    8    7 ar
     8    9    8 1
     9   10    8 ar
    10   11   10 ar
    11   12   11 1
    12   13   11 ar
    13   14    7 ar
    14   15   13 1
    15   16   15 1
    16   17   15 1
    17   18   15 1
    18   19   18 1
    19   20   18 1
    20   21   18 1
    21   22   21 ar
    22   23   22 1
    23   24   22 ar
    24   25   24 ar
    25   26   25 1
    26   27    1 1
    27   28   21 ar
    28   29   28 1
    29   30   14 1
    30   31   30 2
    31   32   30 1
    32   33   32 1
    33   34   33 1
    34   35   33 1
    35   36   33 1
    36   37   10 1
    37   38   37 1
    38   39   38 1
    39   40   38 1
    40   41   38 1
    41   42   37 1
    42   43   42 1
    43   44   42 1
    44   45   42 1
    45   46   37 1
    46   47   46 1
    47   48   46 1
    48   49   46 1
    49   50   24 1
    50   51   50 2
    51   52   50 2
    52   13   14 ar
    53   25   27 ar
    54   27   28 ar
@<TRIPOS>SUBSTRUCTURE
     1 RES1 1

@<TRIPOS>CRYSIN
   6.8960   14.9080   18.8730  90.0000  90.2500  90.0000 231 1

