# MOL2 file generated by ConQuest
# Please check atom types

@<TRIPOS>MOLECULE
TECXAD
    76    80     1
SMALL
USER_CHARGES
****
Generated from CSD

@<TRIPOS>ATOM
      1 C1         3.3155    6.0983    6.7619 C.ar      1 RES1    0.0000
      2 H1         3.3247    6.8825    7.2985 H         1 RES1    0.0000
      3 C2         2.4833    6.0388    5.6409 C.ar      1 RES1    0.0000
      4 C3         2.5229    4.8877    4.8732 C.ar      1 RES1    0.0000
      5 H2         1.9812    4.8302    4.0948 H         1 RES1    0.0000
      6 C4         1.5996    7.1789    5.2804 C.ar      1 RES1    0.0000
      7 C5         1.9045    8.4956    5.6325 C.ar      1 RES1    0.0000
      8 H3         2.6975    8.6691    6.1260 H         1 RES1    0.0000
      9 C6         1.0850    9.5524    5.2840 C.ar      1 RES1    0.0000
     10 H4         1.3400   10.4437    5.4924 H         1 RES1    0.0000
     11 C7        -0.1338    9.2966    4.6145 C.ar      1 RES1    0.0000
     12 C8        -0.4653    7.9899    4.2912 C.ar      1 RES1    0.0000
     13 H5        -1.2847    7.8085    3.8456 H         1 RES1    0.0000
     14 C9         0.3831    6.9529    4.6109 C.ar      1 RES1    0.0000
     15 H6         0.1410    6.0646    4.3738 H         1 RES1    0.0000
     16 C10       -0.9838   10.4041    4.2277 C.2       1 RES1    0.0000
     17 N1        -0.5827   11.6562    3.9079 N.pl3     1 RES1    1.0000
     18 C11       -1.7466   12.5803    3.6624 C.3       1 RES1    0.0000
     19 C12       -2.8665   11.5591    3.3510 C.3       1 RES1    0.0000
     20 N2        -2.3499   10.3416    4.0636 N.3       1 RES1    0.0000
     21 O1         0.6228   12.1014    3.9175 O.2       1 RES1   -1.0000
     22 C13       -1.9622   13.3407    4.9810 C.3       1 RES1    0.0000
     23 H7        -1.1561   13.8542    5.1978 H         1 RES1    0.0000
     24 H8        -2.1435   12.7002    5.7008 H         1 RES1    0.0000
     25 H9        -2.7236   13.9504    4.8864 H         1 RES1    0.0000
     26 C14       -1.4228   13.5320    2.5426 C.3       1 RES1    0.0000
     27 H10       -1.1592   13.0234    1.7474 H         1 RES1    0.0000
     28 H11       -0.6877   14.1190    2.8157 H         1 RES1    0.0000
     29 H12       -2.2138   14.0733    2.3366 H         1 RES1    0.0000
     30 C15       -4.2353   11.9071    3.8636 C.3       1 RES1    0.0000
     31 H13       -4.5390   12.7379    3.4432 H         1 RES1    0.0000
     32 H14       -4.1990   12.0260    4.8361 H         1 RES1    0.0000
     33 H15       -4.8597   11.1833    3.6468 H         1 RES1    0.0000
     34 C16       -2.9394   11.1804    1.8755 C.3       1 RES1    0.0000
     35 H16       -3.3388   11.9180    1.3677 H         1 RES1    0.0000
     36 H17       -3.4881   10.3763    1.7701 H         1 RES1    0.0000
     37 H18       -2.0350   11.0049    1.5378 H         1 RES1    0.0000
     38 O2        -3.1021    9.3363    4.3582 O.2       1 RES1    0.0000
     39 C1B        3.3373    3.8160    5.2146 C.ar      1 RES1    0.0000
     40 H1B        3.3281    3.0318    4.6780 H         1 RES1    0.0000
     41 C2B        4.1694    3.8755    6.3356 C.ar      1 RES1    0.0000
     42 C3B        4.1299    5.0266    7.1032 C.ar      1 RES1    0.0000
     43 H2B        4.6716    5.0841    7.8817 H         1 RES1    0.0000
     44 C4B        5.0531    2.7354    6.6960 C.ar      1 RES1    0.0000
     45 C5B        4.7482    1.4187    6.3439 C.ar      1 RES1    0.0000
     46 H3B        3.9552    1.2452    5.8505 H         1 RES1    0.0000
     47 C6B        5.5678    0.3619    6.6924 C.ar      1 RES1    0.0000
     48 H4B        5.3128   -0.5294    6.4841 H         1 RES1    0.0000
     49 C7B        6.7865    0.6177    7.3619 C.ar      1 RES1    0.0000
     50 C8B        7.1181    1.9244    7.6853 C.ar      1 RES1    0.0000
     51 H5B        7.9374    2.1058    8.1308 H         1 RES1    0.0000
     52 C9B        6.2696    2.9614    7.3655 C.ar      1 RES1    0.0000
     53 H6B        6.5118    3.8497    7.6027 H         1 RES1    0.0000
     54 C10B       7.6366   -0.4898    7.7488 C.2       1 RES1    0.0000
     55 N1B        7.2354   -1.7419    8.0685 N.pl3     1 RES1    1.0000
     56 C11B       8.3993   -2.6660    8.3141 C.3       1 RES1    0.0000
     57 C12B       9.5193   -1.6448    8.6255 C.3       1 RES1    0.0000
     58 N2B        9.0026   -0.4273    7.9129 N.3       1 RES1    0.0000
     59 O1B        6.0300   -2.1871    8.0590 O.2       1 RES1   -1.0000
     60 C13B       8.6150   -3.4264    6.9955 C.3       1 RES1    0.0000
     61 H7B        7.8088   -3.9399    6.7787 H         1 RES1    0.0000
     62 H8B        8.7962   -2.7859    6.2757 H         1 RES1    0.0000
     63 H9B        9.3764   -4.0361    7.0901 H         1 RES1    0.0000
     64 C14B       8.0756   -3.6177    9.4339 C.3       1 RES1    0.0000
     65 H10B       7.8120   -3.1091   10.2291 H         1 RES1    0.0000
     66 H11B       7.3405   -4.2047    9.1608 H         1 RES1    0.0000
     67 H12B       8.8666   -4.1590    9.6399 H         1 RES1    0.0000
     68 C15B      10.8880   -1.9928    8.1129 C.3       1 RES1    0.0000
     69 H13B      11.1917   -2.8236    8.5332 H         1 RES1    0.0000
     70 H14B      10.8518   -2.1117    7.1404 H         1 RES1    0.0000
     71 H15B      11.5124   -1.2690    8.3296 H         1 RES1    0.0000
     72 C16B       9.5921   -1.2661   10.1010 C.3       1 RES1    0.0000
     73 H16B       9.9916   -2.0037   10.6088 H         1 RES1    0.0000
     74 H17B      10.1409   -0.4620   10.2063 H         1 RES1    0.0000
     75 H18B       8.6878   -1.0906   10.4387 H         1 RES1    0.0000
     76 O2B        9.7549    0.5780    7.6182 O.2       1 RES1    0.0000
@<TRIPOS>BOND
     1    1    2 1
     2    3    1 ar
     3    4    3 ar
     4    5    4 1
     5    6    3 1
     6    7    6 ar
     7    8    7 1
     8    9    7 ar
     9   10    9 1
    10   11    9 ar
    11   12   11 ar
    12   13   12 1
    13   14    6 ar
    14   15   14 1
    15   16   11 1
    16   17   16 2
    17   18   17 1
    18   19   18 1
    19   20   16 1
    20   21   17 1
    21   22   18 1
    22   23   22 1
    23   24   22 1
    24   25   22 1
    25   26   18 1
    26   27   26 1
    27   28   26 1
    28   29   26 1
    29   30   19 1
    30   31   30 1
    31   32   30 1
    32   33   30 1
    33   34   19 1
    34   35   34 1
    35   36   34 1
    36   37   34 1
    37   38   20 1
    38   39    4 ar
    39   40   39 1
    40   41   39 ar
    41   42    1 ar
    42   43   42 1
    43   44   41 1
    44   45   44 ar
    45   46   45 1
    46   47   45 ar
    47   48   47 1
    48   49   47 ar
    49   50   49 ar
    50   51   50 1
    51   52   44 ar
    52   53   52 1
    53   54   49 1
    54   55   54 2
    55   56   55 1
    56   57   56 1
    57   58   54 1
    58   59   55 1
    59   60   56 1
    60   61   60 1
    61   62   60 1
    62   63   60 1
    63   64   56 1
    64   65   64 1
    65   66   64 1
    66   67   64 1
    67   68   57 1
    68   69   68 1
    69   70   68 1
    70   71   68 1
    71   72   57 1
    72   73   72 1
    73   74   72 1
    74   75   72 1
    75   76   58 1
    76   12   14 ar
    77   19   20 1
    78   41   42 ar
    79   50   52 ar
    80   57   58 1
@<TRIPOS>SUBSTRUCTURE
     1 RES1 1

@<TRIPOS>CRYSIN
  11.5064    9.9143   12.9226  90.0000 112.0610  90.0000 231 1

