# MOL2 file generated by ConQuest
# Please check atom types

@<TRIPOS>MOLECULE
TEDXUV
    19    20     1
SMALL
NO_CHARGES
****
Generated from CSD

@<TRIPOS>ATOM
      1 O1         5.4605   -0.1160    2.2419 O.2       1 RES1    0.0000
      2 O2         5.1026   -0.3707    0.1291 O.2       1 RES1    0.0000
      3 N1         3.0806    3.2509    0.2553 N.ar      1 RES1    0.0000
      4 N2         5.1068    0.3052    1.1519 N.pl3     1 RES1    0.0000
      5 C1         3.4559    1.9987    0.4302 C.ar      1 RES1    0.0000
      6 C2         4.6854    1.7124    1.0228 C.ar      1 RES1    0.0000
      7 C3         5.5217    2.6897    1.5195 C.ar      1 RES1    0.0000
      8 C4         5.0992    3.9860    1.3018 C.ar      1 RES1    0.0000
      9 C5         3.9013    4.2496    0.6405 C.ar      1 RES1    0.0000
     10 C6         2.4889    0.9268    0.0184 C.3       1 RES1    0.0000
     11 C7         6.8715    2.4186    2.1689 C.3       1 RES1    0.0000
     12 C8         3.5192    5.6228    0.3690 C.2       1 RES1    0.0000
     13 C9         2.4384    6.0251   -0.3195 C.2       1 RES1    0.0000
     14 C10        2.0963    7.4033   -0.6324 C.ar      1 RES1    0.0000
     15 C11        2.9908    8.4462   -0.5188 C.ar      1 RES1    0.0000
     16 C12        2.6083    9.7526   -0.7682 C.ar      1 RES1    0.0000
     17 C13        1.3149   10.0262   -1.2080 C.ar      1 RES1    0.0000
     18 C14        0.4272    8.9935   -1.3792 C.ar      1 RES1    0.0000
     19 C15        0.8108    7.6871   -1.0996 C.ar      1 RES1    0.0000
@<TRIPOS>BOND
     1    1    4 2
     2    2    4 2
     3    3    5 ar
     4    4    6 1
     5    5    6 ar
     6    6    7 ar
     7    7    8 ar
     8    8    9 ar
     9    9    3 ar
    10   10    5 1
    11   11    7 1
    12   12    9 1
    13   13   12 2
    14   14   13 1
    15   15   14 ar
    16   16   15 ar
    17   17   16 ar
    18   18   17 ar
    19   19   14 ar
    20   18   19 ar
@<TRIPOS>SUBSTRUCTURE
     1 RES1 1

@<TRIPOS>CRYSIN
  13.6520   12.6100    7.4530  90.0000  98.0500  90.0000  14 1

