# MOL2 file generated by ConQuest
# Please check atom types

@<TRIPOS>MOLECULE
TEHJEY
    72    64     2
SMALL
NO_CHARGES
****
Generated from CSD

@<TRIPOS>ATOM
      1 N1         5.4437    4.4395    3.1708 N.2       1 RES1    0.0000
      2 N2         6.0961   -1.6846    6.8423 N.pl3     1 RES1    0.0000
      3 O1         5.0912   -1.7240    7.5287 O.2       1 RES1    0.0000
      4 O2         6.9888   -2.4977    6.9234 O.2       1 RES1    0.0000
      5 O3         2.8662    0.4705    2.6245 O.3       1 RES1    0.0000
      6 O4         4.6294    1.2228    1.5013 O.2       1 RES1    0.0000
      7 C1         3.6341    2.5867    3.2264 C.3       1 RES1    0.0000
      8 C2         2.2271    3.1922    3.3799 C.3       1 RES1    0.0000
      9 H1         1.6910    3.1574    2.5718 H         1 RES1    0.0000
     10 H2         1.7323    2.8567    4.1430 H         1 RES1    0.0000
     11 C3         2.9097    4.5462    3.6203 C.3       1 RES1    0.0000
     12 H3         2.4394    5.3249    3.2553 H         1 RES1    0.0000
     13 C4         3.3032    4.6483    5.0944 C.3       1 RES1    0.0000
     14 H4         2.5747    4.2516    5.6157 H         1 RES1    0.0000
     15 C5         4.5433    3.7116    5.2517 C.3       1 RES1    0.0000
     16 H5         4.8116    3.6356    6.1906 H         1 RES1    0.0000
     17 C6         5.6449    4.2931    4.4212 C.2       1 RES1    0.0000
     18 C7         6.9303    4.7101    5.0481 C.3       1 RES1    0.0000
     19 H6         7.5490    4.9741    4.3646 H         1 RES1    0.0000
     20 H7         7.2969    3.9759    5.5462 H         1 RES1    0.0000
     21 H8         6.7720    5.4502    5.6404 H         1 RES1    0.0000
     22 C8         4.1108    4.0112    2.7495 C.3       1 RES1    0.0000
     23 C9         3.5456    6.0316    5.6534 C.ar      1 RES1    0.0000
     24 C10        3.1279    6.3149    6.9437 C.ar      1 RES1    0.0000
     25 H9         2.6941    5.6569    7.4389 H         1 RES1    0.0000
     26 C11        3.3416    7.5426    7.5012 C.ar      1 RES1    0.0000
     27 H10        3.0423    7.7117    8.3643 H         1 RES1    0.0000
     28 C12        3.9887    8.5324    6.8104 C.ar      1 RES1    0.0000
     29 H11        4.1508    9.3572    7.2058 H         1 RES1    0.0000
     30 C13        4.3956    8.2805    5.5187 C.ar      1 RES1    0.0000
     31 H12        4.8220    8.9479    5.0307 H         1 RES1    0.0000
     32 C14        4.1726    7.0351    4.9380 C.ar      1 RES1    0.0000
     33 H13        4.4472    6.8785    4.0634 H         1 RES1    0.0000
     34 C15        4.1827    2.3185    4.6549 C.3       1 RES1    0.0000
     35 H14        3.4358    1.9692    5.1842 H         1 RES1    0.0000
     36 C16        5.3172    1.3187    4.7812 C.ar      1 RES1    0.0000
     37 C17        5.2167    0.3097    5.7178 C.ar      1 RES1    0.0000
     38 H15        4.4586    0.2443    6.2529 H         1 RES1    0.0000
     39 C18        6.2392   -0.6008    5.8605 C.ar      1 RES1    0.0000
     40 C19        7.3852   -0.5427    5.1162 C.ar      1 RES1    0.0000
     41 H16        8.0675   -1.1631    5.2363 H         1 RES1    0.0000
     42 C20        7.4960    0.4623    4.1879 C.ar      1 RES1    0.0000
     43 H17        8.2669    0.5304    3.6709 H         1 RES1    0.0000
     44 C21        6.4765    1.3722    4.0127 C.ar      1 RES1    0.0000
     45 H18        6.5655    2.0360    3.3683 H         1 RES1    0.0000
     46 C22        3.9456    4.2913    1.2671 C.3       1 RES1    0.0000
     47 H19        4.0700    5.2289    1.1035 H         1 RES1    0.0000
     48 H20        3.0641    4.0323    0.9891 H         1 RES1    0.0000
     49 H21        4.5980    3.7901    0.7718 H         1 RES1    0.0000
     50 C23        3.7927    1.3830    2.3358 C.2       1 RES1    0.0000
     51 C24        3.0882   -0.7705    1.8710 C.3       1 RES1    0.0000
     52 H22        4.0182   -0.8583    1.6219 H         1 RES1    0.0000
     53 H23        2.5451   -0.7789    1.0644 H         1 RES1    0.0000
     54 C25        2.6820   -1.8710    2.7789 C.3       1 RES1    0.0000
     55 H24        2.7323   -2.7147    2.3039 H         1 RES1    0.0000
     56 C26        3.2494   -2.8817    4.7483 C.3       1 RES1    0.0000
     57 H25        3.0114   -3.6940    4.2965 H         1 RES1    0.0000
     58 H26        2.5359   -2.6186    5.3334 H         1 RES1    0.0000
     59 H27        4.0490   -3.0216    5.2610 H         1 RES1    0.0000
     60 O5         2.4403   -2.0193    4.0576 O.3       1 RES1    0.0000
     61 O6         3.4628   -1.9211    3.8505 Du        2 SUP2    0.0000
     62 H28        1.7624   -1.7374    3.0569 Du        2 SUP2    0.0000
     63 C27        2.8045   -0.8875    2.0534 Du        2 SUP2    0.0000
     64 H29        3.2545   -0.8979    1.1961 Du        2 SUP2    0.0000
     65 H30        1.8759   -1.1339    1.9086 Du        2 SUP2    0.0000
     66 C28        3.4505   -1.8877    2.9759 Du        2 SUP2    0.0000
     67 H31        3.5989   -2.7355    2.5284 Du        2 SUP2    0.0000
     68 C29        2.7859   -2.9110    5.1118 Du        2 SUP2    0.0000
     69 H32        3.2747   -3.6564    4.7527 Du        2 SUP2    0.0000
     70 H33        1.9864   -3.2284    5.5376 Du        2 SUP2    0.0000
     71 H34        3.3309   -2.4515    5.7548 Du        2 SUP2    0.0000
     72 H35        4.2942   -1.5578    3.3205 Du        2 SUP2    0.0000
@<TRIPOS>BOND
     1    1   17 2
     2    2    3 2
     3    4    2 2
     4    5   50 1
     5    6   50 2
     6    7    8 1
     7    8    9 1
     8   10    8 1
     9   11    8 1
    10   12   11 1
    11   13   11 1
    12   14   13 1
    13   15   13 1
    14   16   15 1
    15   17   15 1
    16   18   17 1
    17   19   18 1
    18   20   18 1
    19   21   18 1
    20   22    1 1
    21   23   13 1
    22   24   23 ar
    23   25   24 1
    24   26   24 ar
    25   27   26 1
    26   28   26 ar
    27   29   28 1
    28   30   28 ar
    29   31   30 1
    30   32   23 ar
    31   33   32 1
    32   34    7 1
    33   35   34 1
    34   36   34 1
    35   37   36 ar
    36   38   37 1
    37   39    2 1
    38   40   39 ar
    39   41   40 1
    40   42   40 ar
    41   43   42 1
    42   44   36 ar
    43   45   44 1
    44   46   22 1
    45   47   46 1
    46   48   46 1
    47   49   46 1
    48   50    7 1
    49   51    5 1
    50   52   51 1
    51   53   51 1
    52   54   51 1
    53   55   54 1
    54   56   57 1
    55   58   56 1
    56   59   56 1
    57   60   54 1
    58    7   22 1
    59   11   22 1
    60   15   34 1
    61   30   32 ar
    62   37   39 ar
    63   42   44 ar
    64   56   60 1
@<TRIPOS>SUBSTRUCTURE
     1 RES1 1
     2 SUP2 61

@<TRIPOS>CRYSIN
   7.7500   20.8820   14.5149  90.0000  93.9140  90.0000 231 1

