# MOL2 file generated by ConQuest
# Please check atom types

@<TRIPOS>MOLECULE
TEHLOH
    51    53     1
SMALL
NO_CHARGES
****
Generated from CSD

@<TRIPOS>ATOM
      1 O1         1.1195    0.6257    4.6258 O.3       1 RES1    0.0000
      2 O2        -0.7771    3.2445    3.0060 O.2       1 RES1    0.0000
      3 O3        -2.8670    3.5694    2.7130 O.2       1 RES1    0.0000
      4 O4        -4.9845    3.0392   -1.4578 O.2       1 RES1    0.0000
      5 O5        -3.9045    2.2029   -3.1418 O.2       1 RES1    0.0000
      6 N1         1.8081    1.6082    0.5431 N.2       1 RES1    0.0000
      7 N2         0.6542    2.0956    1.1386 N.3       1 RES1    0.0000
      8 N3        -1.7866    3.2157    2.3010 N.pl3     1 RES1    0.0000
      9 N4        -3.9840    2.5604   -1.9651 N.pl3     1 RES1    0.0000
     10 C1         0.0595    0.9569    5.5095 C.3       1 RES1    0.0000
     11 C2        -1.2565    0.5628    4.9187 C.ar      1 RES1    0.0000
     12 C3        -2.4270    0.9724    5.5333 C.ar      1 RES1    0.0000
     13 C4        -3.6588    0.5838    5.0116 C.ar      1 RES1    0.0000
     14 C5        -3.7258   -0.1920    3.9112 C.ar      1 RES1    0.0000
     15 C6        -2.5920   -0.5838    3.3038 C.ar      1 RES1    0.0000
     16 C7        -1.3654   -0.1951    3.7897 C.ar      1 RES1    0.0000
     17 C8         3.0241    0.4625    6.1502 C.3       1 RES1    0.0000
     18 C9         2.3815    1.1939    4.9973 C.3       1 RES1    0.0000
     19 C10        3.2264    1.1481    3.7730 C.3       1 RES1    0.0000
     20 C11        4.2064    2.2207    3.4491 C.3       1 RES1    0.0000
     21 C12        2.9273    2.1197    2.6559 C.3       1 RES1    0.0000
     22 C13        2.8606    1.6292    1.2767 C.2       1 RES1    0.0000
     23 C14        4.0924    1.0540    0.6241 C.3       1 RES1    0.0000
     24 C15       -0.4823    2.2106    0.4168 C.ar      1 RES1    0.0000
     25 C16       -1.6885    2.7322    0.9385 C.ar      1 RES1    0.0000
     26 C17       -2.8154    2.8387    0.1596 C.ar      1 RES1    0.0000
     27 C18       -2.7869    2.4462   -1.1338 C.ar      1 RES1    0.0000
     28 C19       -1.6299    1.9192   -1.6864 C.ar      1 RES1    0.0000
     29 C20       -0.5050    1.8111   -0.9337 C.ar      1 RES1    0.0000
     30 H1         0.5716    2.2930    1.9532 H         1 RES1    0.0000
     31 H2         0.2294    0.5441    6.3598 H         1 RES1    0.0000
     32 H3         0.0615    1.9277    5.6452 H         1 RES1    0.0000
     33 H4        -2.3331    1.3836    6.3836 H         1 RES1    0.0000
     34 H5        -4.3231    0.8550    5.5023 H         1 RES1    0.0000
     35 H6        -4.5554   -0.4508    3.5253 H         1 RES1    0.0000
     36 H7        -2.5979   -1.0260    2.4772 H         1 RES1    0.0000
     37 H8        -0.5646   -0.4353    3.3586 H         1 RES1    0.0000
     38 H9         3.1913   -0.4975    5.9311 H         1 RES1    0.0000
     39 H10        3.8454    0.9328    6.4075 H         1 RES1    0.0000
     40 H11        2.4824    0.4742    6.8839 H         1 RES1    0.0000
     41 H12        2.2534    2.1143    5.2165 H         1 RES1    0.0000
     42 H13        3.4683    0.3109    3.4538 H         1 RES1    0.0000
     43 H14        4.9987    1.9821    3.0251 H         1 RES1    0.0000
     44 H15        4.2155    2.9537    4.0493 H         1 RES1    0.0000
     45 H16        2.3168    2.7516    2.8822 H         1 RES1    0.0000
     46 H17        4.5326    0.3498    1.2624 H         1 RES1    0.0000
     47 H18        4.7598    1.6945    0.5955 H         1 RES1    0.0000
     48 H19        3.9258    0.6840   -0.1667 H         1 RES1    0.0000
     49 H20       -3.5986    3.1792    0.5717 H         1 RES1    0.0000
     50 H21       -1.5977    1.6712   -2.5725 H         1 RES1    0.0000
     51 H22        0.2717    1.4846   -1.2624 H         1 RES1    0.0000
@<TRIPOS>BOND
     1    1   10 1
     2    2    8 2
     3    3    8 2
     4    4    9 2
     5    5    9 2
     6    6    7 1
     7    7   24 1
     8    8   25 1
     9    9   27 1
    10   10   11 1
    11   11   12 ar
    12   12   13 ar
    13   13   14 ar
    14   14   15 ar
    15   15   16 ar
    16   16   11 ar
    17   17   18 1
    18   18    1 1
    19   19   18 1
    20   20   19 1
    21   21   19 1
    22   22    6 2
    23   23   22 1
    24   24   25 ar
    25   25   26 ar
    26   26   27 ar
    27   27   28 ar
    28   28   29 ar
    29   29   24 ar
    30   30    7 1
    31   31   10 1
    32   32   10 1
    33   33   12 1
    34   34   13 1
    35   35   14 1
    36   36   15 1
    37   37   16 1
    38   38   17 1
    39   39   17 1
    40   40   17 1
    41   41   18 1
    42   42   19 1
    43   43   20 1
    44   44   20 1
    45   45   21 1
    46   46   23 1
    47   47   23 1
    48   48   23 1
    49   49   26 1
    50   50   28 1
    51   51   29 1
    52   20   21 1
    53   21   22 1
@<TRIPOS>SUBSTRUCTURE
     1 RES1 1

@<TRIPOS>CRYSIN
  10.8450    7.7730   24.0180  90.0000  97.3700  90.0000  14 1

