# MOL2 file generated by ConQuest
# Please check atom types

@<TRIPOS>MOLECULE
TEHXOT
    68    62     2
SMALL
NO_CHARGES
****
Generated from CSD

@<TRIPOS>ATOM
      1 N1        -6.3063   11.1068    9.0835 N.pl3     1 RES1    0.0000
      2 H1        -6.0518   12.0037    9.1473 H         1 RES1    0.0000
      3 C1        -6.7842   10.7994    7.8295 C.2       1 RES1    0.0000
      4 C2        -6.9958   12.0021    6.9458 C.3       1 RES1    0.0000
      5 H2        -7.3260   11.7313    6.0861 H         1 RES1    0.0000
      6 H3        -7.6315   12.5861    7.3642 H         1 RES1    0.0000
      7 H4        -6.1604   12.4624    6.8376 H         1 RES1    0.0000
      8 H5        -6.3546   11.9381    6.0585 Du        2 SUP2    0.0000
      9 H6        -7.9365   12.0068    6.5743 Du        2 SUP2    0.0000
     10 H7        -6.9577   12.7323    7.5458 Du        2 SUP2    0.0000
     11 C3        -7.0111    9.5066    7.5025 C.2       1 RES1    0.0000
     12 C4        -7.4042    9.1282    6.1607 C.2       1 RES1    0.0000
     13 C5        -8.3330    7.4106    4.8237 C.3       1 RES1    0.0000
     14 H8        -7.5722    7.3234    4.2454 H         1 RES1    0.0000
     15 H9        -8.9390    8.0461    4.4366 H         1 RES1    0.0000
     16 O1        -7.3149    9.7967    5.1700 O.2       1 RES1    0.0000
     17 O2        -7.8918    7.8851    6.1102 O.3       1 RES1    0.0000
     18 C6        -6.8797    8.4146    8.5641 C.3       1 RES1    0.0000
     19 H10       -6.5092    7.6388    8.1373 H         1 RES1    0.0000
     20 C7        -5.9015    8.8626    9.6570 C.2       1 RES1    0.0000
     21 C8        -5.1890    7.8415   10.4073 C.2       1 RES1    0.0000
     22 C9        -4.9912    5.5112   10.8257 C.3       1 RES1    0.0000
     23 H11       -5.1860    5.5435   11.7647 H         1 RES1    0.0000
     24 H12       -4.0401    5.5624   10.7043 H         1 RES1    0.0000
     25 O3        -4.2831    8.0244   11.1924 O.2       1 RES1    0.0000
     26 O4        -5.6317    6.6156   10.1452 O.3       1 RES1    0.0000
     27 C10       -5.7025   10.1708    9.8963 C.2       1 RES1    0.0000
     28 C11       -4.8624   10.7688   10.9652 C.3       1 RES1    0.0000
     29 H13       -4.4786   10.0651   11.4942 H         1 RES1    0.0000
     30 H14       -4.1606   11.2930   10.5732 H         1 RES1    0.0000
     31 H15       -5.4058   11.3291   11.5242 H         1 RES1    0.0000
     32 C12       -8.2225    8.0203    9.1521 C.ar      1 RES1    0.0000
     33 C13       -8.5834    6.6994    9.2314 C.ar      1 RES1    0.0000
     34 H16       -7.9893    6.0192    8.9068 H         1 RES1    0.0000
     35 C14       -9.8005    6.3447    9.7941 C.ar      1 RES1    0.0000
     36 C15      -10.6830    7.2700   10.2847 C.ar      1 RES1    0.0000
     37 H17      -11.5208    7.0021   10.6706 H         1 RES1    0.0000
     38 C16      -10.3143    8.6009   10.2089 C.ar      1 RES1    0.0000
     39 H18      -10.8912    9.2848   10.5576 H         1 RES1    0.0000
     40 C17       -9.1116    8.9617    9.6450 C.ar      1 RES1    0.0000
     41 H19       -8.8706    9.8888    9.5813 H         1 RES1    0.0000
     42 C18       -8.9913    6.1134    4.9524 C.3       1 RES1    0.0000
     43 H20       -9.2615    5.8672    4.0650 H         1 RES1    0.0000
     44 C19      -10.2303    6.1465    5.7639 C.3       1 RES1    0.0000
     45 H21      -10.6107    5.2674    5.8276 H         1 RES1    0.0000
     46 H22      -10.0179    6.4680    6.6440 H         1 RES1    0.0000
     47 H23      -10.8620    6.7398    5.3503 H         1 RES1    0.0000
     48 C20       -8.1007    5.1203    5.3936 C.3       1 RES1    0.0000
     49 H24       -8.5722    4.2890    5.4778 H         1 RES1    0.0000
     50 H25       -7.3842    5.0194    4.7612 H         1 RES1    0.0000
     51 H26       -7.7402    5.3721    6.2473 H         1 RES1    0.0000
     52 C21       -5.4855    4.2437   10.2354 C.3       1 RES1    0.0000
     53 H27       -6.4337    4.2162   10.3832 H         1 RES1    0.0000
     54 C22       -4.8671    3.0643   10.9916 C.3       1 RES1    0.0000
     55 H28       -4.9286    3.2966   12.0737 H         1 RES1    0.0000
     56 H29       -5.1145    2.3702   10.8233 H         1 RES1    0.0000
     57 H30       -3.8024    3.2128   10.9856 H         1 RES1    0.0000
     58 C23       -4.9805    4.2471    8.8250 C.3       1 RES1    0.0000
     59 H31       -5.3486    4.9728    8.3177 H         1 RES1    0.0000
     60 H32       -4.0246    4.2519    8.7481 H         1 RES1    0.0000
     61 H33       -5.3254    3.4150    8.4932 H         1 RES1    0.0000
     62 C24       -5.5945    4.0272    8.7649 Du        2 SUP2    0.0000
     63 H34       -6.0032    4.8198    8.4114 Du        2 SUP2    0.0000
     64 H35       -4.7067    3.9386    8.4367 Du        2 SUP2    0.0000
     65 H36       -6.1182    3.2606    8.5148 Du        2 SUP2    0.0000
     66 N2       -10.1601    4.9343    9.8554 N.pl3     1 RES1    0.0000
     67 O5       -11.1805    4.6060   10.4145 O.2       1 RES1    0.0000
     68 O6        -9.4107    4.1183    9.3468 O.2       1 RES1    0.0000
@<TRIPOS>BOND
     1    1    2 1
     2    3    1 1
     3    4    3 1
     4    5    4 1
     5    6    4 1
     6    7    4 1
     7   11    3 2
     8   12   11 1
     9   13   14 1
    10   15   13 1
    11   16   12 2
    12   17   12 1
    13   18   11 1
    14   19   18 1
    15   20   18 1
    16   21   20 1
    17   22   23 1
    18   24   22 1
    19   25   21 2
    20   26   21 1
    21   27    1 1
    22   28   27 1
    23   29   28 1
    24   30   28 1
    25   31   28 1
    26   32   18 1
    27   33   32 ar
    28   34   33 1
    29   35   33 ar
    30   36   35 ar
    31   37   36 1
    32   38   36 ar
    33   39   38 1
    34   40   32 ar
    35   41   40 1
    36   42   13 1
    37   43   42 1
    38   44   42 1
    39   45   44 1
    40   46   44 1
    41   47   44 1
    42   48   42 1
    43   49   48 1
    44   50   48 1
    45   51   48 1
    46   52   22 1
    47   53   52 1
    48   54   52 1
    49   55   54 1
    50   56   54 1
    51   57   54 1
    52   58   52 1
    53   59   58 1
    54   60   58 1
    55   61   58 1
    56   66   35 1
    57   67   66 2
    58   68   66 2
    59   13   17 1
    60   20   27 2
    61   22   26 1
    62   38   40 ar
@<TRIPOS>SUBSTRUCTURE
     1 RES1 1
     2 SUP2 8

@<TRIPOS>CRYSIN
   9.7150   10.9320   12.5010  99.2900  97.2700 116.3500   2 1

