# MOL2 file generated by ConQuest
# Please check atom types

@<TRIPOS>MOLECULE
TEHXUZ
    67    62     2
SMALL
NO_CHARGES
****
Generated from CSD

@<TRIPOS>ATOM
      1 N1         1.0099    4.6880    3.3815 N.pl3     1 RES1    0.0000
      2 H1         1.8073    4.7082    4.0813 H         1 RES1    0.0000
      3 C1         0.1998    5.8071    3.3048 C.2       1 RES1    0.0000
      4 C2         0.3459    6.7397    4.4802 C.3       1 RES1    0.0000
      5 H2        -0.2327    7.4992    4.3795 H         1 RES1    0.0000
      6 H3         0.1183    6.2675    5.2844 H         1 RES1    0.0000
      7 H4         1.2569    7.0354    4.5305 H         1 RES1    0.0000
      8 H5        -0.7124    6.6473    5.0490 Du        2 SUP2    0.0000
      9 H6         0.6232    7.8168    4.5482 Du        2 SUP2    0.0000
     10 H7         1.0543    6.1163    5.0163 Du        2 SUP2    0.0000
     11 C3        -0.5590    6.0088    2.2275 C.2       1 RES1    0.0000
     12 C4        -1.3608    7.2387    2.0878 C.2       1 RES1    0.0000
     13 C5        -2.4993    8.6367    0.4191 C.3       1 RES1    0.0000
     14 O1        -1.7223    7.9478    3.0065 O.2       1 RES1    0.0000
     15 O2        -1.6721    7.4841    0.8117 O.3       1 RES1    0.0000
     16 C6        -0.6728    4.9485    1.1352 C.3       1 RES1    0.0000
     17 H8        -0.6681    5.4425    0.0541 H         1 RES1    0.0000
     18 C7         0.4919    3.9806    1.1805 C.2       1 RES1    0.0000
     19 C8         0.6930    3.2564   -0.0768 C.2       1 RES1    0.0000
     20 C9         2.2006    1.7442   -1.3176 C.3       1 RES1    0.0000
     21 O3        -0.0429    3.4043   -1.0294 O.2       1 RES1    0.0000
     22 O4         1.7713    2.4516   -0.1007 O.3       1 RES1    0.0000
     23 C10        1.2432    3.8496    2.3030 C.2       1 RES1    0.0000
     24 C11        2.3644    2.8649    2.5698 C.3       1 RES1    0.0000
     25 H9         2.4832    2.2970    1.8047 H         1 RES1    0.0000
     26 H10        3.1754    3.3539    2.7334 H         1 RES1    0.0000
     27 H11        2.1534    2.3289    3.3375 H         1 RES1    0.0000
     28 H12        3.0394    3.0951    1.7455 Du        2 SUP2    0.0000
     29 H13        1.9095    1.8870    2.2476 Du        2 SUP2    0.0000
     30 H14        2.6557    3.0565    3.5074 Du        2 SUP2    0.0000
     31 C12       -2.0275    4.2394    1.2333 C.ar      1 RES1    0.0000
     32 C13       -3.0955    4.6880    0.4807 C.ar      1 RES1    0.0000
     33 H15       -2.9808    5.3954   -0.1561 H         1 RES1    0.0000
     34 C14       -4.3379    4.1268    0.6594 C.ar      1 RES1    0.0000
     35 C15       -4.5684    3.1102    1.5517 C.ar      1 RES1    0.0000
     36 H16       -5.4497    2.7456    1.6687 H         1 RES1    0.0000
     37 C16       -3.5007    2.6347    2.2590 C.ar      1 RES1    0.0000
     38 H17       -3.6208    1.8870    2.8492 H         1 RES1    0.0000
     39 C17       -2.2546    3.2077    2.1407 C.ar      1 RES1    0.0000
     40 H18       -1.5271    2.9086    2.6919 H         1 RES1    0.0000
     41 C18       -2.5263    8.5359   -1.0823 C.3       1 RES1    0.0000
     42 H19       -2.9590    7.7126   -1.3214 H         1 RES1    0.0000
     43 H20       -3.0012    9.2736   -1.4724 H         1 RES1    0.0000
     44 H21       -1.6228    8.5292   -1.4082 H         1 RES1    0.0000
     45 C19       -3.8889    8.4670    0.9766 C.3       1 RES1    0.0000
     46 H22       -4.2577    7.6454    0.6443 H         1 RES1    0.0000
     47 H23       -3.8356    8.4301    1.9343 H         1 RES1    0.0000
     48 H24       -4.4531    9.1996    0.7161 H         1 RES1    0.0000
     49 C20       -1.8575    9.9323    0.8621 C.3       1 RES1    0.0000
     50 H25       -0.9864   10.0011    0.4656 H         1 RES1    0.0000
     51 H26       -2.3900   10.6867    0.6003 H         1 RES1    0.0000
     52 H27       -1.7736    9.9171    1.8185 H         1 RES1    0.0000
     53 C21        2.4474    2.7187   -2.4364 C.3       1 RES1    0.0000
     54 H28        1.6162    3.1069   -2.7196 H         1 RES1    0.0000
     55 H29        3.0289    3.4110   -2.1130 H         1 RES1    0.0000
     56 H30        2.8622    2.2734   -3.1789 H         1 RES1    0.0000
     57 C22        1.1904    0.7158   -1.7002 C.3       1 RES1    0.0000
     58 H31        0.3868    1.1560   -1.9859 H         1 RES1    0.0000
     59 H32        1.5298    0.1748   -2.4163 H         1 RES1    0.0000
     60 H33        0.9981    0.1613   -0.9413 H         1 RES1    0.0000
     61 C23        3.4923    1.0956   -0.8721 C.3       1 RES1    0.0000
     62 H34        3.3116    0.4654   -0.1699 H         1 RES1    0.0000
     63 H35        3.9103    0.6436   -1.6083 H         1 RES1    0.0000
     64 H36        4.0771    1.7811   -0.5424 H         1 RES1    0.0000
     65 N2        -5.4591    4.6712   -0.0843 N.pl3     1 RES1    0.0000
     66 O5        -6.5888    4.3553    0.2353 O.2       1 RES1    0.0000
     67 O6        -5.2373    5.4660   -0.9804 O.2       1 RES1    0.0000
@<TRIPOS>BOND
     1    1    2 1
     2    3    1 1
     3    4    3 1
     4    5    4 1
     5    6    4 1
     6    7    4 1
     7   11    3 2
     8   12   11 1
     9   13   15 1
    10   14   12 2
    11   15   12 1
    12   16   11 1
    13   17   16 1
    14   18   16 1
    15   19   18 1
    16   20   22 1
    17   21   19 2
    18   22   19 1
    19   23    1 1
    20   24   23 1
    21   25   24 1
    22   26   24 1
    23   27   24 1
    24   31   16 1
    25   32   31 ar
    26   33   32 1
    27   34   32 ar
    28   35   34 ar
    29   36   35 1
    30   37   35 ar
    31   38   37 1
    32   39   31 ar
    33   40   39 1
    34   41   13 1
    35   42   41 1
    36   43   41 1
    37   44   41 1
    38   45   13 1
    39   46   45 1
    40   47   45 1
    41   48   45 1
    42   49   13 1
    43   50   49 1
    44   51   49 1
    45   52   49 1
    46   53   20 1
    47   54   53 1
    48   55   53 1
    49   56   53 1
    50   57   20 1
    51   58   57 1
    52   59   57 1
    53   60   57 1
    54   61   20 1
    55   62   61 1
    56   63   61 1
    57   64   61 1
    58   65   34 1
    59   66   65 2
    60   67   65 2
    61   18   23 2
    62   37   39 ar
@<TRIPOS>SUBSTRUCTURE
     1 RES1 1
     2 SUP2 8

@<TRIPOS>CRYSIN
  11.1420   16.8030   13.3840  90.0000 109.9000  90.0000 231 1

