# MOL2 file generated by ConQuest
# Please check atom types

@<TRIPOS>MOLECULE
TEJSUX
    32    33     1
SMALL
NO_CHARGES
****
Generated from CSD

@<TRIPOS>ATOM
      1 O1         4.4230    2.4451   -0.0559 O.2       1 RES1    0.0000
      2 O2         3.7854    0.7480    1.0589 O.2       1 RES1    0.0000
      3 O3         4.6549    4.1158    5.0511 O.3       1 RES1    0.0000
      4 O4         3.2898    3.2569    2.8677 O.3       1 RES1    0.0000
      5 O5         7.4943    1.7025    0.0231 O.3       1 RES1    0.0000
      6 N1         4.4352    1.7635    0.9272 N.pl3     1 RES1    0.0000
      7 N2         8.3971    0.2653    1.6267 N.3       1 RES1    0.0000
      8 H1         8.1677   -0.3989    2.2557 H         1 RES1    0.0000
      9 C1         5.2640    2.1765    2.0814 C.ar      1 RES1    0.0000
     10 C2         6.5855    1.7630    2.1929 C.ar      1 RES1    0.0000
     11 C3         7.2779    2.1524    3.3343 C.ar      1 RES1    0.0000
     12 C4         6.6533    2.9314    4.3198 C.ar      1 RES1    0.0000
     13 H2         7.1264    3.1714    5.0840 H         1 RES1    0.0000
     14 C5         5.3376    3.3483    4.1682 C.ar      1 RES1    0.0000
     15 C6         4.6141    2.9575    3.0231 C.ar      1 RES1    0.0000
     16 C7         7.2365    0.9034    1.1280 C.3       1 RES1    0.0000
     17 H3         6.5976    0.2101    0.8618 H         1 RES1    0.0000
     18 C8         9.2940    1.1914    2.2668 C.3       1 RES1    0.0000
     19 H4         9.4794    1.9293    1.6658 H         1 RES1    0.0000
     20 H5        10.1336    0.7455    2.4619 H         1 RES1    0.0000
     21 C9         8.7060    1.7176    3.5329 C.3       1 RES1    0.0000
     22 H6         9.2316    2.4717    3.8425 H         1 RES1    0.0000
     23 H7         8.7405    1.0282    4.2144 H         1 RES1    0.0000
     24 C10        3.0315    4.5510    2.3174 C.3       1 RES1    0.0000
     25 H8         3.4980    4.6428    1.4829 H         1 RES1    0.0000
     26 H9         3.3339    5.2251    2.9291 H         1 RES1    0.0000
     27 H10        2.0882    4.6529    2.1689 H         1 RES1    0.0000
     28 C11        5.3264    4.5069    6.2501 C.3       1 RES1    0.0000
     29 H11        5.4691    3.7354    6.8029 H         1 RES1    0.0000
     30 H12        4.7888    5.1457    6.7240 H         1 RES1    0.0000
     31 H13        6.1729    4.9028    6.0286 H         1 RES1    0.0000
     32 H14        7.8996    1.2423   -0.5391 H         1 RES1    0.0000
@<TRIPOS>BOND
     1    1    6 2
     2    2    6 2
     3    3   14 1
     4    4   15 1
     5    5   16 1
     6    6    9 1
     7    7    8 1
     8    9   10 ar
     9   10   11 ar
    10   11   12 ar
    11   12   13 1
    12   14   12 ar
    13   15    9 ar
    14   16    7 1
    15   17   16 1
    16   18    7 1
    17   19   18 1
    18   20   18 1
    19   21   11 1
    20   22   21 1
    21   23   21 1
    22   24    4 1
    23   25   24 1
    24   26   24 1
    25   27   24 1
    26   28    3 1
    27   29   28 1
    28   30   28 1
    29   31   28 1
    30   32    5 1
    31   10   16 1
    32   14   15 ar
    33   18   21 1
@<TRIPOS>SUBSTRUCTURE
     1 RES1 1

@<TRIPOS>CRYSIN
   8.5870    8.6360    8.7460  80.0400  64.6700  85.1800   2 1

