# MOL2 file generated by ConQuest
# Please check atom types

@<TRIPOS>MOLECULE
TEJYUD
    48    50     1
SMALL
NO_CHARGES
****
Generated from CSD

@<TRIPOS>ATOM
      1 O1         3.2365    3.9002    4.6594 O.3       1 RES1    0.0000
      2 O2         4.2680    4.3434    5.6326 O.3       1 RES1    0.0000
      3 N1         0.4658    3.2806    3.8058 N.2       1 RES1    0.0000
      4 C1         2.1025    4.7740    4.9074 C.3       1 RES1    0.0000
      5 C2         0.8389    3.9295    4.8407 C.2       1 RES1    0.0000
      6 O3         2.3150    5.2220    6.2423 O.3       1 RES1    0.0000
      7 C3        -0.0362    3.7603    6.0620 C.3       1 RES1    0.0000
      8 H1        -0.9813    3.6610    5.7817 H         1 RES1    0.0000
      9 H2         0.0320    4.5665    6.6321 H         1 RES1    0.0000
     10 O4         1.3843    3.3942    2.7333 O.3       1 RES1    0.0000
     11 C4         0.3935    2.5246    6.8652 C.3       1 RES1    0.0000
     12 H3         1.3516    2.6107    7.0986 H         1 RES1    0.0000
     13 H4         0.2928    1.7207    6.2955 H         1 RES1    0.0000
     14 C5        -0.4215    2.3278    8.1563 C.3       1 RES1    0.0000
     15 H5        -1.3827    2.4438    7.9490 H         1 RES1    0.0000
     16 H6        -0.2926    1.4002    8.4766 H         1 RES1    0.0000
     17 C6        -0.0397    3.2919    9.2737 C.3       1 RES1    0.0000
     18 H7        -0.7498    3.2806    9.9629 H         1 RES1    0.0000
     19 H8         0.0084    4.2088    8.9038 H         1 RES1    0.0000
     20 C7         1.3067    2.9486    9.9367 C.3       1 RES1    0.0000
     21 H9         1.1471    2.2901   10.6578 H         1 RES1    0.0000
     22 H10        1.8930    2.5216    9.2640 H         1 RES1    0.0000
     23 C8         2.0334    4.1586   10.5263 C.3       1 RES1    0.0000
     24 H11        2.7877    3.8404   11.0830 H         1 RES1    0.0000
     25 H12        1.4101    4.6514   11.1165 H         1 RES1    0.0000
     26 C9         2.5703    5.1167    9.4607 C.3       1 RES1    0.0000
     27 H13        1.8363    5.3422    8.8369 H         1 RES1    0.0000
     28 H14        2.8557    5.9553    9.9038 H         1 RES1    0.0000
     29 C10        3.7385    4.5683    8.6599 C.3       1 RES1    0.0000
     30 H15        3.4429    3.7591    8.1715 H         1 RES1    0.0000
     31 H16        4.4594    4.3009    9.2818 H         1 RES1    0.0000
     32 C11        4.2957    5.5827    7.6549 C.3       1 RES1    0.0000
     33 H17        4.1424    6.4930    8.0120 H         1 RES1    0.0000
     34 H18        5.2742    5.4505    7.5888 H         1 RES1    0.0000
     35 C12        3.7070    5.5139    6.2525 C.3       1 RES1    0.0000
     36 C13        3.9874    6.7741    5.4490 C.3       1 RES1    0.0000
     37 H19        4.9600    6.9613    5.4588 H         1 RES1    0.0000
     38 H20        3.5238    7.5420    5.8663 H         1 RES1    0.0000
     39 C14        3.5124    6.6180    4.0027 C.3       1 RES1    0.0000
     40 H21        3.4752    7.5062    3.5670 H         1 RES1    0.0000
     41 H22        4.1555    6.0564    3.5001 H         1 RES1    0.0000
     42 C15        2.1310    5.9714    3.9674 C.3       1 RES1    0.0000
     43 H23        1.4461    6.6305    4.2442 H         1 RES1    0.0000
     44 H24        1.9234    5.6778    3.0454 H         1 RES1    0.0000
     45 C16        0.8974    2.6035    1.6487 C.3       1 RES1    0.0000
     46 H25        0.8380    1.6663    1.9292 H         1 RES1    0.0000
     47 H26        1.5126    2.6783    0.8878 H         1 RES1    0.0000
     48 H27        0.0096    2.9229    1.3839 H         1 RES1    0.0000
@<TRIPOS>BOND
     1    1    2 1
     2    2   35 1
     3    3    5 2
     4    4    1 1
     5    5    4 1
     6    6    4 1
     7    7    5 1
     8    8    7 1
     9    9    7 1
    10   10    3 1
    11   11    7 1
    12   12   11 1
    13   13   11 1
    14   14   11 1
    15   15   14 1
    16   16   14 1
    17   17   14 1
    18   18   17 1
    19   19   17 1
    20   20   17 1
    21   21   20 1
    22   22   20 1
    23   23   20 1
    24   24   23 1
    25   25   23 1
    26   26   23 1
    27   27   26 1
    28   28   26 1
    29   29   26 1
    30   30   29 1
    31   31   29 1
    32   32   29 1
    33   33   32 1
    34   34   32 1
    35   35    6 1
    36   36   35 1
    37   37   36 1
    38   38   36 1
    39   39   36 1
    40   40   39 1
    41   41   39 1
    42   42    4 1
    43   43   42 1
    44   44   42 1
    45   45   10 1
    46   46   45 1
    47   47   45 1
    48   48   45 1
    49   32   35 1
    50   39   42 1
@<TRIPOS>SUBSTRUCTURE
     1 RES1 1

@<TRIPOS>CRYSIN
  13.5000    5.9810   20.1620  90.0000 102.4800  90.0000  14 1

