# MOL2 file generated by ConQuest
# Please check atom types

@<TRIPOS>MOLECULE
TEKLIE
    59    61     1
SMALL
NO_CHARGES
****
Generated from CSD

@<TRIPOS>ATOM
      1 O1         6.7456    2.1247   12.4039 O.3       1 RES1    0.0000
      2 C1         6.3035    2.9721   11.4280 C.2       1 RES1    0.0000
      3 C2         7.3490    3.4045   10.7327 C.2       1 RES1    0.0000
      4 H1         7.3354    4.0095   10.0271 H         1 RES1    0.0000
      5 C3         8.5127    2.7497   11.2913 C.2       1 RES1    0.0000
      6 H2         9.3907    2.8391   10.9986 H         1 RES1    0.0000
      7 C4         8.0989    2.0191   12.2717 C.2       1 RES1    0.0000
      8 H3         8.6469    1.4960   12.8110 H         1 RES1    0.0000
      9 C5         4.3037    1.2910    9.9365 C.3       1 RES1    0.0000
     10 H4         4.1806    0.8151   10.7728 H         1 RES1    0.0000
     11 H5         5.2064    1.1183    9.6260 H         1 RES1    0.0000
     12 C6         3.3260    0.7604    8.9234 C.ar      1 RES1    0.0000
     13 C7         2.3237    1.5370    8.4020 C.ar      1 RES1    0.0000
     14 H6         2.2559    2.4291    8.6545 H         1 RES1    0.0000
     15 C8         1.4050    1.0077    7.5018 C.ar      1 RES1    0.0000
     16 H7         0.7376    1.5469    7.1453 H         1 RES1    0.0000
     17 C9         1.4888   -0.3131    7.1393 C.ar      1 RES1    0.0000
     18 H8         0.8706   -0.6722    6.5451 H         1 RES1    0.0000
     19 C10        2.4776   -1.1009    7.6533 C.ar      1 RES1    0.0000
     20 H9         2.5342   -1.9942    7.4022 H         1 RES1    0.0000
     21 C11        3.3937   -0.5790    8.5401 C.ar      1 RES1    0.0000
     22 H10        4.0612   -1.1245    8.8877 H         1 RES1    0.0000
     23 O2         3.6962    4.6681   13.8024 O.3       1 RES1    0.0000
     24 C12        4.8283    5.0955   13.0531 C.3       1 RES1    0.0000
     25 H11        5.6361    4.6519   13.3546 H         1 RES1    0.0000
     26 H12        4.9490    6.0547   13.1185 H         1 RES1    0.0000
     27 C13        4.4749    4.6830   11.6315 C.3       1 RES1    0.0000
     28 H13        4.9231    5.2595   10.9793 H         1 RES1    0.0000
     29 N1         3.0305    4.9327   11.6472 N.am      1 RES1    0.0000
     30 C14        2.5231    5.0110   13.0575 C.3       1 RES1    0.0000
     31 C15        1.4937    3.9499   13.3591 C.3       1 RES1    0.0000
     32 H14        0.6859    4.1413   12.8778 H         1 RES1    0.0000
     33 H15        1.3102    3.9412   14.3024 H         1 RES1    0.0000
     34 H16        1.8299    3.0913   13.0902 H         1 RES1    0.0000
     35 C16        2.0712    6.4088   13.4274 C.3       1 RES1    0.0000
     36 H17        1.2844    6.6337   12.9253 H         1 RES1    0.0000
     37 H18        2.7694    7.0350   13.2254 H         1 RES1    0.0000
     38 H19        1.8730    6.4436   14.3663 H         1 RES1    0.0000
     39 C17        2.3347    5.1961   10.5203 C.2       1 RES1    0.0000
     40 O3         2.8187    5.2620    9.4047 O.2       1 RES1    0.0000
     41 O4         1.0346    5.3949   10.7977 O.3       1 RES1    0.0000
     42 C18        0.0493    5.7180    9.7493 C.3       1 RES1    0.0000
     43 C19        0.4371    7.0326    9.0987 C.3       1 RES1    0.0000
     44 H20        0.4926    7.7184    9.7686 H         1 RES1    0.0000
     45 H21       -0.2241    7.2748    8.4466 H         1 RES1    0.0000
     46 H22        1.2905    6.9369    8.6679 H         1 RES1    0.0000
     47 C20       -1.2240    5.8895   10.5485 C.3       1 RES1    0.0000
     48 H23       -1.1169    6.6138   11.1695 H         1 RES1    0.0000
     49 H24       -1.4112    5.0806   11.0298 H         1 RES1    0.0000
     50 H25       -1.9518    6.0833    9.9529 H         1 RES1    0.0000
     51 C21       -0.0554    4.6010    8.7615 C.3       1 RES1    0.0000
     52 H26        0.7696    4.5252    8.2772 H         1 RES1    0.0000
     53 H27       -0.7709    4.7824    8.1480 H         1 RES1    0.0000
     54 H28       -0.2315    3.7797    9.2250 H         1 RES1    0.0000
     55 O5         4.7717    3.3821    9.0394 O.3       1 RES1    0.0000
     56 N2         4.1486    2.7236   10.1757 N.3       1 RES1    0.0000
     57 C22        4.8172    3.2007   11.3834 C.3       1 RES1    0.0000
     58 H29        4.4355    2.6975   12.1321 H         1 RES1    0.0000
     59 H30        4.0415    4.0518    9.0081 H         1 RES1    0.0000
@<TRIPOS>BOND
     1    1    2 1
     2    2    3 2
     3    3    4 1
     4    5    3 1
     5    6    5 1
     6    7    1 1
     7    8    7 1
     8    9   10 1
     9   11    9 1
    10   12    9 1
    11   13   12 ar
    12   14   13 1
    13   15   13 ar
    14   16   15 1
    15   17   15 ar
    16   18   17 1
    17   19   17 ar
    18   20   19 1
    19   21   12 ar
    20   22   21 1
    21   23   24 1
    22   24   25 1
    23   26   24 1
    24   27   24 1
    25   28   27 1
    26   29   27 1
    27   30   23 1
    28   31   30 1
    29   32   31 1
    30   33   31 1
    31   34   31 1
    32   35   30 1
    33   36   35 1
    34   37   35 1
    35   38   35 1
    36   39   29 1
    37   40   39 2
    38   41   39 1
    39   42   41 1
    40   43   42 1
    41   44   43 1
    42   45   43 1
    43   46   43 1
    44   47   42 1
    45   48   47 1
    46   49   47 1
    47   50   47 1
    48   51   42 1
    49   52   51 1
    50   53   51 1
    51   54   51 1
    52   55   56 1
    53   56    9 1
    54   57    2 1
    55   58   57 1
    56   59   55 1
    57    5    7 2
    58   19   21 ar
    59   27   57 1
    60   29   30 1
    61   56   57 1
@<TRIPOS>SUBSTRUCTURE
     1 RES1 1

@<TRIPOS>CRYSIN
  12.3140   12.4250   14.8550  90.0000  90.0000  90.0000  19 1

