# MOL2 file generated by ConQuest
# Please check atom types

@<TRIPOS>MOLECULE
TEKNOM
    61    66     1
SMALL
NO_CHARGES
****
Generated from CSD

@<TRIPOS>ATOM
      1 N1        -3.2395  -11.1703   -1.8990 N.3       1 RES1    0.0000
      2 O1        -2.2971  -11.9271   -1.1832 O.3       1 RES1    0.0000
      3 O2        -3.0081   -9.8209   -1.2692 O.3       1 RES1    0.0000
      4 O3        -4.4737   -8.3277   -2.3720 O.3       1 RES1    0.0000
      5 C1        -2.6736  -11.2221   -3.2999 C.3       1 RES1    0.0000
      6 C2        -0.9543  -11.6268   -1.6982 C.3       1 RES1    0.0000
      7 H1        -0.4203  -12.4548   -1.7855 H         1 RES1    0.0000
      8 H2        -0.4789  -11.0041   -1.0914 H         1 RES1    0.0000
      9 C3        -1.1735  -10.9841   -3.0576 C.3       1 RES1    0.0000
     10 H3        -0.6202  -11.4302   -3.7609 H         1 RES1    0.0000
     11 C4        -1.0161   -9.4482   -3.1161 C.3       1 RES1    0.0000
     12 H4        -0.3797   -9.1902   -3.8307 H         1 RES1    0.0000
     13 H5        -0.6828   -9.0987   -2.2526 H         1 RES1    0.0000
     14 C5        -2.4285   -8.8942   -3.4200 C.3       1 RES1    0.0000
     15 H6        -2.4001   -8.0600   -3.9703 H         1 RES1    0.0000
     16 C6        -3.1753  -10.0319   -4.1243 C.3       1 RES1    0.0000
     17 H7        -4.1568   -9.9210   -3.9642 H         1 RES1    0.0000
     18 C7        -3.1360   -8.6876   -2.0935 C.3       1 RES1    0.0000
     19 H8        -2.7005   -7.9169   -1.6284 H         1 RES1    0.0000
     20 C8        -3.0703  -12.5899   -3.8204 C.3       1 RES1    0.0000
     21 H9        -2.7833  -12.6815   -4.7527 H         1 RES1    0.0000
     22 H10       -4.0441  -12.6903   -3.7670 H         1 RES1    0.0000
     23 H11       -2.6400  -13.2825   -3.2763 H         1 RES1    0.0000
     24 C9        -2.9394  -10.1930   -5.6151 C.ar      1 RES1    0.0000
     25 C10       -3.9705  -10.6728   -6.4047 C.ar      1 RES1    0.0000
     26 H12       -4.8115  -10.8635   -6.0073 H         1 RES1    0.0000
     27 C11       -3.7982  -10.8806   -7.7589 C.ar      1 RES1    0.0000
     28 H13       -4.5183  -11.2214   -8.2774 H         1 RES1    0.0000
     29 C12       -2.6004  -10.5997   -8.3647 C.ar      1 RES1    0.0000
     30 H14       -2.4861  -10.7475   -9.2959 H         1 RES1    0.0000
     31 C13       -1.5698  -10.1034   -7.6111 C.ar      1 RES1    0.0000
     32 H15       -0.7387   -9.8966   -8.0218 H         1 RES1    0.0000
     33 C14       -1.7385   -9.9037   -6.2486 C.ar      1 RES1    0.0000
     34 H16       -1.0145   -9.5598   -5.7373 H         1 RES1    0.0000
     35 C15       -5.4150   -8.4204   -1.2896 C.3       1 RES1    0.0000
     36 H17       -5.4004   -9.3512   -0.9240 H         1 RES1    0.0000
     37 C16       -6.7806   -8.1559   -1.9189 C.3       1 RES1    0.0000
     38 H18       -6.7513   -7.2465   -2.3327 H         1 RES1    0.0000
     39 C17       -7.8644   -8.1344   -0.8337 C.3       1 RES1    0.0000
     40 H19       -8.7286   -7.8805   -1.2444 H         1 RES1    0.0000
     41 H20       -7.9632   -9.0450   -0.4569 H         1 RES1    0.0000
     42 C18       -7.5397   -7.1577    0.2947 C.3       1 RES1    0.0000
     43 H21       -7.5433   -6.2329   -0.0585 H         1 RES1    0.0000
     44 H22       -8.2357   -7.2212    0.9949 H         1 RES1    0.0000
     45 C19       -6.1883   -7.4578    0.9004 C.3       1 RES1    0.0000
     46 H23       -6.2118   -8.3455    1.3378 H         1 RES1    0.0000
     47 H24       -5.9786   -6.7805    1.5924 H         1 RES1    0.0000
     48 C20       -5.0962   -7.4457   -0.1725 C.3       1 RES1    0.0000
     49 H25       -5.0127   -6.5326   -0.5462 H         1 RES1    0.0000
     50 H26       -4.2286   -7.6885    0.2392 H         1 RES1    0.0000
     51 C21       -7.0957   -9.1502   -3.0206 C.ar      1 RES1    0.0000
     52 C22       -7.3129   -8.7289   -4.3245 C.ar      1 RES1    0.0000
     53 H27       -7.2696   -7.8023   -4.5268 H         1 RES1    0.0000
     54 C23       -7.5935   -9.6291   -5.3369 C.ar      1 RES1    0.0000
     55 H28       -7.7383   -9.3156   -6.2219 H         1 RES1    0.0000
     56 C24       -7.6627  -10.9752   -5.0658 C.ar      1 RES1    0.0000
     57 H29       -7.8504  -11.5945   -5.7620 H         1 RES1    0.0000
     58 C25       -7.4589  -11.4225   -3.7742 C.ar      1 RES1    0.0000
     59 H30       -7.5087  -12.3509   -3.5781 H         1 RES1    0.0000
     60 C26       -7.1804  -10.5120   -2.7650 C.ar      1 RES1    0.0000
     61 H31       -7.0455  -10.8271   -1.8789 H         1 RES1    0.0000
@<TRIPOS>BOND
     1    1    2 1
     2    2    6 1
     3    3    1 1
     4    4   18 1
     5    5    1 1
     6    6    7 1
     7    8    6 1
     8    9    5 1
     9   10    9 1
    10   11    9 1
    11   12   11 1
    12   13   11 1
    13   14   11 1
    14   15   14 1
    15   16    5 1
    16   17   16 1
    17   18    3 1
    18   19   18 1
    19   20    5 1
    20   21   20 1
    21   22   20 1
    22   23   20 1
    23   24   16 1
    24   25   24 ar
    25   26   25 1
    26   27   25 ar
    27   28   27 1
    28   29   27 ar
    29   30   29 1
    30   31   29 ar
    31   32   31 1
    32   33   24 ar
    33   34   33 1
    34   35    4 1
    35   36   35 1
    36   37   35 1
    37   38   37 1
    38   39   37 1
    39   40   39 1
    40   41   39 1
    41   42   39 1
    42   43   42 1
    43   44   42 1
    44   45   42 1
    45   46   45 1
    46   47   45 1
    47   48   35 1
    48   49   48 1
    49   50   48 1
    50   51   37 1
    51   52   51 ar
    52   53   52 1
    53   54   52 ar
    54   55   54 1
    55   56   54 ar
    56   57   56 1
    57   58   56 ar
    58   59   58 1
    59   60   51 ar
    60   61   60 1
    61    6    9 1
    62   14   16 1
    63   14   18 1
    64   31   33 ar
    65   45   48 1
    66   58   60 ar
@<TRIPOS>SUBSTRUCTURE
     1 RES1 1

@<TRIPOS>CRYSIN
   9.8583   10.7631   11.3841  64.6360  84.1540  83.7620   2 1

