# MOL2 file generated by ConQuest
# Please check atom types

@<TRIPOS>MOLECULE
TELKAY
    32    33     1
SMALL
NO_CHARGES
****
Generated from CSD

@<TRIPOS>ATOM
      1 O1        -2.5874    5.6485   16.8876 O.3       1 RES1    0.0000
      2 O2         0.7227    3.2659   11.6852 O.3       1 RES1    0.0000
      3 O3         0.4500    5.3005   10.8364 O.2       1 RES1    0.0000
      4 N1        -2.1381    4.5210   17.6448 N.2       1 RES1    0.0000
      5 N2        -2.7032    6.4077   14.7381 N.pl3     1 RES1    0.0000
      6 H1        -2.7255    6.1343   13.8216 H         1 RES1    0.0000
      7 H2        -3.5459    6.7674   14.9454 H         1 RES1    0.0000
      8 C1        -1.6673    3.7016   16.7469 C.2       1 RES1    0.0000
      9 C2        -1.7580    4.1795   15.4210 C.2       1 RES1    0.0000
     10 C3        -2.3593    5.3969   15.5840 C.2       1 RES1    0.0000
     11 C4        -1.2682    3.4638   14.2059 C.3       1 RES1    0.0000
     12 H3        -1.7503    3.7894   13.4300 H         1 RES1    0.0000
     13 H4        -1.4573    2.5168   14.2974 H         1 RES1    0.0000
     14 C5         0.2337    3.6545   13.9789 C.3       1 RES1    0.0000
     15 H5         0.6969    3.6552   14.8425 H         1 RES1    0.0000
     16 C6         0.5030    4.9814   13.2515 C.3       1 RES1    0.0000
     17 H6        -0.2079    5.6203   13.4188 H         1 RES1    0.0000
     18 H7         1.3471    5.3679   13.5337 H         1 RES1    0.0000
     19 C7         0.5469    4.5971   11.8133 C.2       1 RES1    0.0000
     20 C8         0.9201    2.6582   13.0297 C.3       1 RES1    0.0000
     21 C9         2.4179    2.5995   13.2851 C.3       1 RES1    0.0000
     22 H8         2.5804    2.2116   14.1485 H         1 RES1    0.0000
     23 H9         2.7820    3.4870   13.2586 H         1 RES1    0.0000
     24 H10        2.8364    2.0622   12.6092 H         1 RES1    0.0000
     25 C10        0.3237    1.2726   12.9621 C.3       1 RES1    0.0000
     26 H11        0.3662    0.8636   13.8307 H         1 RES1    0.0000
     27 H12        0.8190    0.7418   12.3345 H         1 RES1    0.0000
     28 H13       -0.5916    1.3320   12.6796 H         1 RES1    0.0000
     29 C11       -1.0973    2.3834   17.1830 C.3       1 RES1    0.0000
     30 H14       -0.1953    2.3036   16.8638 H         1 RES1    0.0000
     31 H15       -1.6282    1.6699   16.8229 H         1 RES1    0.0000
     32 H16       -1.1036    2.3334   18.1417 H         1 RES1    0.0000
@<TRIPOS>BOND
     1    1    4 1
     2    2   19 1
     3    3   19 2
     4    4    8 2
     5    5    6 1
     6    7    5 1
     7    8    9 1
     8    9   10 2
     9   10    1 1
    10   11    9 1
    11   12   11 1
    12   13   11 1
    13   14   11 1
    14   15   14 1
    15   16   14 1
    16   17   16 1
    17   18   16 1
    18   19   16 1
    19   20    2 1
    20   21   20 1
    21   22   21 1
    22   23   21 1
    23   24   21 1
    24   25   20 1
    25   26   25 1
    26   27   25 1
    27   28   25 1
    28   29    8 1
    29   30   29 1
    30   31   29 1
    31   32   29 1
    32    5   10 1
    33   14   20 1
@<TRIPOS>SUBSTRUCTURE
     1 RES1 1

@<TRIPOS>CRYSIN
   6.9760    7.2510   22.7030  90.0000  90.0000  90.0000  19 1

