# MOL2 file generated by ConQuest
# Please check atom types

@<TRIPOS>MOLECULE
TELZUH
    27    25     2
SMALL
NO_CHARGES
****
Generated from CSD

@<TRIPOS>ATOM
      1 C1         4.3633    2.1442   12.7996 C.ar      1 RES1    0.0000
      2 C2         3.1942    2.4607   12.1378 C.ar      1 RES1    0.0000
      3 H1         2.3998    2.6605   12.6196 H         1 RES1    0.0000
      4 C3         3.2079    2.4795   10.7560 C.ar      1 RES1    0.0000
      5 H2         2.4190    2.7240   10.2868 H         1 RES1    0.0000
      6 C4         4.3633    2.1442   10.0287 C.ar      1 RES1    0.0000
      7 C5         4.3633    2.1442    8.5442 C.ar      1 RES1    0.0000
      8 C6         3.6191    3.0885    7.8315 C.ar      1 RES1    0.0000
      9 H3         3.1066    3.7377    8.3000 H         1 RES1    0.0000
     10 C7         3.6241    3.0825    6.4458 C.ar      1 RES1    0.0000
     11 H4         3.1119    3.7334    5.9798 H         1 RES1    0.0000
     12 C8         4.3632    2.1442    5.7133 C.ar      1 RES1    0.0000
     13 C9         4.3632    2.1442    4.2163 C.3       1 RES1    0.0000
     14 H5         3.9967    1.2959    3.8898 Du        2 SUP2    0.0000
     15 H6         5.2813    2.2514    3.8898 Du        2 SUP2    0.0000
     16 H7         3.8117    2.8852    3.8898 Du        2 SUP2    0.0000
     17 N1         4.3633    2.1442   14.2715 N.pl3     1 RES1    0.0000
     18 O1         5.4422    2.0610   14.8547 O.2       1 RES1    0.0000
     19 C2M        5.5323    1.8277   12.1378 C.ar      1 RES1    0.0000
     20 H1M        6.3267    1.6279   12.6196 H         1 RES1    0.0000
     21 C3M        5.5186    1.8088   10.7560 C.ar      1 RES1    0.0000
     22 H2M        6.3075    1.5644   10.2868 H         1 RES1    0.0000
     23 C6M        5.1074    1.1999    7.8315 C.ar      1 RES1    0.0000
     24 H3M        5.6199    0.5506    8.3000 H         1 RES1    0.0000
     25 C7M        5.1024    1.2059    6.4458 C.ar      1 RES1    0.0000
     26 H4M        5.6146    0.5549    5.9798 H         1 RES1    0.0000
     27 O1M        3.2843    2.2274   14.8547 O.2       1 RES1    0.0000
@<TRIPOS>BOND
     1    1    2 ar
     2    2    3 1
     3    4    2 ar
     4    5    4 1
     5    6    4 ar
     6    7    6 1
     7    8    7 ar
     8    9    8 1
     9   10    8 ar
    10   11   10 1
    11   12   10 ar
    12   13   12 1
    13   17    1 1
    14   18   17 2
    15   19    1 ar
    16   20   19 1
    17   21    6 ar
    18   22   21 1
    19   23    7 ar
    20   24   23 1
    21   25   12 ar
    22   26   25 1
    23   27   17 2
    24   19   21 ar
    25   23   25 ar
@<TRIPOS>SUBSTRUCTURE
     1 RES1 1
     2 SUP2 14

@<TRIPOS>CRYSIN
  17.4530    8.5767   13.9520  90.0000  90.0000  90.0000  43 1

