# MOL2 file generated by ConQuest
# Please check atom types

@<TRIPOS>MOLECULE
TEMBIW
    41    43     1
SMALL
NO_CHARGES
****
Generated from CSD

@<TRIPOS>ATOM
      1 C1         0.2786    5.6565    8.6482 C.3       1 RES1    0.0000
      2 C2        -0.6049    5.4869    7.4236 C.3       1 RES1    0.0000
      3 C3        -0.1407    4.3457    6.5721 C.2       1 RES1    0.0000
      4 C4         0.3679    1.8947    6.7091 C.ar      1 RES1    0.0000
      5 C5         0.7222    0.8068    7.4720 C.ar      1 RES1    0.0000
      6 C6         0.9952    0.9013    8.8100 C.ar      1 RES1    0.0000
      7 C7         0.9029    2.1173    9.4211 C.ar      1 RES1    0.0000
      8 C8         0.5210    3.2404    8.6875 C.ar      1 RES1    0.0000
      9 C9         0.2712    3.1446    7.3203 C.ar      1 RES1    0.0000
     10 C10        1.6621    6.0950    8.2741 C.3       1 RES1    0.0000
     11 C11       -0.3634    6.5754    9.6582 C.3       1 RES1    0.0000
     12 C12       -0.6310    5.3287    3.3242 C.2       1 RES1    0.0000
     13 C13       -0.9220    6.6244    2.6951 C.ar      1 RES1    0.0000
     14 C14       -1.1214    6.6020    1.3279 C.ar      1 RES1    0.0000
     15 C15       -1.3593    7.7641    0.6381 C.ar      1 RES1    0.0000
     16 C16       -1.4195    8.9482    1.3133 C.ar      1 RES1    0.0000
     17 C17       -1.2396    8.9882    2.6738 C.ar      1 RES1    0.0000
     18 C18       -0.9878    7.8163    3.3647 C.ar      1 RES1    0.0000
     19 O1         0.3970    4.3875    9.3829 O.3       1 RES1    0.0000
     20 O2         0.5014   -0.5604    5.6351 O.2       1 RES1    0.0000
     21 O3         1.0433   -1.4727    7.4832 O.2       1 RES1    0.0000
     22 O4        -0.5178    5.4679    4.6959 O.3       1 RES1    0.0000
     23 O5        -0.5055    4.2850    2.7636 O.2       1 RES1    0.0000
     24 N1        -0.1006    4.2408    5.2970 N.2       1 RES1    0.0000
     25 N2         0.7589   -0.5112    6.8013 N.pl3     1 RES1    0.0000
     26 H1        -0.5947    6.2910    6.9001 H         1 RES1    0.0000
     27 H2        -1.5010    5.3088    7.7202 H         1 RES1    0.0000
     28 H3         0.1909    1.7950    5.7711 H         1 RES1    0.0000
     29 H4         1.2467    0.1188    9.3065 H         1 RES1    0.0000
     30 H5         1.0956    2.2058   10.3569 H         1 RES1    0.0000
     31 H6         1.6234    6.9253    7.7944 H         1 RES1    0.0000
     32 H7         2.0630    5.4220    7.7180 H         1 RES1    0.0000
     33 H8         2.1894    6.2082    9.0684 H         1 RES1    0.0000
     34 H9        -0.4794    7.4527    9.2840 H         1 RES1    0.0000
     35 H10        0.1906    6.6322   10.4401 H         1 RES1    0.0000
     36 H11       -1.2205    6.2151    9.8974 H         1 RES1    0.0000
     37 H12       -1.1033    5.7596    0.8673 H         1 RES1    0.0000
     38 H13       -1.4729    7.7435   -0.3146 H         1 RES1    0.0000
     39 H14       -1.5784    9.7598    0.8235 H         1 RES1    0.0000
     40 H15       -1.3004    9.8247    3.1411 H         1 RES1    0.0000
     41 H16       -0.8553    7.8290    4.3151 H         1 RES1    0.0000
@<TRIPOS>BOND
     1    1    2 1
     2    2    3 1
     3    3    9 1
     4    4    5 ar
     5    5    6 ar
     6    6    7 ar
     7    7    8 ar
     8    8    9 ar
     9    9    4 ar
    10   10    1 1
    11   11    1 1
    12   12   13 1
    13   13   14 ar
    14   14   15 ar
    15   15   16 ar
    16   16   17 ar
    17   17   18 ar
    18   18   13 ar
    19   19    1 1
    20   20   25 2
    21   21   25 2
    22   22   12 1
    23   23   12 2
    24   24    3 2
    25   25    5 1
    26   26    2 1
    27   27    2 1
    28   28    4 1
    29   29    6 1
    30   30    7 1
    31   31   10 1
    32   32   10 1
    33   33   10 1
    34   34   11 1
    35   35   11 1
    36   36   11 1
    37   37   14 1
    38   38   15 1
    39   39   16 1
    40   40   17 1
    41   41   18 1
    42    8   19 1
    43   22   24 1
@<TRIPOS>SUBSTRUCTURE
     1 RES1 1

@<TRIPOS>CRYSIN
   7.0320   10.6670   11.8790 102.4000 102.9200  95.1600   2 1

