# MOL2 file generated by ConQuest
# Please check atom types

@<TRIPOS>MOLECULE
TEMLAA
    30    31     1
SMALL
NO_CHARGES
****
Generated from CSD

@<TRIPOS>ATOM
      1 N1         0.6065    1.0524    2.7771 N.3       1 RES1    0.0000
      2 N2         1.4169    1.2334    0.5738 N.2       1 RES1    0.0000
      3 O1         0.7596    1.7073   -0.6283 O.3       1 RES1    0.0000
      4 N3        -1.2686    2.5517   -1.2051 N.3       1 RES1    0.0000
      5 N4        -0.7274    1.8650    1.0093 N.2       1 RES1    0.0000
      6 C1         3.0592    0.8052    2.9053 C.ar      1 RES1    0.0000
      7 C2         4.1743    0.5142    3.6851 C.ar      1 RES1    0.0000
      8 C3         4.0729    0.1329    5.0044 C.ar      1 RES1    0.0000
      9 C4         2.8006    0.0347    5.5230 C.ar      1 RES1    0.0000
     10 C5         1.6700    0.3114    4.7760 C.ar      1 RES1    0.0000
     11 C6         1.7905    0.7206    3.4578 C.ar      1 RES1    0.0000
     12 C7         0.4712    1.3710    1.4586 C.2       1 RES1    0.0000
     13 C8        -0.4738    2.0517   -0.2648 C.2       1 RES1    0.0000
     14 C9        -2.6014    3.0005   -0.8769 C.3       1 RES1    0.0000
     15 H1        -2.7132    3.0013    0.0761 H         1 RES1    0.0000
     16 H2        -3.2460    2.4095   -1.2740 H         1 RES1    0.0000
     17 H3        -2.7307    3.8894   -1.2156 H         1 RES1    0.0000
     18 C10       -0.8077    2.6922   -2.5765 C.3       1 RES1    0.0000
     19 H4        -0.5340    3.5991   -2.7312 H         1 RES1    0.0000
     20 H5        -1.5200    2.4668   -3.1790 H         1 RES1    0.0000
     21 H6        -0.0638    2.1041   -2.7257 H         1 RES1    0.0000
     22 C11        5.2942   -0.1485    5.8426 C.3       1 RES1    0.0000
     23 H7         5.6294    0.6740    6.2069 H         1 RES1    0.0000
     24 H8         5.9699   -0.5556    5.2958 H         1 RES1    0.0000
     25 H9         5.0607   -0.7433    6.5588 H         1 RES1    0.0000
     26 H10        0.8088    0.2412    5.1568 H         1 RES1    0.0000
     27 H11       -0.0441    1.2515    3.2959 H         1 RES1    0.0000
     28 H12        3.1771    1.1610    1.9524 H         1 RES1    0.0000
     29 H13        2.7071   -0.2262    6.4827 H         1 RES1    0.0000
     30 H14        5.0540    0.5730    3.3246 H         1 RES1    0.0000
@<TRIPOS>BOND
     1    1   11 1
     2    2    3 1
     3    3   13 1
     4    4   13 1
     5    5   12 1
     6    6    7 ar
     7    7    8 ar
     8    8    9 ar
     9    9   10 ar
    10   10   11 ar
    11   11    6 ar
    12   12    1 1
    13   13    5 2
    14   14    4 1
    15   15   14 1
    16   16   14 1
    17   17   14 1
    18   18    4 1
    19   19   18 1
    20   20   18 1
    21   21   18 1
    22   22    8 1
    23   23   22 1
    24   24   22 1
    25   25   22 1
    26   26   10 1
    27   27    1 1
    28   28    6 1
    29   29    9 1
    30   30    7 1
    31    2   12 2
@<TRIPOS>SUBSTRUCTURE
     1 RES1 1

@<TRIPOS>CRYSIN
  27.8090    7.5390   12.1520  90.0000 114.8080  90.0000  15 1

