# MOL2 file generated by ConQuest
# Please check atom types

@<TRIPOS>MOLECULE
TEMYUI
    49    51     1
SMALL
NO_CHARGES
****
Generated from CSD

@<TRIPOS>ATOM
      1 O1         4.0854    0.9814    1.1878 O.3       1 RES1    0.0000
      2 O2         8.1599    5.6843    0.7235 O.2       1 RES1    0.0000
      3 O3         7.0439    1.8671   -4.1595 O.3       1 RES1    0.0000
      4 O4         4.6738   10.6736   -1.9318 O.2       1 RES1    0.0000
      5 O5         4.1436    8.5985   -1.9999 O.2       1 RES1    0.0000
      6 N1         5.9731    5.3509    1.1613 N.am      1 RES1    0.0000
      7 N2         4.6806    9.5473   -1.4594 N.pl3     1 RES1    0.0000
      8 C1         4.8157    4.5117    1.1448 C.ar      1 RES1    0.0000
      9 C2         4.9514    3.1342    1.1374 C.ar      1 RES1    0.0000
     10 C3         3.8248    2.3235    1.1672 C.ar      1 RES1    0.0000
     11 C4         2.5584    2.8849    1.2110 C.ar      1 RES1    0.0000
     12 C5         2.4349    4.2612    1.2288 C.ar      1 RES1    0.0000
     13 C6         3.5438    5.0778    1.1967 C.ar      1 RES1    0.0000
     14 C7         7.1155    5.1180    0.4360 C.2       1 RES1    0.0000
     15 C8         7.0303    4.2391   -0.7635 C.ar      1 RES1    0.0000
     16 C9         7.9807    3.2399   -0.9605 C.ar      1 RES1    0.0000
     17 C10        7.9499    2.4613   -2.0938 C.ar      1 RES1    0.0000
     18 C11        6.9941    2.6952   -3.0731 C.ar      1 RES1    0.0000
     19 C12        6.0681    3.7113   -2.9130 C.ar      1 RES1    0.0000
     20 C13        6.0869    4.4617   -1.7506 C.ar      1 RES1    0.0000
     21 C14        6.0458    6.4302    2.1564 C.3       1 RES1    0.0000
     22 C15        6.0401    7.8044    1.5317 C.ar      1 RES1    0.0000
     23 C16        5.4191    8.0397    0.3205 C.ar      1 RES1    0.0000
     24 C17        5.3792    9.3245   -0.1856 C.ar      1 RES1    0.0000
     25 C18        5.9425   10.3977    0.4684 C.ar      1 RES1    0.0000
     26 C19        6.5638   10.1582    1.6750 C.ar      1 RES1    0.0000
     27 C20        6.6224    8.8774    2.2032 C.ar      1 RES1    0.0000
     28 C21        2.9868    0.0831    1.2680 C.3       1 RES1    0.0000
     29 H1         2.4941    0.2371    2.1168 H         1 RES1    0.0000
     30 H2         3.3214   -0.8523    1.2463 H         1 RES1    0.0000
     31 H3         2.3775    0.2348    0.4987 H         1 RES1    0.0000
     32 C22        6.0694    2.0603   -5.1672 C.3       1 RES1    0.0000
     33 H4         5.1705    1.9347   -4.7835 H         1 RES1    0.0000
     34 H5         6.2120    1.4087   -5.8916 H         1 RES1    0.0000
     35 H6         6.1468    2.9748   -5.5282 H         1 RES1    0.0000
     36 H7         5.8099    2.7330    1.1516 H         1 RES1    0.0000
     37 H8         1.7722    2.3197    1.2311 H         1 RES1    0.0000
     38 H9         1.5352    4.6794    1.2425 H         1 RES1    0.0000
     39 H10        3.4526    6.0130    1.2198 H         1 RES1    0.0000
     40 H11        8.6735    3.1016   -0.2621 H         1 RES1    0.0000
     41 H12        8.5637    1.7492   -2.2181 H         1 RES1    0.0000
     42 H13        5.4236    3.9116   -3.6035 H         1 RES1    0.0000
     43 H14        5.4539    5.1865   -1.6238 H         1 RES1    0.0000
     44 H15        6.8707    6.3135    2.7177 H         1 RES1    0.0000
     45 H16        5.2587    6.3558    2.7632 H         1 RES1    0.0000
     46 H17        5.0002    7.3442   -0.1647 H         1 RES1    0.0000
     47 H18        5.8324   11.2793    0.0719 H         1 RES1    0.0000
     48 H19        6.9747   10.9013    2.1859 H         1 RES1    0.0000
     49 H20        7.0303    8.6990    3.0764 H         1 RES1    0.0000
@<TRIPOS>BOND
     1    1   10 1
     2    2   14 2
     3    3   18 1
     4    4    7 2
     5    5    7 2
     6    6    8 1
     7    7   24 1
     8    8    9 ar
     9    9   10 ar
    10   10   11 ar
    11   11   12 ar
    12   12   13 ar
    13   13    8 ar
    14   14    6 1
    15   15   14 1
    16   16   15 ar
    17   17   16 ar
    18   18   17 ar
    19   19   18 ar
    20   20   15 ar
    21   21    6 1
    22   22   21 1
    23   23   22 ar
    24   24   23 ar
    25   25   24 ar
    26   26   25 ar
    27   27   22 ar
    28   28    1 1
    29   29   28 1
    30   30   28 1
    31   31   28 1
    32   32    3 1
    33   33   32 1
    34   34   32 1
    35   35   32 1
    36   36    9 1
    37   37   11 1
    38   38   12 1
    39   39   13 1
    40   40   16 1
    41   41   17 1
    42   42   19 1
    43   43   20 1
    44   44   21 1
    45   45   21 1
    46   46   23 1
    47   47   25 1
    48   48   26 1
    49   49   27 1
    50   19   20 ar
    51   26   27 ar
@<TRIPOS>SUBSTRUCTURE
     1 RES1 1

@<TRIPOS>CRYSIN
   8.8666   23.4790    9.5090  90.0000  95.6470  90.0000 231 1

