# MOL2 file generated by ConQuest
# Please check atom types

@<TRIPOS>MOLECULE
TENJAZ
    42    42     1
SMALL
NO_CHARGES
****
Generated from CSD

@<TRIPOS>ATOM
      1 O1         1.4269    6.6638    4.4324 O.2       1 RES1    0.0000
      2 O2         0.2722    5.0251    5.4060 O.3       1 RES1    0.0000
      3 O3         3.5486    4.0312    1.2893 O.2       1 RES1    0.0000
      4 O4         4.6908    3.1008   -0.8133 O.3       1 RES1    0.0000
      5 H1         4.1450    3.5009   -0.2846 H         1 RES1    0.0000
      6 O5         0.7985    2.3831    3.6771 O.2       1 RES1    0.0000
      7 O6         2.2322    2.5144    5.3877 O.3       1 RES1    0.0000
      8 O7        10.8748   -0.3456   -2.1956 O.2       1 RES1    0.0000
      9 O8         9.6082   -0.4083   -3.9410 O.2       1 RES1    0.0000
     10 N1         9.8365   -0.0901   -2.7779 N.pl3     1 RES1    0.0000
     11 C1         1.2422    5.4952    4.6060 C.2       1 RES1    0.0000
     12 C2         2.0512    4.4047    3.9074 C.3       1 RES1    0.0000
     13 H2         1.8763    4.4955    2.9474 H         1 RES1    0.0000
     14 C3         3.5516    4.7160    4.1170 C.3       1 RES1    0.0000
     15 H3         3.7314    5.6007    3.7625 H         1 RES1    0.0000
     16 H4         3.7263    4.7447    5.0705 H         1 RES1    0.0000
     17 C4         4.5343    3.7300    3.4765 C.3       1 RES1    0.0000
     18 H5         5.4299    3.9791    3.7534 H         1 RES1    0.0000
     19 H6         4.3554    2.8503    3.8427 H         1 RES1    0.0000
     20 C5         4.5294    3.6172    1.9653 C.2       1 RES1    0.0000
     21 C6         5.6558    2.9727    1.3430 C.2       1 RES1    0.0000
     22 H7         6.3784    2.7164    1.8683 H         1 RES1    0.0000
     23 C7         5.6893    2.7314    0.0104 C.2       1 RES1    0.0000
     24 C8         6.7812    2.0028   -0.6896 C.ar      1 RES1    0.0000
     25 C9         6.5470    1.4481   -1.9485 C.ar      1 RES1    0.0000
     26 H8         5.7070    1.5444   -2.3367 H         1 RES1    0.0000
     27 C10        7.5353    0.7585   -2.6342 C.ar      1 RES1    0.0000
     28 H9         7.3676    0.3869   -3.4701 H         1 RES1    0.0000
     29 C11        8.7764    0.6396   -2.0378 C.ar      1 RES1    0.0000
     30 C12        9.0514    1.1498   -0.7776 C.ar      1 RES1    0.0000
     31 H10        9.8887    1.0335   -0.3907 H         1 RES1    0.0000
     32 C13        8.0492    1.8388   -0.1061 C.ar      1 RES1    0.0000
     33 H11        8.2183    2.1937    0.7362 H         1 RES1    0.0000
     34 C14        1.6123    2.9979    4.3033 C.2       1 RES1    0.0000
     35 C15       -0.5347    6.0353    6.0577 C.3       1 RES1    0.0000
     36 H12       -0.9955    6.5546    5.3940 H         1 RES1    0.0000
     37 H13        0.0311    6.6109    6.5779 H         1 RES1    0.0000
     38 H14       -1.1751    5.6117    6.6335 H         1 RES1    0.0000
     39 C16        1.9100    1.1390    5.7291 C.3       1 RES1    0.0000
     40 H15        2.3066    0.5481    5.0848 H         1 RES1    0.0000
     41 H16        0.9568    1.0231    5.7252 H         1 RES1    0.0000
     42 H17        2.2536    0.9371    6.6024 H         1 RES1    0.0000
@<TRIPOS>BOND
     1    1   11 2
     2    2   11 1
     3    3   20 2
     4    4    5 1
     5    6   34 2
     6    7   34 1
     7    8   10 2
     8    9   10 2
     9   10   29 1
    10   11   12 1
    11   12   13 1
    12   14   12 1
    13   15   14 1
    14   16   14 1
    15   17   14 1
    16   18   17 1
    17   19   17 1
    18   20   17 1
    19   21   20 1
    20   22   21 1
    21   23    4 1
    22   24   23 1
    23   25   24 ar
    24   26   25 1
    25   27   25 ar
    26   28   27 1
    27   29   27 ar
    28   30   29 ar
    29   31   30 1
    30   32   24 ar
    31   33   32 1
    32   34   12 1
    33   35    2 1
    34   36   35 1
    35   37   35 1
    36   38   35 1
    37   39    7 1
    38   40   39 1
    39   41   39 1
    40   42   39 1
    41   21   23 2
    42   30   32 ar
@<TRIPOS>SUBSTRUCTURE
     1 RES1 1

@<TRIPOS>CRYSIN
   7.2580    8.8670   12.9470  90.5900  91.8700 100.4900   2 1

