# MOL2 file generated by ConQuest
# Please check atom types

@<TRIPOS>MOLECULE
TENXUI
    54    56     1
SMALL
NO_CHARGES
****
Generated from CSD

@<TRIPOS>ATOM
      1 C1         7.4503    6.1115    9.1983 C.3       1 RES1    0.0000
      2 H1         8.0414    5.3988    9.5509 H         1 RES1    0.0000
      3 H2         7.9197    6.9762    9.3102 H         1 RES1    0.0000
      4 C2         7.2023    5.8569    7.6551 C.3       1 RES1    0.0000
      5 H3         7.4220    6.6805    7.1528 H         1 RES1    0.0000
      6 H4         7.8110    5.1400    7.3432 H         1 RES1    0.0000
      7 C3         5.7738    5.4588    7.3502 C.ar      1 RES1    0.0000
      8 C4         4.8128    6.3910    6.9367 C.ar      1 RES1    0.0000
      9 C5         3.4686    6.1959    7.2646 C.ar      1 RES1    0.0000
     10 H5         2.8304    6.8519    7.0109 H         1 RES1    0.0000
     11 C6         3.0433    5.0658    7.9518 C.ar      1 RES1    0.0000
     12 C7         3.9562    4.0157    8.0704 C.ar      1 RES1    0.0000
     13 H6         3.6562    3.1582    8.3492 H         1 RES1    0.0000
     14 C8         5.3022    4.2191    7.7833 C.ar      1 RES1    0.0000
     15 H7         5.9133    3.4988    7.8839 H         1 RES1    0.0000
     16 C9         5.1729    7.7274    6.3528 C.2       1 RES1    0.0000
     17 O1         4.7668    8.7799    6.8317 O.2       1 RES1    0.0000
     18 N1         5.9669    7.7344    5.2579 N.am      1 RES1    0.0000
     19 C10        6.3994    8.9265    4.5602 C.3       1 RES1    0.0000
     20 H8         5.7382    9.1631    3.8764 H         1 RES1    0.0000
     21 H9         7.2654    8.7587    4.1333 H         1 RES1    0.0000
     22 H10        6.4875    9.6650    5.1985 H         1 RES1    0.0000
     23 O2         6.2393    6.5250    4.6066 O.3       1 RES1    0.0000
     24 C11        5.1813    6.2320    3.6784 C.3       1 RES1    0.0000
     25 H11        4.3318    6.1618    4.1620 H         1 RES1    0.0000
     26 H12        5.3695    5.3831    3.2261 H         1 RES1    0.0000
     27 H13        5.1207    6.9505    3.0142 H         1 RES1    0.0000
     28 C1D        1.7662    5.0917    8.7646 C.3       1 RES1    0.0000
     29 H1D        1.1751    5.8044    8.4120 H         1 RES1    0.0000
     30 H2D        1.2968    4.2270    8.6527 H         1 RES1    0.0000
     31 C2D        2.0142    5.3463   10.3078 C.3       1 RES1    0.0000
     32 H3D        1.7945    4.5227   10.8101 H         1 RES1    0.0000
     33 H4D        1.4055    6.0632   10.6197 H         1 RES1    0.0000
     34 C3D        3.4427    5.7444   10.6127 C.ar      1 RES1    0.0000
     35 C4D        4.4037    4.8122   11.0262 C.ar      1 RES1    0.0000
     36 C5D        5.7479    5.0073   10.6983 C.ar      1 RES1    0.0000
     37 H5D        6.3861    4.3513   10.9520 H         1 RES1    0.0000
     38 C6D        6.1732    6.1374   10.0111 C.ar      1 RES1    0.0000
     39 C7D        5.2603    7.1875    9.8925 C.ar      1 RES1    0.0000
     40 H6D        5.5603    8.0450    9.6137 H         1 RES1    0.0000
     41 C8D        3.9143    6.9841   10.1796 C.ar      1 RES1    0.0000
     42 H7D        3.3032    7.7044   10.0790 H         1 RES1    0.0000
     43 C9D        4.0436    3.4758   11.6101 C.2       1 RES1    0.0000
     44 O1D        4.4497    2.4233   11.1312 O.2       1 RES1    0.0000
     45 N1D        3.2496    3.4688   12.7050 N.am      1 RES1    0.0000
     46 C10D       2.8171    2.2767   13.4027 C.3       1 RES1    0.0000
     47 H8D        3.4783    2.0401   14.0865 H         1 RES1    0.0000
     48 H9D        1.9511    2.4445   13.8296 H         1 RES1    0.0000
     49 H10D       2.7290    1.5382   12.7644 H         1 RES1    0.0000
     50 O2D        2.9772    4.6782   13.3563 O.3       1 RES1    0.0000
     51 C11D       4.0352    4.9712   14.2845 C.3       1 RES1    0.0000
     52 H11D       4.8847    5.0414   13.8009 H         1 RES1    0.0000
     53 H12D       3.8470    5.8201   14.7368 H         1 RES1    0.0000
     54 H13D       4.0958    4.2527   14.9487 H         1 RES1    0.0000
@<TRIPOS>BOND
     1    1    2 1
     2    3    1 1
     3    4    1 1
     4    5    4 1
     5    6    4 1
     6    7    4 1
     7    8    7 ar
     8    9    8 ar
     9   10    9 1
    10   11    9 ar
    11   12   11 ar
    12   13   12 1
    13   14    7 ar
    14   15   14 1
    15   16    8 1
    16   17   16 2
    17   18   16 1
    18   19   18 1
    19   20   19 1
    20   21   19 1
    21   22   19 1
    22   23   18 1
    23   24   23 1
    24   25   24 1
    25   26   24 1
    26   27   24 1
    27   28   11 1
    28   29   28 1
    29   30   28 1
    30   31   28 1
    31   32   31 1
    32   33   31 1
    33   34   31 1
    34   35   34 ar
    35   36   35 ar
    36   37   36 1
    37   38    1 1
    38   39   38 ar
    39   40   39 1
    40   41   34 ar
    41   42   41 1
    42   43   35 1
    43   44   43 2
    44   45   43 1
    45   46   45 1
    46   47   46 1
    47   48   46 1
    48   49   46 1
    49   50   45 1
    50   51   50 1
    51   52   51 1
    52   53   51 1
    53   54   51 1
    54   12   14 ar
    55   36   38 ar
    56   39   41 ar
@<TRIPOS>SUBSTRUCTURE
     1 RES1 1

@<TRIPOS>CRYSIN
   9.2165   11.2032   17.9629  90.0000  90.0000  90.0000  61 1

