# MOL2 file generated by ConQuest
# Please check atom types

@<TRIPOS>MOLECULE
TENZOD
    14    14     1
SMALL
NO_CHARGES
****
Generated from CSD

@<TRIPOS>ATOM
      1 C1         5.2595    6.5457    0.4872 C.2       1 RES1    0.0000
      2 C2         5.3957    5.7339    1.5939 C.2       1 RES1    0.0000
      3 N1         4.2908    5.0308    1.7530 N.2       1 RES1    0.0000
      4 N2         3.5466    5.4437    0.7533 N.3       1 RES1    0.0000
      5 N3         4.0764    6.3512   -0.0540 N.2       1 RES1    0.0000
      6 N4         6.1112    7.6102   -0.0110 N.pl3     1 RES1    0.0000
      7 O1         6.0213    7.8894   -1.1946 O.2       1 RES1    0.0000
      8 O2         6.8064    8.1660    0.8006 O.2       1 RES1    0.0000
      9 N5         6.5119    5.5280    2.4829 N.pl3     1 RES1    0.0000
     10 O3         6.2625    5.1671    3.6178 O.2       1 RES1    0.0000
     11 O4         7.6204    5.7176    2.0315 O.2       1 RES1    0.0000
     12 N6         2.2800    4.9131    0.5761 N.3       1 RES1    0.0000
     13 H1         2.3017    4.5317   -0.1863 H         1 RES1    0.0000
     14 H2         1.7585    5.5837    0.5063 H         1 RES1    0.0000
@<TRIPOS>BOND
     1    1    2 1
     2    2    3 2
     3    3    4 1
     4    4    5 1
     5    5    1 2
     6    6    1 1
     7    7    6 2
     8    8    6 2
     9    9    2 1
    10   10    9 2
    11   11    9 2
    12   12    4 1
    13   13   12 1
    14   14   12 1
@<TRIPOS>SUBSTRUCTURE
     1 RES1 1

@<TRIPOS>CRYSIN
   8.0440   16.1100    4.9980  90.0000 107.1190  90.0000  14 1

