# MOL2 file generated by ConQuest
# Please check atom types

@<TRIPOS>MOLECULE
TEPDID
    41    44     1
SMALL
NO_CHARGES
****
Generated from CSD

@<TRIPOS>ATOM
      1 N1        -1.6275    2.2309    4.5677 N.pl3     1 RES1    0.0000
      2 O1         4.1222   -1.2302   13.1107 O.2       1 RES1    0.0000
      3 O2         3.3039    1.3198    8.2476 O.3       1 RES1    0.0000
      4 H1         4.0539    1.5643    8.4690 H         1 RES1    0.0000
      5 O3        -1.2069    1.8638    3.4845 O.2       1 RES1    0.0000
      6 O4        -2.6210    2.9117    4.7028 O.2       1 RES1    0.0000
      7 C1         2.6153   -0.1847   11.5084 C.ar      1 RES1    0.0000
      8 C2         3.0226   -0.8333   12.7829 C.2       1 RES1    0.0000
      9 C3         1.8020   -0.9417   13.6532 C.3       1 RES1    0.0000
     10 H2         1.8634   -0.3239   14.3984 H         1 RES1    0.0000
     11 H3         1.7168   -1.8418   14.0041 H         1 RES1    0.0000
     12 C4         0.6114   -0.6006   12.7862 C.3       1 RES1    0.0000
     13 H4         0.0654   -1.3859   12.6217 H         1 RES1    0.0000
     14 H5         0.0642    0.0833   13.2011 H         1 RES1    0.0000
     15 C5         1.2282   -0.0959   11.5101 C.ar      1 RES1    0.0000
     16 C6         0.5610    0.3451   10.3849 C.ar      1 RES1    0.0000
     17 H6        -0.3681    0.3702   10.3805 H         1 RES1    0.0000
     18 C7         1.2654    0.7523    9.2628 C.ar      1 RES1    0.0000
     19 C8         2.6744    0.7609    9.3160 C.ar      1 RES1    0.0000
     20 C9         3.3808    0.2327   10.4047 C.ar      1 RES1    0.0000
     21 C10        4.8693    0.1290   10.3445 C.ar      1 RES1    0.0000
     22 C11        5.4970   -0.4300    9.2422 C.ar      1 RES1    0.0000
     23 H7         4.9838   -0.7256    8.5249 H         1 RES1    0.0000
     24 C12        6.8681   -0.5550    9.1908 C.ar      1 RES1    0.0000
     25 H8         7.2719   -0.9480    8.4503 H         1 RES1    0.0000
     26 C13        7.6422   -0.0983   10.2345 C.ar      1 RES1    0.0000
     27 H9         8.5683   -0.1792   10.1998 H         1 RES1    0.0000
     28 C14        7.0388    0.4748   11.3247 C.ar      1 RES1    0.0000
     29 H10        7.5599    0.7947   12.0266 H         1 RES1    0.0000
     30 C15        5.6680    0.5809   11.3880 C.ar      1 RES1    0.0000
     31 H11        5.2708    0.9598   12.1385 H         1 RES1    0.0000
     32 C16        0.5313    1.1469    8.0328 C.ar      1 RES1    0.0000
     33 C17       -0.6361    1.8882    8.1235 C.ar      1 RES1    0.0000
     34 H12       -0.9353    2.1696    8.9580 H         1 RES1    0.0000
     35 C18       -1.3590    2.2152    6.9985 C.ar      1 RES1    0.0000
     36 H13       -2.1451    2.7065    7.0694 H         1 RES1    0.0000
     37 C19       -0.9054    1.8088    5.7784 C.ar      1 RES1    0.0000
     38 C20        0.2282    1.0573    5.6452 C.ar      1 RES1    0.0000
     39 H14        0.5130    0.7751    4.8066 H         1 RES1    0.0000
     40 C21        0.9413    0.7256    6.7762 C.ar      1 RES1    0.0000
     41 H15        1.7112    0.2107    6.6952 H         1 RES1    0.0000
@<TRIPOS>BOND
     1    1    5 2
     2    2    8 2
     3    3    4 1
     4    6    1 2
     5    7    8 1
     6    8    9 1
     7    9   10 1
     8   11    9 1
     9   12    9 1
    10   13   12 1
    11   14   12 1
    12   15    7 ar
    13   16   15 ar
    14   17   16 1
    15   18   16 ar
    16   19    3 1
    17   20    7 ar
    18   21   20 1
    19   22   21 ar
    20   23   22 1
    21   24   22 ar
    22   25   24 1
    23   26   24 ar
    24   27   26 1
    25   28   26 ar
    26   29   28 1
    27   30   21 ar
    28   31   30 1
    29   32   18 1
    30   33   32 ar
    31   34   33 1
    32   35   33 ar
    33   36   35 1
    34   37    1 1
    35   38   37 ar
    36   39   38 1
    37   40   32 ar
    38   41   40 1
    39   12   15 1
    40   18   19 ar
    41   19   20 ar
    42   28   30 ar
    43   35   37 ar
    44   38   40 ar
@<TRIPOS>SUBSTRUCTURE
     1 RES1 1

@<TRIPOS>CRYSIN
  14.5884    7.8609   14.6943  90.0000 102.6140  90.0000  14 1

