# MOL2 file generated by ConQuest
# Please check atom types

@<TRIPOS>MOLECULE
TEQZEU
    39    41     1
SMALL
NO_CHARGES
****
Generated from CSD

@<TRIPOS>ATOM
      1 N1         4.2192    2.0161    3.1482 N.3       1 RES1    0.0000
      2 N2         3.4522    2.0128    4.2832 N.2       1 RES1    0.0000
      3 C1         2.2611    1.5709    3.9523 C.2       1 RES1    0.0000
      4 C2         2.2027    1.2609    2.5578 C.ar      1 RES1    0.0000
      5 C3         1.3145    0.7178    1.6124 C.ar      1 RES1    0.0000
      6 N3         1.7150    0.6321    0.3268 N.ar      1 RES1    0.0000
      7 C4         2.9683    1.0125    0.0336 C.ar      1 RES1    0.0000
      8 N4         3.9216    1.4500    0.8217 N.ar      1 RES1    0.0000
      9 C5         3.4739    1.5665    2.0952 C.ar      1 RES1    0.0000
     10 C6         5.6003    2.5504    3.1603 C.3       1 RES1    0.0000
     11 C7         5.6701    3.7453    2.2229 C.3       1 RES1    0.0000
     12 C8         6.5345    1.4610    2.6734 C.3       1 RES1    0.0000
     13 C9         5.9572    2.9813    4.5709 C.3       1 RES1    0.0000
     14 C10        1.2417    1.4852    5.0188 C.ar      1 RES1    0.0000
     15 C11        1.6520    1.0476    6.2829 C.ar      1 RES1    0.0000
     16 C12        0.7775    1.0454    7.3358 C.ar      1 RES1    0.0000
     17 C13       -0.4960    1.4720    7.1314 C.ar      1 RES1    0.0000
     18 C14       -0.9539    1.9062    5.9009 C.ar      1 RES1    0.0000
     19 C15       -0.0565    1.9029    4.8439 C.ar      1 RES1    0.0000
     20 N5        -1.4334    1.4610    8.2651 N.pl3     1 RES1    0.0000
     21 O1        -1.0137    1.0476    9.3490 O.2       1 RES1    0.0000
     22 O2        -2.5555    1.8512    8.0903 O.2       1 RES1    0.0000
     23 N6         0.0907    0.2814    1.8948 N.3       1 RES1    0.0000
     24 H1         3.2031    0.9520   -0.8956 H         1 RES1    0.0000
     25 H2         5.4519    3.4716    1.3300 H         1 RES1    0.0000
     26 H3         5.0395    4.4060    2.5188 H         1 RES1    0.0000
     27 H4         6.5543    4.1191    2.2364 H         1 RES1    0.0000
     28 H5         6.4849    0.7112    3.2705 H         1 RES1    0.0000
     29 H6         6.2710    1.1861    1.7913 H         1 RES1    0.0000
     30 H7         7.4355    1.7919    2.6492 H         1 RES1    0.0000
     31 H8         5.9217    2.2206    5.1546 H         1 RES1    0.0000
     32 H9         6.8414    3.3551    4.5844 H         1 RES1    0.0000
     33 H10        5.3255    3.6420    4.8668 H         1 RES1    0.0000
     34 H11        2.5538    0.7398    6.4026 H         1 RES1    0.0000
     35 H12        1.0463    0.7453    8.2073 H         1 RES1    0.0000
     36 H13       -1.8620    2.1953    5.7920 H         1 RES1    0.0000
     37 H14       -0.3358    2.1931    3.9725 H         1 RES1    0.0000
     38 H15       -0.5185   -0.0682    1.2412 H         1 RES1    0.0000
     39 H16       -0.2551    0.0868    2.7649 H         1 RES1    0.0000
@<TRIPOS>BOND
     1    1    2 1
     2    2    3 2
     3    3    4 1
     4    4    5 ar
     5    5    6 ar
     6    6    7 ar
     7    7    8 ar
     8    8    9 ar
     9    9    1 1
    10   10    1 1
    11   11   10 1
    12   12   10 1
    13   13   10 1
    14   14    3 1
    15   15   14 ar
    16   16   15 ar
    17   17   16 ar
    18   18   17 ar
    19   19   14 ar
    20   20   17 1
    21   21   20 2
    22   22   20 2
    23   23    5 1
    24   24    7 1
    25   25   11 1
    26   26   11 1
    27   27   11 1
    28   28   12 1
    29   29   12 1
    30   30   12 1
    31   31   13 1
    32   32   13 1
    33   33   13 1
    34   34   15 1
    35   35   16 1
    36   36   18 1
    37   37   19 1
    38   38   23 1
    39   39   23 1
    40    4    9 ar
    41   18   19 ar
@<TRIPOS>SUBSTRUCTURE
     1 RES1 1

@<TRIPOS>CRYSIN
  10.5450   10.9930   13.6950  90.0000 100.9000  90.0000  14 1

