# MOL2 file generated by ConQuest
# Please check atom types

@<TRIPOS>MOLECULE
TERDID
    40    43     1
SMALL
NO_CHARGES
****
Generated from CSD

@<TRIPOS>ATOM
      1 O1        -0.4118   12.4964   12.4772 O.2       1 RES1    0.0000
      2 O2        -0.4148   11.2464   10.6048 O.3       1 RES1    0.0000
      3 N1         0.0698    7.9438   11.6613 N.pl3     1 RES1    0.0000
      4 N2        -0.0359    6.6711   11.1371 N.2       1 RES1    0.0000
      5 N3         0.0843    5.8192   12.0960 N.2       1 RES1    0.0000
      6 N4        -0.2842   10.1510   11.5020 N.2       1 RES1    0.0000
      7 C1        -0.1339    9.0681   10.8256 C.2       1 RES1    0.0000
      8 C2        -0.4618   12.4242   11.2905 C.2       1 RES1    0.0000
      9 C3         0.2470    6.5081   13.2827 C.ar      1 RES1    0.0000
     10 C4         0.3842    6.0089   14.5740 C.ar      1 RES1    0.0000
     11 C5         0.5444    6.9331   15.5794 C.ar      1 RES1    0.0000
     12 C6         0.5416    8.3048   15.3085 C.ar      1 RES1    0.0000
     13 C7         0.3975    8.8123   14.0417 C.ar      1 RES1    0.0000
     14 C8         0.2332    7.8737   13.0270 C.ar      1 RES1    0.0000
     15 C9        -0.1462    8.8721    9.3623 C.ar      1 RES1    0.0000
     16 C10        0.9325    8.2863    8.7300 C.ar      1 RES1    0.0000
     17 C11        0.9253    8.1419    7.3527 C.ar      1 RES1    0.0000
     18 C12       -0.1343    8.5771    6.6146 C.ar      1 RES1    0.0000
     19 C13       -1.2224    9.1506    7.2481 C.ar      1 RES1    0.0000
     20 C14       -1.2324    9.3094    8.6312 C.ar      1 RES1    0.0000
     21 C15       -0.5917   13.5691   10.3595 C.ar      1 RES1    0.0000
     22 C16       -0.8307   13.4226    9.0043 C.ar      1 RES1    0.0000
     23 C17       -0.9577   14.5510    8.2104 C.ar      1 RES1    0.0000
     24 C18       -0.8104   15.8031    8.7509 C.ar      1 RES1    0.0000
     25 C19       -0.5517   15.9516   10.0980 C.ar      1 RES1    0.0000
     26 C20       -0.4465   14.8336   10.9046 C.ar      1 RES1    0.0000
     27 H1         0.3616    5.0332   14.8076 H         1 RES1    0.0000
     28 H2         0.7345    6.6422   16.5162 H         1 RES1    0.0000
     29 H3         0.9360    8.9526   16.0745 H         1 RES1    0.0000
     30 H4         0.4262    9.7777   13.8429 H         1 RES1    0.0000
     31 H5         1.5677    7.9830    9.2170 H         1 RES1    0.0000
     32 H6         1.5696    7.8180    6.9156 H         1 RES1    0.0000
     33 H7        -0.1290    8.4781    5.5093 H         1 RES1    0.0000
     34 H8        -1.9301    9.5301    6.7064 H         1 RES1    0.0000
     35 H9        -2.0173    9.7158    9.0543 H         1 RES1    0.0000
     36 H10       -0.9438   12.5006    8.5777 H         1 RES1    0.0000
     37 H11       -1.1293   14.4602    7.2178 H         1 RES1    0.0000
     38 H12       -0.8457   16.7706    8.2058 H         1 RES1    0.0000
     39 H13       -0.3217   17.0387   10.4374 H         1 RES1    0.0000
     40 H14       -0.2196   14.8522   11.8321 H         1 RES1    0.0000
@<TRIPOS>BOND
     1    1    8 2
     2    2    6 1
     3    3    4 1
     4    4    5 2
     5    5    9 1
     6    6    7 2
     7    7    3 1
     8    8    2 1
     9    9   10 ar
    10   10   11 ar
    11   11   12 ar
    12   12   13 ar
    13   13   14 ar
    14   14    3 1
    15   15    7 1
    16   16   15 ar
    17   17   16 ar
    18   18   17 ar
    19   19   18 ar
    20   20   15 ar
    21   21    8 1
    22   22   21 ar
    23   23   22 ar
    24   24   23 ar
    25   25   24 ar
    26   26   21 ar
    27   27   10 1
    28   28   11 1
    29   29   12 1
    30   30   13 1
    31   31   16 1
    32   32   17 1
    33   33   18 1
    34   34   19 1
    35   35   20 1
    36   36   22 1
    37   37   23 1
    38   38   24 1
    39   39   25 1
    40   40   26 1
    41    9   14 ar
    42   19   20 ar
    43   25   26 ar
@<TRIPOS>SUBSTRUCTURE
     1 RES1 1

@<TRIPOS>CRYSIN
   7.0420   20.6280   11.7880  90.0000  99.6000  90.0000  14 1

