# MOL2 file generated by ConQuest
# Please check atom types

@<TRIPOS>MOLECULE
TERKOR
    35    36     1
SMALL
NO_CHARGES
****
Generated from CSD

@<TRIPOS>ATOM
      1 N1         0.8129    4.5843    0.6261 N.2       1 RES1    0.0000
      2 C1         1.8326    3.9080    2.6252 C.2       1 RES1    0.0000
      3 O1         0.4517    4.2314   -0.6848 O.3       1 RES1    0.0000
      4 H1         0.0877    4.8694   -1.0495 H         1 RES1    0.0000
      5 C2         1.6637    5.2992    3.1474 C.ar      1 RES1    0.0000
      6 C3         1.3920    3.6263    1.2477 C.2       1 RES1    0.0000
      7 C4         0.8426    5.5526    4.2341 C.ar      1 RES1    0.0000
      8 H2         0.3774    4.8524    4.6318 H         1 RES1    0.0000
      9 C5         2.3402    2.9058    3.3820 C.2       1 RES1    0.0000
     10 C6         2.8623    3.1003    4.7662 C.2       1 RES1    0.0000
     11 C7         2.3393    6.3704    2.5724 C.ar      1 RES1    0.0000
     12 H3         2.8832    6.2278    1.8314 H         1 RES1    0.0000
     13 O2         2.6433    2.2464    5.5967 O.2       1 RES1    0.0000
     14 C8         2.3864    1.4750    2.8954 C.3       1 RES1    0.0000
     15 H4         3.2931    1.2646    2.6225 H         1 RES1    0.0000
     16 H5         2.1541    0.8857    3.6298 H         1 RES1    0.0000
     17 C9         0.7087    6.8386    4.7347 C.ar      1 RES1    0.0000
     18 H6         0.1507    6.9902    5.4638 H         1 RES1    0.0000
     19 C10        2.2098    7.6406    3.0866 C.ar      1 RES1    0.0000
     20 H7         2.6841    8.3396    2.6976 H         1 RES1    0.0000
     21 C11        1.6104    2.2611    0.6711 C.3       1 RES1    0.0000
     22 H8         2.4987    2.2102    0.2835 H         1 RES1    0.0000
     23 H9         0.9635    2.0982   -0.0330 H         1 RES1    0.0000
     24 C12        1.3911    7.8985    4.1664 C.ar      1 RES1    0.0000
     25 C13        3.7701    4.2428    5.1105 C.3       1 RES1    0.0000
     26 H10        3.9918    4.2054    6.0439 H         1 RES1    0.0000
     27 H11        3.3272    5.0730    4.9193 H         1 RES1    0.0000
     28 H12        4.5732    4.1817    4.5883 H         1 RES1    0.0000
     29 C14        1.4646    1.2091    1.7509 C.3       1 RES1    0.0000
     30 H13        0.5488    1.2012    2.0700 H         1 RES1    0.0000
     31 H14        1.6584    0.3348    1.3778 H         1 RES1    0.0000
     32 C15        1.2337    9.3010    4.7202 C.3       1 RES1    0.0000
     33 H15        0.6235    9.2863    5.4612 H         1 RES1    0.0000
     34 H16        0.8909    9.8802    4.0359 H         1 RES1    0.0000
     35 H17        2.0876    9.6268    5.0155 H         1 RES1    0.0000
@<TRIPOS>BOND
     1    1    3 1
     2    2    5 1
     3    3    4 1
     4    5    7 ar
     5    6    1 2
     6    7    8 1
     7    9    2 2
     8   10    9 1
     9   11    5 ar
    10   12   11 1
    11   13   10 2
    12   14    9 1
    13   15   14 1
    14   16   14 1
    15   17    7 ar
    16   18   17 1
    17   19   11 ar
    18   20   19 1
    19   21    6 1
    20   22   21 1
    21   23   21 1
    22   24   17 ar
    23   25   10 1
    24   26   25 1
    25   27   25 1
    26   28   25 1
    27   29   14 1
    28   30   29 1
    29   31   29 1
    30   32   24 1
    31   33   32 1
    32   34   32 1
    33   35   32 1
    34    2    6 1
    35   19   24 ar
    36   21   29 1
@<TRIPOS>SUBSTRUCTURE
     1 RES1 1

@<TRIPOS>CRYSIN
   9.2050   11.3110   13.4890  90.0000 102.1900  90.0000  14 2

