# MOL2 file generated by ConQuest
# Please check atom types

@<TRIPOS>MOLECULE
TERMUZ
    18    18     1
SMALL
NO_CHARGES
****
Generated from CSD

@<TRIPOS>ATOM
      1 C1        -1.0111    1.5718    0.9909 C.ar      1 RES1    0.0000
      2 C2        -1.5969    1.6797    2.2482 C.ar      1 RES1    0.0000
      3 H1        -2.5470    1.6454    2.3279 H         1 RES1    0.0000
      4 C3        -0.7763    1.8839    3.3478 C.ar      1 RES1    0.0000
      5 C4         0.6047    2.0083    3.2538 C.ar      1 RES1    0.0000
      6 H2         1.1905    2.1173    4.0394 H         1 RES1    0.0000
      7 C5         1.1427    1.9028    1.9774 C.ar      1 RES1    0.0000
      8 C6         0.3793    1.6840    0.8429 C.ar      1 RES1    0.0000
      9 H3         0.7873    1.6019   -0.0120 H         1 RES1    0.0000
     10 C7        -1.8701    1.3443   -0.2011 C.2       1 RES1    0.0000
     11 H4        -2.8202    1.2729   -0.0479 H         1 RES1    0.0000
     12 O1        -1.4273    1.2717   -1.3234 O.2       1 RES1    0.0000
     13 N1        -1.3918    2.0025    4.6766 N.pl3     1 RES1    0.0000
     14 O2        -0.7259    2.4980    5.5779 O.2       1 RES1    0.0000
     15 O3        -2.5550    1.6209    4.7996 O.2       1 RES1    0.0000
     16 N2         2.5991    2.0540    1.8296 N.pl3     1 RES1    0.0000
     17 O4         3.2716    2.2101    2.8445 O.2       1 RES1    0.0000
     18 O5         3.0596    2.0313    0.6930 O.2       1 RES1    0.0000
@<TRIPOS>BOND
     1    1    2 ar
     2    2    3 1
     3    4    2 ar
     4    5    4 ar
     5    6    5 1
     6    7    5 ar
     7    8    1 ar
     8    9    8 1
     9   10    1 1
    10   11   10 1
    11   12   10 2
    12   13    4 1
    13   14   13 2
    14   15   13 2
    15   16    7 1
    16   17   16 2
    17   18   16 2
    18    7    8 ar
@<TRIPOS>SUBSTRUCTURE
     1 RES1 1

@<TRIPOS>CRYSIN
   8.2791    6.2091   14.9903  90.0000  93.5895  90.0000 231 1

