# MOL2 file generated by ConQuest
# Please check atom types

@<TRIPOS>MOLECULE
TERVEU
    48    47     2
SMALL
NO_CHARGES
****
Generated from CSD

@<TRIPOS>ATOM
      1 C1         2.2449    9.0249    6.8078 C.ar      1 RES1    0.0000
      2 C2         3.0866    8.0772    6.2579 C.ar      1 RES1    0.0000
      3 H1         3.5340    7.4833    6.8166 H         1 RES1    0.0000
      4 C3         3.2734    7.9999    4.8916 C.ar      1 RES1    0.0000
      5 C4         2.5644    8.8930    4.1110 C.ar      1 RES1    0.0000
      6 H2         2.6706    8.8621    3.1869 H         1 RES1    0.0000
      7 C5         1.7023    9.8320    4.6486 C.ar      1 RES1    0.0000
      8 H3         1.2389   10.4096    4.0856 H         1 RES1    0.0000
      9 C6         1.5243    9.9185    6.0209 C.ar      1 RES1    0.0000
     10 C7        -0.8039   12.6076    6.8005 C.3       1 RES1    0.0000
     11 H4        -1.4264   12.0351    7.2739 H         1 RES1    0.0000
     12 H5        -1.3222   13.2464    6.2876 H         1 RES1    0.0000
     13 C8         4.1976    6.9722    4.2854 C.3       1 RES1    0.0000
     14 H6         4.9290    6.8069    4.8848 H         1 RES1    0.0000
     15 H7         4.5369    7.3002    3.4499 H         1 RES1    0.0000
     16 H8         3.7150    6.1564    4.1367 H         1 RES1    0.0000
     17 C9         0.0095   11.7685    5.8563 C.3       1 RES1    0.0000
     18 H9        -0.5686   11.3301    5.2121 H         1 RES1    0.0000
     19 H10        0.6429   12.3220    5.3743 H         1 RES1    0.0000
     20 O1         0.7025   10.7936    6.6493 O.3       1 RES1    0.0000
     21 N1         2.1443    9.0832    8.2689 N.pl3     1 RES1    0.0000
     22 O2         2.1650    8.0948    8.9280 O.2       1 RES1    0.0000
     23 O3         2.1727   10.2024    8.8360 O.2       1 RES1    0.0000
     24 O4         3.0807    8.7076    8.8520 Du        2 SUP2    0.0000
     25 O5         0.9089    8.9270    8.6475 Du        2 SUP2    0.0000
     26 C1B       -3.0071   16.9407    7.8043 C.ar      1 RES1    0.0000
     27 C2B       -3.8488   17.8884    8.3542 C.ar      1 RES1    0.0000
     28 H1B       -4.2962   18.4823    7.7956 H         1 RES1    0.0000
     29 C3B       -4.0356   17.9657    9.7206 C.ar      1 RES1    0.0000
     30 C4B       -3.3266   17.0726   10.5012 C.ar      1 RES1    0.0000
     31 H2B       -3.4328   17.1035   11.4252 H         1 RES1    0.0000
     32 C5B       -2.4645   16.1336    9.9636 C.ar      1 RES1    0.0000
     33 H3B       -2.0011   15.5560   10.5266 H         1 RES1    0.0000
     34 C6B       -2.2865   16.0471    8.5912 C.ar      1 RES1    0.0000
     35 C7B        0.0417   13.3580    7.8116 C.3       1 RES1    0.0000
     36 H4B        0.6641   13.9305    7.3382 H         1 RES1    0.0000
     37 H5B        0.5600   12.7192    8.3245 H         1 RES1    0.0000
     38 C8B       -4.9598   18.9934   10.3267 C.3       1 RES1    0.0000
     39 H6B       -5.6912   19.1587    9.7273 H         1 RES1    0.0000
     40 H7B       -5.2992   18.6654   11.1622 H         1 RES1    0.0000
     41 H8B       -4.4772   19.8092   10.4754 H         1 RES1    0.0000
     42 C9B       -0.7717   14.1971    8.7559 C.3       1 RES1    0.0000
     43 H9B       -0.1936   14.6355    9.4000 H         1 RES1    0.0000
     44 H10B      -1.4051   13.6436    9.2378 H         1 RES1    0.0000
     45 O1B       -1.4647   15.1720    7.9629 O.3       1 RES1    0.0000
     46 N1B       -2.9065   16.8824    6.3433 N.pl3     1 RES1    0.0000
     47 O2B       -2.9272   17.8708    5.6841 O.2       1 RES1    0.0000
     48 O3B       -2.9349   15.7632    5.7762 O.2       1 RES1    0.0000
@<TRIPOS>BOND
     1    1    2 ar
     2    2    3 1
     3    4    2 ar
     4    5    4 ar
     5    6    5 1
     6    7    5 ar
     7    8    7 1
     8    9    1 ar
     9   10   11 1
    10   12   10 1
    11   13    4 1
    12   14   13 1
    13   15   13 1
    14   16   13 1
    15   17   10 1
    16   18   17 1
    17   19   17 1
    18   20    9 1
    19   21    1 1
    20   22   21 2
    21   23   21 2
    22   26   27 ar
    23   27   28 1
    24   29   27 ar
    25   30   29 ar
    26   31   30 1
    27   32   30 ar
    28   33   32 1
    29   34   26 ar
    30   35   10 1
    31   36   35 1
    32   37   35 1
    33   38   29 1
    34   39   38 1
    35   40   38 1
    36   41   38 1
    37   42   35 1
    38   43   42 1
    39   44   42 1
    40   45   34 1
    41   46   26 1
    42   47   46 2
    43   48   46 2
    44    7    9 ar
    45   17   20 1
    46   32   34 ar
    47   42   45 1
@<TRIPOS>SUBSTRUCTURE
     1 RES1 1
     2 SUP2 24

@<TRIPOS>CRYSIN
   4.7936   12.9828   14.6320  90.0000  92.9860  90.0000 231 1

