# MOL2 file generated by ConQuest
# Please check atom types

@<TRIPOS>MOLECULE
TERWIW
    56    57     1
SMALL
NO_CHARGES
****
Generated from CSD

@<TRIPOS>ATOM
      1 O1        -3.5022   -0.1554   -1.6793 O.3       1 RES1    0.0000
      2 O2        -3.3569   -2.9780   -1.1995 O.3       1 RES1    0.0000
      3 O3        -1.1183   -2.8957   -1.0725 O.2       1 RES1    0.0000
      4 O4        -3.1522   -3.4501    1.6687 O.3       1 RES1    0.0000
      5 O5        -4.2951   -5.3289    1.1836 O.2       1 RES1    0.0000
      6 O6        -5.4630   -2.2000    3.0089 O.3       1 RES1    0.0000
      7 O7        -3.9791   -1.8538    4.6592 O.2       1 RES1    0.0000
      8 O8        -4.5429    0.0875    0.3392 O.3       1 RES1    0.0000
      9 O9        -6.6872    1.4866    1.3624 O.3       1 RES1    0.0000
     10 O10       -8.2218    1.7200    2.9548 O.2       1 RES1    0.0000
     11 O11       -4.9932    4.0963   -5.9984 O.2       1 RES1    0.0000
     12 O12       -6.6100    4.4258   -4.6119 O.2       1 RES1    0.0000
     13 N1        -5.6003    3.8425   -4.9607 N.pl3     1 RES1    0.0000
     14 C1        -4.2997   -0.8158   -0.7256 C.3       1 RES1    0.0000
     15 H1        -5.1511   -1.0884   -1.1460 H         1 RES1    0.0000
     16 C2        -3.4859   -1.9768   -0.1768 C.3       1 RES1    0.0000
     17 H2        -2.6157   -1.6581    0.0029 H         1 RES1    0.0000
     18 C3        -4.1470   -2.6165    1.0348 C.3       1 RES1    0.0000
     19 H3        -4.9095   -3.1690    0.7856 H         1 RES1    0.0000
     20 C4        -4.6036   -1.5685    2.0417 C.3       1 RES1    0.0000
     21 H4        -3.8661   -1.1545    2.4803 H         1 RES1    0.0000
     22 C5        -5.4106   -0.4998    1.3160 C.3       1 RES1    0.0000
     23 H5        -6.1847   -0.8579    0.8696 H         1 RES1    0.0000
     24 C6        -5.9081    0.6007    2.2001 C.3       1 RES1    0.0000
     25 H6        -5.1885    1.0862    2.5673 H         1 RES1    0.0000
     26 H7        -6.4394    0.2497    2.9171 H         1 RES1    0.0000
     27 C7        -4.1067    0.8118   -2.4620 C.ar      1 RES1    0.0000
     28 C8        -3.3941    1.1677   -3.5973 C.ar      1 RES1    0.0000
     29 H8        -2.6114    0.7085   -3.8476 H         1 RES1    0.0000
     30 C9        -3.8867    2.1722   -4.4263 C.ar      1 RES1    0.0000
     31 H9        -3.3824    2.3752   -5.2032 H         1 RES1    0.0000
     32 C10       -5.0802    2.7693   -4.1007 C.ar      1 RES1    0.0000
     33 C11       -5.7960    2.4277   -2.9780 C.ar      1 RES1    0.0000
     34 H10       -6.6434    2.8596   -2.7335 H         1 RES1    0.0000
     35 C12       -5.3098    1.4287   -2.1402 C.ar      1 RES1    0.0000
     36 H11       -5.7659    1.2079   -1.3595 H         1 RES1    0.0000
     37 C13       -2.1103   -3.3613   -1.5614 C.2       1 RES1    0.0000
     38 C14       -2.1529   -4.3982   -2.6262 C.3       1 RES1    0.0000
     39 H12       -2.2321   -3.9202   -3.4630 H         1 RES1    0.0000
     40 H13       -2.9819   -4.9723   -2.4803 H         1 RES1    0.0000
     41 H14       -1.2795   -4.8101   -2.6620 H         1 RES1    0.0000
     42 C15       -3.3261   -4.7853    1.6532 C.2       1 RES1    0.0000
     43 C16       -2.1730   -5.4802    2.2968 C.3       1 RES1    0.0000
     44 H15       -1.2652   -5.2284    1.9702 H         1 RES1    0.0000
     45 H16       -2.2548   -5.4354    3.2562 H         1 RES1    0.0000
     46 H17       -2.2975   -6.4618    2.1451 H         1 RES1    0.0000
     47 C17       -5.0513   -2.2392    4.3007 C.2       1 RES1    0.0000
     48 C18       -6.1103   -2.8276    5.1704 C.3       1 RES1    0.0000
     49 H18       -5.8649   -2.6441    6.1028 H         1 RES1    0.0000
     50 H19       -6.0955   -3.7986    5.0129 H         1 RES1    0.0000
     51 H20       -6.9687   -2.5779    4.8969 H         1 RES1    0.0000
     52 C19       -7.8173    1.9851    1.8668 C.2       1 RES1    0.0000
     53 C20       -8.4812    2.8980    0.8889 C.3       1 RES1    0.0000
     54 H21       -9.3472    3.2736    1.2580 H         1 RES1    0.0000
     55 H22       -7.8042    3.5702    0.5459 H         1 RES1    0.0000
     56 H23       -8.6351    2.4797    0.0870 H         1 RES1    0.0000
@<TRIPOS>BOND
     1    1   14 1
     2    2   16 1
     3    3   37 2
     4    4   18 1
     5    5   42 2
     6    6   20 1
     7    7   47 2
     8    8   14 1
     9    9   24 1
    10   10   52 2
    11   11   13 2
    12   12   13 2
    13   13   32 1
    14   14   15 1
    15   16   14 1
    16   17   16 1
    17   18   16 1
    18   19   18 1
    19   20   18 1
    20   21   20 1
    21   22    8 1
    22   23   22 1
    23   24   22 1
    24   25   24 1
    25   26   24 1
    26   27    1 1
    27   28   27 ar
    28   29   28 1
    29   30   28 ar
    30   31   30 1
    31   32   30 ar
    32   33   32 ar
    33   34   33 1
    34   35   27 ar
    35   36   35 1
    36   37    2 1
    37   38   37 1
    38   39   38 1
    39   40   38 1
    40   41   38 1
    41   42    4 1
    42   43   42 1
    43   44   43 1
    44   45   43 1
    45   46   43 1
    46   47    6 1
    47   48   47 1
    48   49   48 1
    49   50   48 1
    50   51   48 1
    51   52    9 1
    52   53   52 1
    53   54   53 1
    54   55   53 1
    55   56   53 1
    56   20   22 1
    57   33   35 ar
@<TRIPOS>SUBSTRUCTURE
     1 RES1 1

@<TRIPOS>CRYSIN
   5.5920   21.3403    9.7192  90.0000  96.1970  90.0000   4 1

