# MOL2 file generated by ConQuest
# Please check atom types

@<TRIPOS>MOLECULE
TESBEB
    47    50     1
SMALL
NO_CHARGES
****
Generated from CSD

@<TRIPOS>ATOM
      1 C1         4.7948    1.2598    1.5432 C.3       1 RES1    0.0000
      2 H1         3.9667    0.9124    1.8441 H         1 RES1    0.0000
      3 H2         5.4219    1.1265    2.2443 H         1 RES1    0.0000
      4 H3         5.1113    0.7390    0.7727 H         1 RES1    0.0000
      5 N1         4.7006    2.6686    1.1979 N.pl3     1 RES1    0.0000
      6 C2         4.8988    3.7177    2.0855 C.2       1 RES1    0.0000
      7 H4         5.1684    3.5207    2.9956 H         1 RES1    0.0000
      8 C3         4.6799    4.9084    1.4454 C.2       1 RES1    0.0000
      9 C4         4.7998    6.3500    1.8427 C.3       1 RES1    0.0000
     10 H5         5.7173    6.6628    1.6552 H         1 RES1    0.0000
     11 C5         4.4698    6.6576    3.2940 C.ar      1 RES1    0.0000
     12 C6         3.5032    5.9388    3.9959 C.ar      1 RES1    0.0000
     13 H6         3.0753    5.1678    3.5837 H         1 RES1    0.0000
     14 C7         3.1499    6.2941    5.2943 C.ar      1 RES1    0.0000
     15 H7         2.4628    5.7824    5.7629 H         1 RES1    0.0000
     16 C8         3.7630    7.3806    5.9096 C.ar      1 RES1    0.0000
     17 H8         3.4915    7.6299    6.8205 H         1 RES1    0.0000
     18 C9         4.7421    8.0874    5.2286 C.ar      1 RES1    0.0000
     19 H9         5.1813    8.8470    5.6583 H         1 RES1    0.0000
     20 C10        5.0982    7.7279    3.9304 C.ar      1 RES1    0.0000
     21 H10        5.7901    8.2217    3.4417 H         1 RES1    0.0000
     22 C11        3.8520    7.1437    0.8878 C.3       1 RES1    0.0000
     23 H11        2.9246    6.9705    1.1302 H         1 RES1    0.0000
     24 N2         4.0571    8.6137    1.1863 N.pl3     1 RES1    0.0000
     25 O1         5.1444    9.1072    0.8948 O.2       1 RES1    0.0000
     26 O2         3.1486    9.2294    1.7225 O.2       1 RES1    0.0000
     27 C12        4.0682    6.9295   -0.6323 C.3       1 RES1    0.0000
     28 H12        4.9670    7.2532   -0.8612 H         1 RES1    0.0000
     29 C13        3.0279    7.7480   -1.4084 C.3       1 RES1    0.0000
     30 H13        2.1358    7.3398   -1.3191 H         1 RES1    0.0000
     31 H14        2.9615    8.6661   -1.0683 H         1 RES1    0.0000
     32 C14        3.3401    7.9191   -2.8731 C.2       1 RES1    0.0000
     33 O3         4.4310    7.8647   -3.3765 O.2       1 RES1    0.0000
     34 O4         2.2129    8.1724   -3.5552 O.3       1 RES1    0.0000
     35 C15        2.3711    8.3993   -4.9781 C.3       1 RES1    0.0000
     36 H15        3.0868    9.0919   -5.1418 H         1 RES1    0.0000
     37 H16        1.5050    8.7315   -5.2922 H         1 RES1    0.0000
     38 H17        2.6108    7.5480   -5.4203 H         1 RES1    0.0000
     39 C16        4.0045    5.4418   -0.9385 C.ar      1 RES1    0.0000
     40 C17        3.6827    4.8498   -2.1491 C.ar      1 RES1    0.0000
     41 H18        3.4494    5.3883   -2.9444 H         1 RES1    0.0000
     42 C18        3.6861    3.4428   -2.2895 C.ar      1 RES1    0.0000
     43 H19        3.4307    3.0611   -3.1589 H         1 RES1    0.0000
     44 C19        4.0083    2.5858   -1.2480 C.ar      1 RES1    0.0000
     45 H20        3.9998    1.6181   -1.3692 H         1 RES1    0.0000
     46 C20        4.3391    3.1810   -0.0259 C.ar      1 RES1    0.0000
     47 C21        4.3241    4.5809    0.1124 C.ar      1 RES1    0.0000
@<TRIPOS>BOND
     1    1    2 1
     2    3    1 1
     3    4    1 1
     4    5    1 1
     5    6    5 1
     6    7    6 1
     7    8    6 2
     8    9    8 1
     9   10    9 1
    10   11    9 1
    11   12   11 ar
    12   13   12 1
    13   14   12 ar
    14   15   14 1
    15   16   14 ar
    16   17   16 1
    17   18   16 ar
    18   19   18 1
    19   20   11 ar
    20   21   20 1
    21   22    9 1
    22   23   22 1
    23   24   22 1
    24   25   24 2
    25   26   24 2
    26   27   22 1
    27   28   27 1
    28   29   27 1
    29   30   29 1
    30   31   29 1
    31   32   29 1
    32   33   32 2
    33   34   32 1
    34   35   34 1
    35   36   35 1
    36   37   35 1
    37   38   35 1
    38   39   27 1
    39   40   39 ar
    40   41   40 1
    41   42   40 ar
    42   43   42 1
    43   44   42 ar
    44   45   44 1
    45   46    5 1
    46   47    8 1
    47   18   20 ar
    48   39   47 ar
    49   44   46 ar
    50   46   47 ar
@<TRIPOS>SUBSTRUCTURE
     1 RES1 1

@<TRIPOS>CRYSIN
   8.1347   10.9542   11.6999  99.3403 106.9350 111.3830   2 1

