# MOL2 file generated by ConQuest
# Please check atom types

@<TRIPOS>MOLECULE
TESBIF
    47    50     1
SMALL
NO_CHARGES
****
Generated from CSD

@<TRIPOS>ATOM
      1 C1         8.7001   13.7037    8.5107 C.ar      1 RES1    0.0000
      2 C2         9.1396   14.6302    7.5550 C.ar      1 RES1    0.0000
      3 H1         9.7481   15.3252    7.7767 H         1 RES1    0.0000
      4 C3         8.6419   14.4824    6.2695 C.ar      1 RES1    0.0000
      5 H2         8.9203   15.0987    5.6021 H         1 RES1    0.0000
      6 C4         7.7389   13.4564    5.9042 C.ar      1 RES1    0.0000
      7 H3         7.4297   13.3951    5.0081 H         1 RES1    0.0000
      8 C5         7.3026   12.5396    6.8500 C.ar      1 RES1    0.0000
      9 C6         7.8063   12.6850    8.1456 C.ar      1 RES1    0.0000
     10 N1         8.9724   13.5281    9.8523 N.pl3     1 RES1    0.0000
     11 C7         9.8530   14.3444   10.6705 C.3       1 RES1    0.0000
     12 H4        10.7742   14.0217   10.5802 H         1 RES1    0.0000
     13 H5         9.5759   14.2840   11.6085 H         1 RES1    0.0000
     14 H6         9.8023   15.2768   10.3741 H         1 RES1    0.0000
     15 C8         8.2940   12.4093   10.3032 C.2       1 RES1    0.0000
     16 H7         8.3294   12.0680   11.1896 H         1 RES1    0.0000
     17 C9         7.5637   11.8678    9.2782 C.2       1 RES1    0.0000
     18 C10        6.6003   10.7248    9.1810 C.3       1 RES1    0.0000
     19 H8         5.7129   11.0892    9.4638 H         1 RES1    0.0000
     20 C11        6.8838    9.5553   10.1064 C.ar      1 RES1    0.0000
     21 C12        5.8420    8.9671   10.8169 C.ar      1 RES1    0.0000
     22 H9         4.9556    9.2899   10.7040 H         1 RES1    0.0000
     23 C13        6.0831    7.9127   11.6891 C.ar      1 RES1    0.0000
     24 H10        5.3641    7.5248   12.1734 H         1 RES1    0.0000
     25 C14        7.3732    7.4254   11.8547 C.ar      1 RES1    0.0000
     26 H11        7.5395    6.7071   12.4540 H         1 RES1    0.0000
     27 C15        8.4180    7.9938   11.1410 C.ar      1 RES1    0.0000
     28 H12        9.3004    7.6575   11.2438 H         1 RES1    0.0000
     29 C16        8.1765    9.0548   10.2753 C.ar      1 RES1    0.0000
     30 H13        8.8977    9.4431    9.7947 H         1 RES1    0.0000
     31 C17        6.4286   10.2876    7.6952 C.3       1 RES1    0.0000
     32 H14        5.5934    9.7390    7.6471 H         1 RES1    0.0000
     33 N2         7.5680    9.3959    7.2554 N.pl3     1 RES1    0.0000
     34 O1         7.2955    8.2350    6.9729 O.2       1 RES1    0.0000
     35 O2         8.6947    9.8716    7.1832 O.2       1 RES1    0.0000
     36 C18        6.2694   11.4438    6.6727 C.3       1 RES1    0.0000
     37 H15        5.3864   11.8670    6.8771 H         1 RES1    0.0000
     38 C19        6.1496   10.9014    5.2410 C.3       1 RES1    0.0000
     39 H16        6.1002   11.6587    4.6057 H         1 RES1    0.0000
     40 H17        6.9562   10.3705    5.0226 H         1 RES1    0.0000
     41 C20        4.9231   10.0372    5.0859 C.2       1 RES1    0.0000
     42 O3         3.9404   10.1076    5.7877 O.2       1 RES1    0.0000
     43 O4         5.0349    9.1785    4.0703 O.3       1 RES1    0.0000
     44 C21        3.9097    8.2789    3.8950 C.3       1 RES1    0.0000
     45 H18        4.0861    7.6785    3.1411 H         1 RES1    0.0000
     46 H19        3.0996    8.8009    3.7157 H         1 RES1    0.0000
     47 H20        3.7838    7.7509    4.7111 H         1 RES1    0.0000
@<TRIPOS>BOND
     1    1    2 ar
     2    2    3 1
     3    4    2 ar
     4    5    4 1
     5    6    4 ar
     6    7    6 1
     7    8    6 ar
     8    9    1 ar
     9   10    1 1
    10   11   10 1
    11   12   11 1
    12   13   11 1
    13   14   11 1
    14   15   10 1
    15   16   15 1
    16   17    9 1
    17   18   17 1
    18   19   18 1
    19   20   18 1
    20   21   20 ar
    21   22   21 1
    22   23   21 ar
    23   24   23 1
    24   25   23 ar
    25   26   25 1
    26   27   25 ar
    27   28   27 1
    28   29   20 ar
    29   30   29 1
    30   31   18 1
    31   32   31 1
    32   33   31 1
    33   34   33 2
    34   35   33 2
    35   36    8 1
    36   37   36 1
    37   38   36 1
    38   39   38 1
    39   40   38 1
    40   41   38 1
    41   42   41 2
    42   43   41 1
    43   44   43 1
    44   45   44 1
    45   46   44 1
    46   47   44 1
    47    8    9 ar
    48   15   17 2
    49   27   29 ar
    50   31   36 1
@<TRIPOS>SUBSTRUCTURE
     1 RES1 1

@<TRIPOS>CRYSIN
   9.1824   10.4958   10.6993  73.0769  68.6772  78.7157   2 1

