# MOL2 file generated by ConQuest
# Please check atom types

@<TRIPOS>MOLECULE
TESJOT
    36    38     1
SMALL
NO_CHARGES
****
Generated from CSD

@<TRIPOS>ATOM
      1 N1        -6.2392   -5.8235   -3.0349 N.3       1 RES1    0.0000
      2 C1        -5.5631   -5.7013   -4.1942 C.2       1 RES1    0.0000
      3 C2        -6.0949   -5.9577   -5.4154 C.2       1 RES1    0.0000
      4 C3        -7.4588   -6.3342   -5.5519 C.2       1 RES1    0.0000
      5 C4        -8.1540   -6.6184   -4.2973 C.ar      1 RES1    0.0000
      6 C5        -9.4074   -7.2565   -4.2535 C.ar      1 RES1    0.0000
      7 C6       -10.0577   -7.4994   -3.0684 C.ar      1 RES1    0.0000
      8 C7        -9.4730   -7.1185   -1.8652 C.ar      1 RES1    0.0000
      9 C8        -8.2261   -6.5539   -1.8472 C.ar      1 RES1    0.0000
     10 C9        -7.5376   -6.3214   -3.0503 C.ar      1 RES1    0.0000
     11 C10       -8.0921   -6.3364   -6.8117 C.2       1 RES1    0.0000
     12 C11       -7.4109   -6.4301   -8.1024 C.ar      1 RES1    0.0000
     13 C12       -8.0361   -5.9577   -9.2798 C.ar      1 RES1    0.0000
     14 C13       -7.4433   -6.0852  -10.5190 C.ar      1 RES1    0.0000
     15 C14       -6.2053   -6.6986  -10.6014 C.ar      1 RES1    0.0000
     16 C15       -5.5543   -7.1845   -9.4782 C.ar      1 RES1    0.0000
     17 C16       -6.1648   -7.0623   -8.2467 C.ar      1 RES1    0.0000
     18 C17       -5.5941   -5.4576   -1.7725 C.3       1 RES1    0.0000
     19 N2        -5.5749   -6.8568  -11.9025 N.pl3     1 RES1    0.0000
     20 O1        -4.4312   -7.3000  -11.9540 O.2       1 RES1    0.0000
     21 O2        -6.2127   -6.5524  -12.9124 O.2       1 RES1    0.0000
     22 C18       -9.4899   -6.0664   -6.8993 C.1       1 RES1    0.0000
     23 N3       -10.5946   -5.7815   -7.0410 N.1       1 RES1    0.0000
     24 H1        -4.6573   -5.4178   -4.1530 H         1 RES1    0.0000
     25 H2        -5.5492   -5.8857   -6.1882 H         1 RES1    0.0000
     26 H3        -9.8154   -7.5287   -5.0676 H         1 RES1    0.0000
     27 H4       -10.9061   -7.9269   -3.0684 H         1 RES1    0.0000
     28 H5        -9.9421   -7.2512   -1.0511 H         1 RES1    0.0000
     29 H6        -7.8248   -6.3184   -1.0176 H         1 RES1    0.0000
     30 H7        -8.8882   -5.5415   -9.2154 H         1 RES1    0.0000
     31 H8        -7.8756   -5.7590  -11.2996 H         1 RES1    0.0000
     32 H9        -4.7015   -7.5954   -9.5529 H         1 RES1    0.0000
     33 H10       -5.7325   -7.4132   -7.4764 H         1 RES1    0.0000
     34 H11       -4.6978   -5.1059   -1.9528 H         1 RES1    0.0000
     35 H12       -5.5241   -6.2494   -1.1980 H         1 RES1    0.0000
     36 H13       -6.1280   -4.7729   -1.3165 H         1 RES1    0.0000
@<TRIPOS>BOND
     1    1    2 1
     2    2    3 2
     3    3    4 1
     4    4    5 1
     5    5    6 ar
     6    6    7 ar
     7    7    8 ar
     8    8    9 ar
     9    9   10 ar
    10   10    1 1
    11   11    4 2
    12   12   11 1
    13   13   12 ar
    14   14   13 ar
    15   15   14 ar
    16   16   15 ar
    17   17   12 ar
    18   18    1 1
    19   19   15 1
    20   20   19 2
    21   21   19 2
    22   22   11 1
    23   23   22 3
    24   24    2 1
    25   25    3 1
    26   26    6 1
    27   27    7 1
    28   28    8 1
    29   29    9 1
    30   30   13 1
    31   31   14 1
    32   32   16 1
    33   33   17 1
    34   34   18 1
    35   35   18 1
    36   36   18 1
    37    5   10 ar
    38   16   17 ar
@<TRIPOS>SUBSTRUCTURE
     1 RES1 1

@<TRIPOS>CRYSIN
   7.3645    7.4987   25.7629  90.0000  90.0000  90.0000  19 1

