# MOL2 file generated by ConQuest
# Please check atom types

@<TRIPOS>MOLECULE
TESKIL
    38    40     1
SMALL
NO_CHARGES
****
Generated from CSD

@<TRIPOS>ATOM
      1 O1         2.6548    7.4662   -0.6769 O.3       1 RES1    0.0000
      2 O2         1.4378    6.3082    0.7015 O.2       1 RES1    0.0000
      3 O3         0.4514    7.1761   -1.0285 O.2       1 RES1    0.0000
      4 O4         2.5330   10.1079   -4.7556 O.2       1 RES1    0.0000
      5 O5         3.9067   11.1708   -3.4335 O.2       1 RES1    0.0000
      6 O6         0.6136   12.1549   -1.3432 O.2       1 RES1    0.0000
      7 O7         2.2580   12.9813   -2.4894 O.2       1 RES1    0.0000
      8 O8         0.0805    9.1361   -3.1821 O.2       1 RES1    0.0000
      9 O9        -0.0486   11.1765   -3.9275 O.2       1 RES1    0.0000
     10 N1         1.3880    6.9461   -0.3235 N.pl3     1 RES1    0.0000
     11 N2         2.8413   10.6589   -3.7113 N.pl3     1 RES1    0.0000
     12 N3         1.5516   12.0785   -2.1097 N.pl3     1 RES1    0.0000
     13 N4         0.4835   10.2713   -3.3017 N.pl3     1 RES1    0.0000
     14 C1         2.5697   11.0449    0.6909 C.ar      1 RES1    0.0000
     15 C2         3.0827   10.3184   -0.3780 C.ar      1 RES1    0.0000
     16 C3         3.4114   11.5560    1.6754 C.ar      1 RES1    0.0000
     17 C4         4.7673   11.3260    1.5963 C.ar      1 RES1    0.0000
     18 C5         5.2833   10.5825    0.5485 C.ar      1 RES1    0.0000
     19 C6         4.4680   10.0632   -0.4536 C.ar      1 RES1    0.0000
     20 C7         6.3412    9.2173   -1.9145 C.ar      1 RES1    0.0000
     21 C8         4.9931    9.2157   -1.5471 C.ar      1 RES1    0.0000
     22 C9         6.7991    8.4088   -2.9360 C.ar      1 RES1    0.0000
     23 C10        5.9309    7.5824   -3.6322 C.ar      1 RES1    0.0000
     24 C11        4.5908    7.5653   -3.2911 C.ar      1 RES1    0.0000
     25 C12        4.1211    8.3698   -2.2662 C.ar      1 RES1    0.0000
     26 C13        2.6709    8.3365   -1.8671 C.3       1 RES1    0.0000
     27 C14        2.1434    9.7098   -1.4135 C.3       1 RES1    0.0000
     28 C15        1.8102   10.6459   -2.5932 C.3       1 RES1    0.0000
     29 H1         1.6334   11.1944    0.7507 H         1 RES1    0.0000
     30 H2         3.0520   12.0606    2.3962 H         1 RES1    0.0000
     31 H3         5.3489   11.6771    2.2626 H         1 RES1    0.0000
     32 H4         6.2188   10.4232    0.5116 H         1 RES1    0.0000
     33 H5         6.9505    9.7829   -1.4557 H         1 RES1    0.0000
     34 H6         7.7209    8.4185   -3.1645 H         1 RES1    0.0000
     35 H7         6.2542    7.0331   -4.3372 H         1 RES1    0.0000
     36 H8         3.9903    6.9997   -3.7623 H         1 RES1    0.0000
     37 H9         2.1041    7.9570   -2.5984 H         1 RES1    0.0000
     38 H10        1.2795    9.5359   -0.9406 H         1 RES1    0.0000
@<TRIPOS>BOND
     1    1   10 1
     2    2   10 2
     3    3   10 2
     4    4   11 2
     5    5   11 2
     6    6   12 2
     7    7   12 2
     8    8   13 2
     9    9   13 2
    10   11   28 1
    11   12   28 1
    12   13   28 1
    13   14   15 ar
    14   15   19 ar
    15   16   14 ar
    16   17   16 ar
    17   18   17 ar
    18   19   18 ar
    19   20   21 ar
    20   21   19 1
    21   22   20 ar
    22   23   22 ar
    23   24   23 ar
    24   25   21 ar
    25   26    1 1
    26   27   15 1
    27   28   27 1
    28   29   14 1
    29   30   16 1
    30   31   17 1
    31   32   18 1
    32   33   20 1
    33   34   22 1
    34   35   23 1
    35   36   24 1
    36   37   26 1
    37   38   27 1
    38   24   25 ar
    39   25   26 1
    40   26   27 1
@<TRIPOS>SUBSTRUCTURE
     1 RES1 1

@<TRIPOS>CRYSIN
  11.1000    8.1260   17.8530  90.0000 100.0200  90.0000  14 1

