# MOL2 file generated by ConQuest
# Please check atom types

@<TRIPOS>MOLECULE
TETXIC
    46    51     1
SMALL
NO_CHARGES
****
Generated from CSD

@<TRIPOS>ATOM
      1 O1         3.6061    1.3933   12.9783 O.2       1 RES1    0.0000
      2 O2         2.9463    3.4553   13.0378 O.2       1 RES1    0.0000
      3 N1         4.9775    3.2223    7.0982 N.pl3     1 RES1    0.0000
      4 N2         3.4532    2.4996   12.4603 N.pl3     1 RES1    0.0000
      5 C1         5.7601    4.2083    5.2018 C.ar      1 RES1    0.0000
      6 C2         6.3889    5.2954    4.5054 C.ar      1 RES1    0.0000
      7 C3         6.0580    5.6824    3.1844 C.ar      1 RES1    0.0000
      8 H1         5.3979    5.1946    2.7063 H         1 RES1    0.0000
      9 C4         6.6782    6.7556    2.5809 C.ar      1 RES1    0.0000
     10 H2         6.4356    7.0026    1.6962 H         1 RES1    0.0000
     11 C5         7.6668    7.4879    3.2623 C.ar      1 RES1    0.0000
     12 H3         8.1274    8.1926    2.8223 H         1 RES1    0.0000
     13 C6         7.9632    7.1780    4.5698 C.ar      1 RES1    0.0000
     14 H4         8.6217    7.6831    5.0324 H         1 RES1    0.0000
     15 C7         7.3006    6.1158    5.2385 C.ar      1 RES1    0.0000
     16 C8         7.4797    5.9150    6.6424 C.ar      1 RES1    0.0000
     17 H5         8.1425    6.4168    7.1022 H         1 RES1    0.0000
     18 C9         6.7182    5.0169    7.3387 C.ar      1 RES1    0.0000
     19 H6         6.7835    4.9447    8.2838 H         1 RES1    0.0000
     20 C10        5.8313    4.2007    6.6016 C.ar      1 RES1    0.0000
     21 C11        4.3957    2.5663    6.0175 C.ar      1 RES1    0.0000
     22 C12        4.9070    3.1003    4.8251 C.ar      1 RES1    0.0000
     23 C13        4.5729    2.4507    3.5905 C.ar      1 RES1    0.0000
     24 C14        5.2666    2.6513    2.3668 C.ar      1 RES1    0.0000
     25 H7         5.9971    3.2580    2.3387 H         1 RES1    0.0000
     26 C15        4.8983    1.9815    1.2196 C.ar      1 RES1    0.0000
     27 H8         5.3764    2.1328    0.4127 H         1 RES1    0.0000
     28 C16        3.8194    1.0740    1.2320 C.ar      1 RES1    0.0000
     29 H9         3.5362    0.6552    0.4276 H         1 RES1    0.0000
     30 C17        3.1816    0.8009    2.4173 C.ar      1 RES1    0.0000
     31 H10        2.4776    0.1632    2.4313 H         1 RES1    0.0000
     32 C18        3.5531    1.4521    3.6201 C.ar      1 RES1    0.0000
     33 C19        2.9582    1.0671    4.8594 C.ar      1 RES1    0.0000
     34 H11        2.2462    0.4383    4.8549 H         1 RES1    0.0000
     35 C20        3.3858    1.5792    6.0518 C.ar      1 RES1    0.0000
     36 H12        3.0168    1.2818    6.8751 H         1 RES1    0.0000
     37 C21        4.6402    3.0358    8.4575 C.ar      1 RES1    0.0000
     38 C22        4.5729    1.7464    8.9931 C.ar      1 RES1    0.0000
     39 H13        4.7779    0.9944    8.4498 H         1 RES1    0.0000
     40 C23        4.2062    1.5662   10.3188 C.ar      1 RES1    0.0000
     41 H14        4.1671    0.6962   10.6985 H         1 RES1    0.0000
     42 C24        3.8980    2.6854   11.0772 C.ar      1 RES1    0.0000
     43 C25        3.9611    3.9754   10.5689 C.ar      1 RES1    0.0000
     44 H15        3.7459    4.7230   11.1141 H         1 RES1    0.0000
     45 C26        4.3448    4.1491    9.2498 C.ar      1 RES1    0.0000
     46 H16        4.4070    5.0235    8.8836 H         1 RES1    0.0000
@<TRIPOS>BOND
     1    1    4 2
     2    2    4 2
     3    3   20 1
     4    4   42 1
     5    5    6 ar
     6    6    7 ar
     7    7    8 1
     8    9    7 ar
     9   10    9 1
    10   11    9 ar
    11   12   11 1
    12   13   11 ar
    13   14   13 1
    14   15    6 ar
    15   16   15 ar
    16   17   16 1
    17   18   16 ar
    18   19   18 1
    19   20    5 ar
    20   21    3 1
    21   22    5 1
    22   23   22 ar
    23   24   23 ar
    24   25   24 1
    25   26   24 ar
    26   27   26 1
    27   28   26 ar
    28   29   28 1
    29   30   28 ar
    30   31   30 1
    31   32   23 ar
    32   33   32 ar
    33   34   33 1
    34   35   21 ar
    35   36   35 1
    36   37    3 1
    37   38   37 ar
    38   39   38 1
    39   40   38 ar
    40   41   40 1
    41   42   40 ar
    42   43   42 ar
    43   44   43 1
    44   45   37 ar
    45   46   45 1
    46   13   15 ar
    47   18   20 ar
    48   21   22 ar
    49   30   32 ar
    50   33   35 ar
    51   43   45 ar
@<TRIPOS>SUBSTRUCTURE
     1 RES1 1

@<TRIPOS>CRYSIN
   9.3032   16.8049   23.6779  90.0000  90.0000  90.0000  61 1

