# MOL2 file generated by ConQuest
# Please check atom types

@<TRIPOS>MOLECULE
TEVBAA
    33    34     1
SMALL
NO_CHARGES
****
Generated from CSD

@<TRIPOS>ATOM
      1 N1         4.7900    8.0479    1.4002 N.2       1 RES1    0.0000
      2 N2         4.0698    6.6917    3.2162 N.am      1 RES1    0.0000
      3 C1         2.0717    5.6115    3.8440 C.2       1 RES1    0.0000
      4 H1         1.3008    5.1463    3.6125 H         1 RES1    0.0000
      5 O1         9.8163    4.1938    1.7415 O.3       1 RES1    0.0000
      6 O2         3.5871    8.7021    1.6522 O.3       1 RES1    0.0000
      7 H2         3.3992    9.1834    1.0154 H         1 RES1    0.0000
      8 O3         5.3701    7.6718    4.8079 O.2       1 RES1    0.0000
      9 C2         2.6999    5.6731    1.4378 C.3       1 RES1    0.0000
     10 H3         1.9177    5.1237    1.3483 H         1 RES1    0.0000
     11 H4         3.4620    5.2028    1.0927 H         1 RES1    0.0000
     12 H5         2.5763    6.4876    0.9449 H         1 RES1    0.0000
     13 C3         9.9239    2.8694    2.2241 C.3       1 RES1    0.0000
     14 H6         9.7650    2.8602    3.1718 H         1 RES1    0.0000
     15 H7        10.8049    2.5336    2.0445 H         1 RES1    0.0000
     16 H8         9.2746    2.3149    1.7862 H         1 RES1    0.0000
     17 C4         8.6287    4.8433    1.9050 C.ar      1 RES1    0.0000
     18 C5         8.5583    6.1312    1.3839 C.ar      1 RES1    0.0000
     19 H9         9.3017    6.4999    0.9643 H         1 RES1    0.0000
     20 C6         7.4033    6.8604    1.4837 C.ar      1 RES1    0.0000
     21 H10        7.3693    7.7189    1.1259 H         1 RES1    0.0000
     22 C7         6.2760    6.3302    2.1167 C.ar      1 RES1    0.0000
     23 C8         6.3657    5.0498    2.6476 C.ar      1 RES1    0.0000
     24 H11        5.6292    4.6852    3.0834 H         1 RES1    0.0000
     25 C9         7.5331    4.3031    2.5417 C.ar      1 RES1    0.0000
     26 H12        7.5736    3.4456    2.8983 H         1 RES1    0.0000
     27 C10        5.0299    7.0886    2.2121 C.2       1 RES1    0.0000
     28 C11        4.3838    7.0428    4.5247 C.2       1 RES1    0.0000
     29 N3         3.4664    6.6185    5.4554 N.am      1 RES1    0.0000
     30 H13        3.6272    6.8224    6.2746 H         1 RES1    0.0000
     31 C12        2.3223    5.9038    5.2135 C.2       1 RES1    0.0000
     32 O4         1.5956    5.5624    6.1569 O.2       1 RES1    0.0000
     33 C13        2.9213    5.9919    2.8789 C.2       1 RES1    0.0000
@<TRIPOS>BOND
     1    1    6 1
     2    2   27 1
     3    3    4 1
     4    5   13 1
     5    6    7 1
     6    8   28 2
     7    9   10 1
     8   11    9 1
     9   12    9 1
    10   13   14 1
    11   15   13 1
    12   16   13 1
    13   17    5 1
    14   18   17 ar
    15   19   18 1
    16   20   18 ar
    17   21   20 1
    18   22   20 ar
    19   23   22 ar
    20   24   23 1
    21   25   17 ar
    22   26   25 1
    23   27    1 2
    24   28    2 1
    25   29   28 1
    26   30   29 1
    27   31    3 1
    28   32   31 2
    29   33    2 1
    30    3   33 2
    31    9   33 1
    32   22   27 1
    33   23   25 ar
    34   29   31 1
@<TRIPOS>SUBSTRUCTURE
     1 RES1 1

@<TRIPOS>CRYSIN
  10.2610   10.2700   14.2360  90.0000 103.9770  90.0000  14 1

