# MOL2 file generated by ConQuest
# Please check atom types

@<TRIPOS>MOLECULE
TEVDOQ
    22    24     1
SMALL
USER_CHARGES
****
Generated from CSD

@<TRIPOS>ATOM
      1 N1         3.5253   12.9621    3.3882 N.pl3     1 RES1    0.0000
      2 H1         4.3699   13.1297    3.4531 H         1 RES1    0.0000
      3 H2         3.0223   13.2938    2.7306 H         1 RES1    0.0000
      4 C1         3.0437   11.8858    4.0248 C.2       1 RES1    0.0000
      5 N2         3.7211   11.2276    4.9312 N.2       1 RES1    0.0000
      6 O1         2.8452   10.2461    5.4173 O.3       1 RES1    0.0000
      7 N3         1.6392   10.3207    4.7894 N.2       1 RES1    0.0000
      8 C2         1.7283   11.2972    3.9367 C.2       1 RES1    0.0000
      9 C3         0.5637   11.5698    3.1135 C.2       1 RES1    0.0000
     10 N4         0.4987   12.4672    2.1397 N.pl3     1 RES1    1.0000
     11 O2        -0.8218   12.3613    1.5507 O.3       1 RES1    0.0000
     12 N5        -1.5042   11.3882    2.2179 N.2       1 RES1    0.0000
     13 C4        -0.7016   10.9223    3.1387 C.2       1 RES1    0.0000
     14 C5        -1.1666    9.8407    4.0149 C.2       1 RES1    0.0000
     15 N6        -1.4605    8.6659    3.5404 N.2       1 RES1    0.0000
     16 O3        -1.9329    7.9331    4.6164 O.3       1 RES1    0.0000
     17 N7        -1.9325    8.6702    5.7621 N.2       1 RES1    0.0000
     18 C6        -1.4646    9.8184    5.3981 C.2       1 RES1    0.0000
     19 N8        -1.3481   10.9005    6.3511 N.pl3     1 RES1    0.0000
     20 O4        -0.9431   11.9635    5.8963 O.2       1 RES1    0.0000
     21 O5        -1.6654   10.6880    7.5025 O.2       1 RES1    0.0000
     22 O6         1.2526   13.3055    1.6610 O.2       1 RES1   -1.0000
@<TRIPOS>BOND
     1    1    2 1
     2    3    1 1
     3    4    1 1
     4    5    4 2
     5    6    5 1
     6    7    6 1
     7    8    4 1
     8    9    8 1
     9   10    9 2
    10   11   10 1
    11   12   11 1
    12   13    9 1
    13   14   13 1
    14   15   14 2
    15   16   15 1
    16   17   16 1
    17   18   14 1
    18   19   18 1
    19   20   19 2
    20   21   19 2
    21   22   10 1
    22    7    8 2
    23   12   13 2
    24   17   18 2
@<TRIPOS>SUBSTRUCTURE
     1 RES1 1

@<TRIPOS>CRYSIN
   7.6896   13.1271   10.3101  90.0000 103.6080  90.0000 231 1

