# MOL2 file generated by ConQuest
# Please check atom types

@<TRIPOS>MOLECULE
TEVDEG01
    58    48     2
SMALL
USER_CHARGES
****
Generated from CSD

@<TRIPOS>ATOM
      1 C1        -0.1156    5.6739   -2.5276 C.3       1 RES1    0.0000
      2 H1        -0.8461    5.2672   -3.0581 H         1 RES1    0.0000
      3 H2         0.5772    5.9911   -3.1574 H         1 RES1    0.0000
      4 C2        -0.6618    6.8512   -1.7562 C.3       1 RES1    0.0000
      5 N1        -0.8281    8.0360   -2.6867 N.pl3     1 RES1    0.0000
      6 N2        -2.0105    6.5546   -1.1493 N.pl3     1 RES1    0.0000
      7 N3         0.2556    7.2692   -0.6298 N.pl3     1 RES1    0.0000
      8 O1        -0.6147    9.1331   -2.2251 O.2       1 RES1    0.0000
      9 O2        -1.1358    7.7207   -3.8434 O.2       1 RES1    0.0000
     10 O3        -2.2533    5.3828   -0.9103 O.2       1 RES1    0.0000
     11 O4        -2.7418    7.5192   -0.9930 O.2       1 RES1    0.0000
     12 O5         1.4201    7.4445   -0.9562 O.2       1 RES1    0.0000
     13 O6        -0.2654    7.3270    0.4744 O.2       1 RES1    0.0000
     14 C3         1.9302    2.1737   -0.3043 C.2       1 RES1    0.0000
     15 C4         2.6570    1.3956    0.6455 C.2       1 RES1    0.0000
     16 C5         1.6762    4.1570   -1.9732 C.2       1 RES1    0.0000
     17 C6         2.3382    3.0655   -1.3424 C.2       1 RES1    0.0000
     18 C7         4.7477    0.1343    1.4656 C.2       1 RES1    0.0000
     19 C8         4.0856    1.2333    0.8652 C.2       1 RES1    0.0000
     20 C9         4.9716   -2.2128    2.0357 C.3       1 RES1    0.0000
     21 H3         5.9339   -1.9815    2.0191 H         1 RES1    0.0000
     22 H4         4.7852   -2.8024    1.2624 H         1 RES1    0.0000
     23 C10        4.6560   -2.9424    3.3101 C.3       1 RES1    0.0000
     24 N4         0.6817    1.8938   -0.0671 N.pl3     1 RES1    1.0000
     25 N5         1.8593    0.6624    1.3783 N.2       1 RES1    0.0000
     26 N6         2.4373    4.6458   -2.8761 N.2       1 RES1    0.0000
     27 N7         3.4955    2.9200   -1.9024 N.2       1 RES1    0.0000
     28 N8         0.4494    4.6776   -1.6698 N.pl3     1 RES1    0.0000
     29 H5        -0.0697    4.1794   -1.2045 H         1 RES1    0.0000
     30 N9         6.0274    0.3732    1.4987 N.2       1 RES1    0.0000
     31 N10        4.9407    2.1531    0.5682 N.2       1 RES1    0.0000
     32 N11        4.1868   -1.0131    1.9263 N.3       1 RES1    0.0000
     33 H6         3.3521   -1.1568    1.7930 H         1 RES1    0.0000
     34 N12        3.3196   -3.6141    3.3000 N.pl3     1 RES1    0.0000
     35 N13        5.6814   -4.0376    3.5629 N.pl3     1 RES1    0.0000
     36 N14        4.6692   -2.0001    4.5072 N.pl3     1 RES1    0.0000
     37 O7         0.5843    0.9516    0.9746 O.3       1 RES1    0.0000
     38 O8        -0.3817    2.2259   -0.5554 O.2       1 RES1   -1.0000
     39 O9         3.5919    3.8883   -2.8430 O.3       1 RES1    0.0000
     40 O10        6.1535    1.6550    0.9516 O.3       1 RES1    0.0000
     41 O11        3.1982   -4.6514    3.9224 O.2       1 RES1    0.0000
     42 O12        2.4549   -3.0916    2.6334 O.2       1 RES1    0.0000
     43 O13        6.1711   -4.0936    4.6359 O.2       1 RES1    0.0000
     44 O14        5.8651   -4.7429    2.5837 O.2       1 RES1    0.0000
     45 O15        5.6105   -1.2669    4.5394 O.2       1 RES1    0.0000
     46 O16        3.7530   -2.1028    5.2658 O.2       1 RES1    0.0000
     47 H7        -0.9259    5.3101   -2.9662 Du        2 SUP2    0.0000
     48 H8         0.5365    5.9109   -3.2338 Du        2 SUP2    0.0000
     49 C11       -0.4801    6.9053   -1.7461 Du        2 SUP2    0.0000
     50 N15       -0.6676    8.0976   -2.6573 Du        2 SUP2    0.0000
     51 N16       -1.7611    6.7523   -0.9562 Du        2 SUP2    0.0000
     52 N17        0.6019    7.2841   -0.7411 Du        2 SUP2    0.0000
     53 O17       -0.0609    9.1051   -2.3630 Du        2 SUP2    0.0000
     54 O18       -1.4233    7.8979   -3.6135 Du        2 SUP2    0.0000
     55 O19       -2.0102    5.6329   -0.5517 Du        2 SUP2    0.0000
     56 O20       -2.3858    7.7860   -0.7632 Du        2 SUP2    0.0000
     57 O21        1.7343    7.2206   -1.1769 Du        2 SUP2    0.0000
     58 O22        0.1808    7.5901    0.3623 Du        2 SUP2    0.0000
@<TRIPOS>BOND
     1    1    2 1
     2    3    1 1
     3    4    1 1
     4    5    4 1
     5    6    4 1
     6    7    4 1
     7    8    5 2
     8    9    5 2
     9   10    6 2
    10   11    6 2
    11   12    7 2
    12   13    7 2
    13   14   15 1
    14   15   19 1
    15   16   17 1
    16   17   14 1
    17   18   19 1
    18   19   31 2
    19   20   21 1
    20   22   20 1
    21   23   20 1
    22   24   14 2
    23   25   15 2
    24   26   16 2
    25   27   17 2
    26   28    1 1
    27   29   28 1
    28   30   18 2
    29   31   40 1
    30   32   18 1
    31   33   32 1
    32   34   23 1
    33   35   23 1
    34   36   23 1
    35   37   24 1
    36   38   24 1
    37   39   26 1
    38   40   30 1
    39   41   34 2
    40   42   34 2
    41   43   35 2
    42   44   35 2
    43   45   36 2
    44   46   36 2
    45   16   28 1
    46   20   32 1
    47   25   37 1
    48   27   39 1
@<TRIPOS>SUBSTRUCTURE
     1 RES1 1
     2 SUP2 47

@<TRIPOS>CRYSIN
  12.1420   18.6580    9.9230  90.0000 112.0890  90.0000  14 1

