# MOL2 file generated by ConQuest
# Please check atom types

@<TRIPOS>MOLECULE
TEVGUZ
    54    58     1
SMALL
NO_CHARGES
****
Generated from CSD

@<TRIPOS>ATOM
      1 N1         2.5460    3.2562   25.8762 N.pl3     1 RES1    0.0000
      2 H1         2.7419    2.5123   26.2601 H         1 RES1    0.0000
      3 N2         2.1743   -1.0890   21.0494 N.pl3     1 RES1    0.0000
      4 O1         1.8633   -2.1671   21.5398 O.2       1 RES1    0.0000
      5 O2         2.3521   -0.9317   19.8401 O.2       1 RES1    0.0000
      6 O3        -0.5802    5.1858   23.3635 O.3       1 RES1    0.0000
      7 H2        -1.2963    5.3940   23.0236 H         1 RES1    0.0000
      8 O4         3.9727    5.7270   22.4750 O.2       1 RES1    0.0000
      9 C1         2.3563    3.4257   24.5099 C.2       1 RES1    0.0000
     10 C2         2.0334    4.7550   24.2909 C.2       1 RES1    0.0000
     11 C3         2.0411    5.4184   25.5689 C.ar      1 RES1    0.0000
     12 C4         2.3751    4.4477   26.5149 C.ar      1 RES1    0.0000
     13 C5         2.5125    4.7099   27.9014 C.ar      1 RES1    0.0000
     14 H3         2.7426    4.0403   28.5038 H         1 RES1    0.0000
     15 C6         2.2914    5.9831   28.3070 C.ar      1 RES1    0.0000
     16 H4         2.3765    6.1782   29.2108 H         1 RES1    0.0000
     17 C7         1.9316    7.0477   27.4105 C.ar      1 RES1    0.0000
     18 C8         1.7796    6.7648   26.0176 C.ar      1 RES1    0.0000
     19 C9         1.3312    7.8173   25.1955 C.ar      1 RES1    0.0000
     20 H5         1.2113    7.6575   24.2870 H         1 RES1    0.0000
     21 C10        1.0662    9.0685   25.6866 C.ar      1 RES1    0.0000
     22 H6         0.7545    9.7356   25.1192 H         1 RES1    0.0000
     23 C11        1.2677    9.3429   27.0626 C.ar      1 RES1    0.0000
     24 H7         1.1122   10.1966   27.3985 H         1 RES1    0.0000
     25 C12        1.6938    8.3404   27.8950 C.ar      1 RES1    0.0000
     26 H8         1.8270    8.5209   28.7973 H         1 RES1    0.0000
     27 C13        2.3953    2.2647   23.6280 C.ar      1 RES1    0.0000
     28 C14        2.5822    2.4062   22.2440 C.ar      1 RES1    0.0000
     29 H9         2.7482    3.2513   21.8928 H         1 RES1    0.0000
     30 C15        2.5264    1.3183   21.3887 C.ar      1 RES1    0.0000
     31 H10        2.6338    1.4269   20.4711 H         1 RES1    0.0000
     32 C16        2.3075    0.0744   21.9313 C.ar      1 RES1    0.0000
     33 C17        2.1994   -0.1305   23.2842 C.ar      1 RES1    0.0000
     34 H11        2.1066   -0.9890   23.6285 H         1 RES1    0.0000
     35 C18        2.2308    0.9842   24.1344 C.ar      1 RES1    0.0000
     36 H12        2.1401    0.8622   25.0528 H         1 RES1    0.0000
     37 C19        1.7078    5.4038   22.9748 C.2       1 RES1    0.0000
     38 C20        0.4344    5.6294   22.5858 C.2       1 RES1    0.0000
     39 C21        0.0460    6.3843   21.3481 C.3       1 RES1    0.0000
     40 H13       -0.1583    7.3002   21.5916 H         1 RES1    0.0000
     41 H14       -0.7601    5.9892   20.9790 H         1 RES1    0.0000
     42 C22        1.1373    6.3880   20.2648 C.3       1 RES1    0.0000
     43 C23        2.4741    6.7270   20.9366 C.3       1 RES1    0.0000
     44 H15        3.1833    6.6099   20.2847 H         1 RES1    0.0000
     45 H16        2.4623    7.6624   21.1909 H         1 RES1    0.0000
     46 C24        2.8068    5.8989   22.1631 C.2       1 RES1    0.0000
     47 C25        0.8012    7.4587   19.2111 C.3       1 RES1    0.0000
     48 H17        0.7887    8.3234   19.6262 H         1 RES1    0.0000
     49 H18       -0.0600    7.2733   18.8298 H         1 RES1    0.0000
     50 H19        1.4665    7.4453   18.5184 H         1 RES1    0.0000
     51 C26        1.1883    5.0099   19.5744 C.3       1 RES1    0.0000
     52 H20        1.8912    5.0050   18.9217 H         1 RES1    0.0000
     53 H21        0.3487    4.8367   19.1438 H         1 RES1    0.0000
     54 H22        1.3570    4.3294   20.2311 H         1 RES1    0.0000
@<TRIPOS>BOND
     1    1    2 1
     2    3    4 2
     3    5    3 2
     4    6    7 1
     5    8   46 2
     6    9    1 1
     7   10    9 2
     8   11   10 1
     9   12    1 1
    10   13   12 ar
    11   14   13 1
    12   15   13 ar
    13   16   15 1
    14   17   15 ar
    15   18   11 ar
    16   19   18 ar
    17   20   19 1
    18   21   19 ar
    19   22   21 1
    20   23   21 ar
    21   24   23 1
    22   25   17 ar
    23   26   25 1
    24   27    9 1
    25   28   27 ar
    26   29   28 1
    27   30   28 ar
    28   31   30 1
    29   32    3 1
    30   33   32 ar
    31   34   33 1
    32   35   27 ar
    33   36   35 1
    34   37   10 1
    35   38    6 1
    36   39   38 1
    37   40   39 1
    38   41   39 1
    39   42   39 1
    40   43   42 1
    41   44   43 1
    42   45   43 1
    43   46   37 1
    44   47   42 1
    45   48   47 1
    46   49   47 1
    47   50   47 1
    48   51   42 1
    49   52   51 1
    50   53   51 1
    51   54   51 1
    52   11   12 ar
    53   17   18 ar
    54   23   25 ar
    55   30   32 ar
    56   33   35 ar
    57   37   38 2
    58   43   46 1
@<TRIPOS>SUBSTRUCTURE
     1 RES1 1

@<TRIPOS>CRYSIN
   6.9733   12.1954   25.5250  90.0000  90.0000  90.0000  19 1

