# MOL2 file generated by ConQuest
# Please check atom types

@<TRIPOS>MOLECULE
TEVMUF
    86    57     2
SMALL
NO_CHARGES
****
Generated from CSD

@<TRIPOS>ATOM
      1 C1         4.4218   -0.3154    1.9673 C.2       1 RES1    0.0000
      2 C2         3.3565   -1.3818    2.0538 C.3       1 RES1    0.0000
      3 H1         2.9570   -1.3685    2.9598 H         1 RES1    0.0000
      4 H2         3.7743   -2.2697    1.9199 H         1 RES1    0.0000
      5 C3         2.2548   -1.1887    1.0223 C.3       1 RES1    0.0000
      6 H3         2.6584   -1.1003    0.1228 H         1 RES1    0.0000
      7 H4         1.6653   -1.9831    1.0176 H         1 RES1    0.0000
      8 C4         1.4362    0.0451    1.3311 C.2       1 RES1    0.0000
      9 C5         0.6558    2.2110    0.6288 C.3       1 RES1    0.0000
     10 H5        -0.2564    2.0372    0.9730 H         1 RES1    0.0000
     11 H6         0.5589    2.6909   -0.2307 H         1 RES1    0.0000
     12 C6         1.3658    3.1421    1.6167 C.3       1 RES1    0.0000
     13 H7         1.5637    2.6518    2.4529 H         1 RES1    0.0000
     14 H8         2.2240    3.4471    1.2278 H         1 RES1    0.0000
     15 C7         0.4847    4.3529    1.9273 C.3       1 RES1    0.0000
     16 H9        -0.4529    4.0456    2.0055 H         1 RES1    0.0000
     17 H10        0.5299    4.9778    1.1618 H         1 RES1    0.0000
     18 C8         0.8566    5.1263    3.2156 C.3       1 RES1    0.0000
     19 H11        0.1081    5.7305    3.4491 H         1 RES1    0.0000
     20 H12        0.9587    4.4772    3.9561 H         1 RES1    0.0000
     21 C9         2.9774    6.0033    4.1263 C.2       1 RES1    0.0000
     22 C10        4.0358    7.0656    4.0026 C.3       1 RES1    0.0000
     23 H13        3.6164    7.9564    4.1086 H         1 RES1    0.0000
     24 H14        4.4358    7.0230    3.0984 H         1 RES1    0.0000
     25 C11        5.1397    6.9015    5.0500 C.3       1 RES1    0.0000
     26 H15        5.7181    7.7055    5.0472 H         1 RES1    0.0000
     27 H16        4.7318    6.8205    5.9485 H         1 RES1    0.0000
     28 C12        5.9766    5.6797    4.7663 C.2       1 RES1    0.0000
     29 C13        7.0440    3.6657    5.7448 C.3       1 RES1    0.0000
     30 H17        7.6170    3.6289    6.5513 H         1 RES1    0.0000
     31 H18        7.6310    3.7026    4.9486 H         1 RES1    0.0000
     32 C14        6.1650    2.4285    5.6806 C.3       1 RES1    0.0000
     33 H19        5.6000    2.3951    6.4927 H         1 RES1    0.0000
     34 H20        6.7425    1.6251    5.6825 H         1 RES1    0.0000
     35 C15        5.2565    2.3824    4.4416 C.3       1 RES1    0.0000
     36 H21        4.5669    1.6861    4.5802 H         1 RES1    0.0000
     37 H22        4.7910    3.2526    4.3579 H         1 RES1    0.0000
     38 C16        5.9880    2.0924    3.1366 C.3       1 RES1    0.0000
     39 H23        5.3880    2.3226    2.3831 H         1 RES1    0.0000
     40 H24        6.7770    2.6874    3.0808 H         1 RES1    0.0000
     41 C17        6.4515    0.6652    2.9589 C.3       1 RES1    0.0000
     42 H25        6.9531    0.5824    2.1087 H         1 RES1    0.0000
     43 H26        7.0593    0.4189    3.7003 H         1 RES1    0.0000
     44 N1         5.3097   -0.2363    2.9431 N.am      1 RES1    0.0000
     45 N2         1.2876    0.9343    0.3626 N.am      1 RES1    0.0000
     46 H27        1.5742    0.7493   -0.4483 H         1 RES1    0.0000
     47 N3         2.0807    5.9188    3.1180 N.am      1 RES1    0.0000
     48 N4         6.1890    4.8611    5.7932 N.am      1 RES1    0.0000
     49 H28        5.7899    5.0480    6.5550 H         1 RES1    0.0000
     50 O1         5.3383   -1.2606    3.9110 O.3       1 RES1    0.0000
     51 H29        4.7783   -1.0922    4.5142 H         1 RES1    0.0000
     52 O2         4.4686    0.4732    0.9986 O.2       1 RES1    0.0000
     53 O3         0.9312    0.2038    2.4574 O.2       1 RES1    0.0000
     54 O4         2.0408    6.9709    2.1978 O.3       1 RES1    0.0000
     55 H30        2.5411    6.7928    1.5469 H         1 RES1    0.0000
     56 O5         2.9387    5.2151    5.0835 O.2       1 RES1    0.0000
     57 O6         6.4548    5.4713    3.6505 O.2       1 RES1    0.0000
     58 C18        6.6653    3.4943    5.5216 Du        2 SUP2    0.0000
     59 H31        6.6257    3.0097    6.3838 Du        2 SUP2    0.0000
     60 H32        7.6242    3.5748    5.2890 Du        2 SUP2    0.0000
     61 C19        6.0426    2.5608    4.4714 Du        2 SUP2    0.0000
     62 H33        5.1744    2.2248    4.8072 Du        2 SUP2    0.0000
     63 H34        5.8715    3.0719    3.6407 Du        2 SUP2    0.0000
     64 C20        6.9430    1.3903    4.1588 Du        2 SUP2    0.0000
     65 H35        6.9494    0.7769    4.9365 Du        2 SUP2    0.0000
     66 H36        7.8661    1.7230    4.0323 Du        2 SUP2    0.0000
     67 C21        6.5285    0.6042    2.9208 Du        2 SUP2    0.0000
     68 H37        6.4223    1.2545    2.1785 Du        2 SUP2    0.0000
     69 H38        7.2868    0.0150    2.6743 Du        2 SUP2    0.0000
     70 C22        0.3371    2.0774    0.4111 Du        2 SUP2    0.0000
     71 H39       -0.2170    2.0441    1.2316 Du        2 SUP2    0.0000
     72 H40       -0.2589    2.0774   -0.3795 Du        2 SUP2    0.0000
     73 C23        1.2475    3.3067    0.4139 Du        2 SUP2    0.0000
     74 H41        1.8142    3.2859   -0.3981 Du        2 SUP2    0.0000
     75 H42        0.6869    4.1204    0.3684 Du        2 SUP2    0.0000
     76 C24        2.1447    3.3964    1.6371 Du        2 SUP2    0.0000
     77 H43        2.7879    4.1365    1.5013 Du        2 SUP2    0.0000
     78 H44        2.6664    2.5574    1.7060 Du        2 SUP2    0.0000
     79 C25        1.4166    3.6232    2.9570 Du        2 SUP2    0.0000
     80 H45        0.6475    3.0028    3.0212 Du        2 SUP2    0.0000
     81 H46        2.0302    3.4310    3.7096 Du        2 SUP2    0.0000
     82 C26        0.9204    5.0572    3.0603 Du        2 SUP2    0.0000
     83 H47        0.3627    5.2851    2.2762 Du        2 SUP2    0.0000
     84 H48        0.3712    5.1700    3.8789 Du        2 SUP2    0.0000
     85 H49        1.7836    0.8436   -0.3581 Du        2 SUP2    0.0000
     86 H50        6.0479    5.1309    6.6192 Du        2 SUP2    0.0000
@<TRIPOS>BOND
     1    1    2 1
     2    2    3 1
     3    4    2 1
     4    5    2 1
     5    6    5 1
     6    7    5 1
     7    8    5 1
     8    9   10 1
     9   11    9 1
    10   12    9 1
    11   13   12 1
    12   14   12 1
    13   15   12 1
    14   16   15 1
    15   17   15 1
    16   18   15 1
    17   19   18 1
    18   20   18 1
    19   21   22 1
    20   22   23 1
    21   24   22 1
    22   25   22 1
    23   26   25 1
    24   27   25 1
    25   28   25 1
    26   29   30 1
    27   31   29 1
    28   32   29 1
    29   33   32 1
    30   34   32 1
    31   35   32 1
    32   36   35 1
    33   37   35 1
    34   38   35 1
    35   39   38 1
    36   40   38 1
    37   41   38 1
    38   42   41 1
    39   43   41 1
    40   44    1 1
    41   45    8 1
    42   46   45 1
    43   47   18 1
    44   48   28 1
    45   49   48 1
    46   50   44 1
    47   51   50 1
    48   52    1 2
    49   53    8 2
    50   54   47 1
    51   55   54 1
    52   56   21 2
    53   57   28 2
    54    9   45 1
    55   21   47 1
    56   29   48 1
    57   41   44 1
@<TRIPOS>SUBSTRUCTURE
     1 RES1 1
     2 SUP2 58

@<TRIPOS>CRYSIN
   9.0012   11.5094    9.4906  90.0000 101.4470  90.0000   7 1

