# MOL2 file generated by ConQuest
# Please check atom types

@<TRIPOS>MOLECULE
TEWJUA
    33    33     1
SMALL
NO_CHARGES
****
Generated from CSD

@<TRIPOS>ATOM
      1 O1        -1.6095    0.3784   26.3286 O.2       1 RES1    0.0000
      2 O2        -1.4177   -1.6480   25.6651 O.2       1 RES1    0.0000
      3 O3         4.3877   -2.4492   23.8972 O.2       1 RES1    0.0000
      4 O4         2.4710   -3.0686   23.1907 O.2       1 RES1    0.0000
      5 O5         4.6358    1.1874   27.3736 O.2       1 RES1    0.0000
      6 O6         2.8518    2.2238   27.8993 O.2       1 RES1    0.0000
      7 N1        -0.9261   -0.5458   25.8775 N.pl3     1 RES1    0.0000
      8 N2         0.4326   -1.6103   23.5773 N.3       1 RES1    0.0000
      9 N3         3.1472   -2.3041   23.9133 N.pl3     1 RES1    0.0000
     10 N4         4.6294   -0.6813   25.6854 N.3       1 RES1    0.0000
     11 N5         3.4035    1.3035   27.2746 N.pl3     1 RES1    0.0000
     12 N6         0.5762    1.3199   27.3309 N.3       1 RES1    0.0000
     13 C1         0.4780   -0.3455   25.6283 C.ar      1 RES1    0.0000
     14 C2         1.0987   -1.1322   24.6206 C.ar      1 RES1    0.0000
     15 C3         2.5265   -1.3557   24.7400 C.ar      1 RES1    0.0000
     16 C4         3.3198   -0.5448   25.6371 C.ar      1 RES1    0.0000
     17 C5         2.6464    0.4306   26.4539 C.ar      1 RES1    0.0000
     18 C6         1.2087    0.5138   26.4909 C.ar      1 RES1    0.0000
     19 C7        -0.8343   -1.1970   22.9557 C.3       1 RES1    0.0000
     20 C8        -0.5144   -0.4838   21.6569 C.3       1 RES1    0.0000
     21 C9        -1.6967   -2.4328   22.7489 C.3       1 RES1    0.0000
     22 H1         0.8724   -2.1580   23.1432 H         1 RES1    0.0000
     23 H2         4.9711   -1.2967   25.1795 H         1 RES1    0.0000
     24 H3         5.0438   -0.0774   26.2542 H         1 RES1    0.0000
     25 H4        -0.3090    1.3451   27.2808 H         1 RES1    0.0000
     26 H5         1.1087    1.8580   27.8634 H         1 RES1    0.0000
     27 H6        -1.2723   -0.6097   23.5448 H         1 RES1    0.0000
     28 H7         0.0636    0.2516   21.8365 H         1 RES1    0.0000
     29 H8        -0.0909   -1.1322   21.0446 H         1 RES1    0.0000
     30 H9        -1.3814   -0.2322   21.2341 H         1 RES1    0.0000
     31 H10       -2.5537   -2.1676   22.2806 H         1 RES1    0.0000
     32 H11       -1.8358   -2.9418   23.5844 H         1 RES1    0.0000
     33 H12       -1.2360   -2.9708   22.0769 H         1 RES1    0.0000
@<TRIPOS>BOND
     1    1    7 2
     2    2    7 2
     3    3    9 2
     4    4    9 2
     5    5   11 2
     6    6   11 2
     7    7   13 1
     8    8   14 1
     9    9   15 1
    10   10   16 1
    11   11   17 1
    12   12   18 1
    13   13   14 ar
    14   14   15 ar
    15   15   16 ar
    16   16   17 ar
    17   17   18 ar
    18   18   13 ar
    19   19    8 1
    20   20   19 1
    21   21   19 1
    22   22    8 1
    23   23   10 1
    24   24   10 1
    25   25   12 1
    26   26   12 1
    27   27   19 1
    28   28   20 1
    29   29   20 1
    30   30   20 1
    31   31   21 1
    32   32   21 1
    33   33   21 1
@<TRIPOS>SUBSTRUCTURE
     1 RES1 1

@<TRIPOS>CRYSIN
   9.0880    9.6770   28.2820  90.0000  90.0000  90.0000  61 1

