# MOL2 file generated by ConQuest
# Please check atom types

@<TRIPOS>MOLECULE
TEWJOU
    37    38     1
SMALL
NO_CHARGES
****
Generated from CSD

@<TRIPOS>ATOM
      1 O1         1.3540    6.0361   14.7972 O.2       1 RES1    0.0000
      2 O2         0.8788    7.7132   13.5606 O.2       1 RES1    0.0000
      3 O3         2.4855    1.5478   12.3791 O.2       1 RES1    0.0000
      4 O4         4.1325    2.3306   11.2307 O.2       1 RES1    0.0000
      5 O5         0.6741    5.2266    8.1167 O.2       1 RES1    0.0000
      6 O6         1.4616    7.1979    8.4907 O.2       1 RES1    0.0000
      7 N1         1.2666    6.5345   13.6684 N.pl3     1 RES1    0.0000
      8 N2         1.9130    3.7581   13.8410 N.3       1 RES1    0.0000
      9 N3         3.0068    2.4260   11.6972 N.pl3     1 RES1    0.0000
     10 N4         2.6284    3.4835    9.1147 N.3       1 RES1    0.0000
     11 N5         1.2953    6.0130    8.8188 N.pl3     1 RES1    0.0000
     12 N6         1.3303    7.6892   11.0581 N.3       1 RES1    0.0000
     13 C1         1.5906    5.7713   12.5138 C.ar      1 RES1    0.0000
     14 C2         1.9006    4.3715   12.6595 C.ar      1 RES1    0.0000
     15 C3         2.2744    3.6707   11.4891 C.ar      1 RES1    0.0000
     16 C4         2.2319    4.2119   10.1962 C.ar      1 RES1    0.0000
     17 C5         1.8073    5.5565   10.0958 C.ar      1 RES1    0.0000
     18 C6         1.5912    6.3928   11.2209 C.ar      1 RES1    0.0000
     19 C7         2.1551    2.1140    8.8653 C.3       1 RES1    0.0000
     20 C8         3.2531    1.2090    8.3376 C.3       1 RES1    0.0000
     21 C9         3.9771    1.8296    7.1611 C.3       1 RES1    0.0000
     22 C10        4.4396    3.2240    7.5149 C.3       1 RES1    0.0000
     23 C11        3.2599    4.0871    7.9410 C.3       1 RES1    0.0000
     24 H1         1.7907    4.2440   14.5327 H         1 RES1    0.0000
     25 H2         2.0171    2.8442   13.8471 H         1 RES1    0.0000
     26 H3         1.1455    8.1314   11.8392 H         1 RES1    0.0000
     27 H4         1.4102    8.0244   10.1496 H         1 RES1    0.0000
     28 H5         1.4623    2.2112    8.1662 H         1 RES1    0.0000
     29 H6         1.7129    1.7743    9.6844 H         1 RES1    0.0000
     30 H7         3.8914    1.0432    9.0600 H         1 RES1    0.0000
     31 H8         2.8459    0.4101    8.0316 H         1 RES1    0.0000
     32 H9         3.3880    1.9169    6.3787 H         1 RES1    0.0000
     33 H10        4.7718    1.2661    6.8195 H         1 RES1    0.0000
     34 H11        5.0341    3.2187    8.2887 H         1 RES1    0.0000
     35 H12        4.9064    3.6734    6.7460 H         1 RES1    0.0000
     36 H13        3.5184    4.9751    8.1662 H         1 RES1    0.0000
     37 H14        2.6021    4.1014    7.1256 H         1 RES1    0.0000
@<TRIPOS>BOND
     1    1    7 2
     2    2    7 2
     3    3    9 2
     4    4    9 2
     5    5   11 2
     6    6   11 2
     7    7   13 1
     8    8   14 1
     9    9   15 1
    10   10   16 1
    11   11   17 1
    12   12   18 1
    13   13   14 ar
    14   14   15 ar
    15   15   16 ar
    16   16   17 ar
    17   17   18 ar
    18   18   13 ar
    19   19   10 1
    20   20   19 1
    21   21   20 1
    22   22   21 1
    23   23   10 1
    24   24    8 1
    25   25    8 1
    26   26   12 1
    27   27   12 1
    28   28   19 1
    29   29   19 1
    30   30   20 1
    31   31   20 1
    32   32   21 1
    33   33   21 1
    34   34   22 1
    35   35   22 1
    36   36   23 1
    37   37   23 1
    38   22   23 1
@<TRIPOS>SUBSTRUCTURE
     1 RES1 1

@<TRIPOS>CRYSIN
  12.3120    8.9160   13.6440  90.0000 116.1900  90.0000 231 1

