# MOL2 file generated by ConQuest
# Please check atom types

@<TRIPOS>MOLECULE
TEWXOK
    61    61     1
SMALL
USER_CHARGES
****
Generated from CSD

@<TRIPOS>ATOM
      1 N1         2.2895   20.0820    5.8996 N.3       1 RES1    0.0000
      2 C1         3.7581   20.1432    5.9187 C.3       1 RES1    0.0000
      3 H1         4.0440   21.0343    5.6645 H         1 RES1    0.0000
      4 H2         4.1121   19.5178    5.2666 H         1 RES1    0.0000
      5 C2         4.3164   19.8143    7.2670 C.3       1 RES1    0.0000
      6 H3         5.2755   19.8251    7.2278 H         1 RES1    0.0000
      7 H4         4.0183   18.9412    7.5322 H         1 RES1    0.0000
      8 H5         4.0135   20.4632    7.9060 H         1 RES1    0.0000
      9 C3         1.7538   20.3963    4.5493 C.3       1 RES1    0.0000
     10 H6         2.1642   19.8052    3.8992 H         1 RES1    0.0000
     11 H7         1.9921   21.3073    4.3162 H         1 RES1    0.0000
     12 C4         0.2563   20.2444    4.4800 C.3       1 RES1    0.0000
     13 H8        -0.0526   20.5138    3.6119 H         1 RES1    0.0000
     14 H9        -0.1526   20.7939    5.1511 H         1 RES1    0.0000
     15 H10        0.0204   19.3262    4.6317 H         1 RES1    0.0000
     16 N2         1.9141   18.7314    6.2040 N.pl3     1 RES1    1.0000
     17 O1         2.2247   17.7876    5.4726 O.2       1 RES1   -1.0000
     18 N3         1.2745   18.7004    7.3042 N.2       1 RES1    0.0000
     19 O2         0.9806   17.3632    7.5674 O.3       1 RES1    0.0000
     20 C5         0.5049   17.2992    8.8986 C.3       1 RES1    0.0000
     21 H11       -0.1363   18.0194    9.0775 H         1 RES1    0.0000
     22 O3         1.6236   17.4061    9.7345 O.3       1 RES1    0.0000
     23 C6         1.2663   17.3817   11.1210 C.3       1 RES1    0.0000
     24 H12        0.5969   18.0718   11.3059 H         1 RES1    0.0000
     25 C7         2.5228   17.6705   11.8846 C.3       1 RES1    0.0000
     26 H13        2.4059   17.4337   12.8180 H         1 RES1    0.0000
     27 H14        3.2575   17.1463   11.5259 H         1 RES1    0.0000
     28 O4         2.8134   19.0817   11.7630 O.3       1 RES1    0.0000
     29 C8         4.0007   19.4654   11.3360 C.2       1 RES1    0.0000
     30 O5         4.8560   18.7153   11.0065 O.2       1 RES1    0.0000
     31 C9         4.1108   20.9530   11.2828 C.3       1 RES1    0.0000
     32 H15        5.0249   21.2115   11.4214 H         1 RES1    0.0000
     33 H16        3.5614   21.3398   11.9690 H         1 RES1    0.0000
     34 H17        3.8162   21.2657   10.4238 H         1 RES1    0.0000
     35 C10        0.6946   16.0085   11.4305 C.3       1 RES1    0.0000
     36 H18        1.3931   15.3243   11.3591 H         1 RES1    0.0000
     37 O6         0.1460   16.0282   12.7647 O.3       1 RES1    0.0000
     38 C11        0.6147   15.1436   13.6800 C.2       1 RES1    0.0000
     39 O7         1.5902   14.5164   13.5082 O.2       1 RES1    0.0000
     40 C12       -0.2416   15.1508   14.8937 C.3       1 RES1    0.0000
     41 H19        0.0420   14.4531   15.4894 H         1 RES1    0.0000
     42 H20       -1.1561   15.0026   14.6405 H         1 RES1    0.0000
     43 H21       -0.1648   15.9985   15.3347 H         1 RES1    0.0000
     44 C13       -0.4603   15.6775   10.5102 C.3       1 RES1    0.0000
     45 H22       -1.2428   16.2064   10.7724 H         1 RES1    0.0000
     46 O8        -0.7478   14.2839   10.7021 O.3       1 RES1    0.0000
     47 C14       -2.0321   13.8819   10.7503 C.2       1 RES1    0.0000
     48 O9        -2.9556   14.6037   10.5865 O.2       1 RES1    0.0000
     49 C15       -2.1083   12.4214   10.9914 C.3       1 RES1    0.0000
     50 H23       -2.3035   11.9695   10.1666 H         1 RES1    0.0000
     51 H24       -2.8029   12.2370   11.6274 H         1 RES1    0.0000
     52 H25       -1.2680   12.1087   11.3350 H         1 RES1    0.0000
     53 C16       -0.1483   15.9402    9.0513 C.3       1 RES1    0.0000
     54 H26        0.4352   15.2376    8.6947 H         1 RES1    0.0000
     55 O10       -1.3666   16.0119    8.2968 O.3       1 RES1    0.0000
     56 C17       -1.7926   14.9050    7.6488 C.2       1 RES1    0.0000
     57 O11       -1.1876   13.8826    7.6367 O.2       1 RES1    0.0000
     58 C18       -3.1096   15.1472    7.0158 C.3       1 RES1    0.0000
     59 H27       -3.4859   14.3121    6.7295 H         1 RES1    0.0000
     60 H28       -2.9980   15.7256    6.2573 H         1 RES1    0.0000
     61 H29       -3.6980   15.5629    7.6508 H         1 RES1    0.0000
@<TRIPOS>BOND
     1    1    2 1
     2    2    3 1
     3    4    2 1
     4    5    2 1
     5    6    5 1
     6    7    5 1
     7    8    5 1
     8    9    1 1
     9   10    9 1
    10   11    9 1
    11   12    9 1
    12   13   12 1
    13   14   12 1
    14   15   12 1
    15   16    1 1
    16   17   16 1
    17   18   16 2
    18   19   18 1
    19   20   19 1
    20   21   20 1
    21   22   20 1
    22   23   22 1
    23   24   23 1
    24   25   23 1
    25   26   25 1
    26   27   25 1
    27   28   25 1
    28   29   28 1
    29   30   29 2
    30   31   29 1
    31   32   31 1
    32   33   31 1
    33   34   31 1
    34   35   23 1
    35   36   35 1
    36   37   35 1
    37   38   37 1
    38   39   38 2
    39   40   38 1
    40   41   40 1
    41   42   40 1
    42   43   40 1
    43   44   35 1
    44   45   44 1
    45   46   44 1
    46   47   46 1
    47   48   47 2
    48   49   47 1
    49   50   49 1
    50   51   49 1
    51   52   49 1
    52   53   20 1
    53   54   53 1
    54   55   53 1
    55   56   55 1
    56   57   56 2
    57   58   56 1
    58   59   58 1
    59   60   58 1
    60   61   58 1
    61   44   53 1
@<TRIPOS>SUBSTRUCTURE
     1 RES1 1

@<TRIPOS>CRYSIN
   6.8046   18.0754   10.0662  90.0000  93.5400  90.0000   4 1

