# MOL2 file generated by ConQuest
# Please check atom types

@<TRIPOS>MOLECULE
TEXMIU
    56    59     1
SMALL
NO_CHARGES
****
Generated from CSD

@<TRIPOS>ATOM
      1 C1         6.8442    2.6660    5.2214 C.3       1 RES1    0.0000
      2 H1         6.7872    2.3561    6.1493 H         1 RES1    0.0000
      3 C2         5.4775    3.1782    4.8184 C.2       1 RES1    0.0000
      4 C3         5.0387    2.9811    3.5742 C.2       1 RES1    0.0000
      5 C4         6.8477    1.3991    3.0855 C.2       1 RES1    0.0000
      6 C5         8.2194    0.6082    4.9004 C.3       1 RES1    0.0000
      7 H2         8.1964   -0.2101    4.3803 H         1 RES1    0.0000
      8 H3         8.0014    0.3812    5.8187 H         1 RES1    0.0000
      9 C6        10.3980    1.3395    3.8264 C.2       1 RES1    0.0000
     10 H4        10.2754    1.0633    2.9480 H         1 RES1    0.0000
     11 C7        11.4619    2.0138    4.3333 C.2       1 RES1    0.0000
     12 C8        12.6659    2.4961    3.6672 C.ar      1 RES1    0.0000
     13 C9        13.3108    3.6347    4.1064 C.ar      1 RES1    0.0000
     14 H5        13.0007    4.0833    4.8594 H         1 RES1    0.0000
     15 C10       14.4511    4.1235    3.4101 C.ar      1 RES1    0.0000
     16 H6        14.8992    4.8860    3.7009 H         1 RES1    0.0000
     17 C11       14.8701    3.4427    2.3000 C.ar      1 RES1    0.0000
     18 H7        15.6125    3.7565    1.8354 H         1 RES1    0.0000
     19 C12       14.2557    2.3483    1.8619 C.ar      1 RES1    0.0000
     20 H8        14.5672    1.9126    1.1005 H         1 RES1    0.0000
     21 C13       13.1554    1.8582    2.5389 C.ar      1 RES1    0.0000
     22 H9        12.7358    1.0879    2.2324 H         1 RES1    0.0000
     23 C14        7.8893    3.7760    5.1647 C.ar      1 RES1    0.0000
     24 C15        8.5770    4.0690    3.9966 C.ar      1 RES1    0.0000
     25 H10        8.3682    3.6022    3.2207 H         1 RES1    0.0000
     26 C16        9.5594    5.0312    3.9519 C.ar      1 RES1    0.0000
     27 H11       10.0192    5.2114    3.1640 H         1 RES1    0.0000
     28 C17        9.8427    5.7184    5.1152 C.ar      1 RES1    0.0000
     29 C18        9.1523    5.5058    6.2736 C.ar      1 RES1    0.0000
     30 H12        9.3407    6.0089    7.0326 H         1 RES1    0.0000
     31 C19        8.1676    4.5320    6.3050 C.ar      1 RES1    0.0000
     32 H13        7.6898    4.3815    7.0894 H         1 RES1    0.0000
     33 C20        4.7344    3.8266    5.9056 C.2       1 RES1    0.0000
     34 C21        2.8022    5.0079    6.5644 C.3       1 RES1    0.0000
     35 H14        3.2582    5.7612    6.9723 H         1 RES1    0.0000
     36 H15        2.6176    4.3478    7.2511 H         1 RES1    0.0000
     37 C22        1.5310    5.4578    5.9249 C.3       1 RES1    0.0000
     38 H16        1.7325    6.0452    5.1924 H         1 RES1    0.0000
     39 H17        0.9929    5.9220    6.5705 H         1 RES1    0.0000
     40 H18        1.0482    4.6941    5.5979 H         1 RES1    0.0000
     41 C23        3.7538    3.4726    2.9407 C.3       1 RES1    0.0000
     42 H19        3.0078    3.0122    3.3317 H         1 RES1    0.0000
     43 H20        3.7765    3.3014    1.9971 H         1 RES1    0.0000
     44 H21        3.6629    4.4153    3.0940 H         1 RES1    0.0000
     45 N1         5.8030    2.2187    2.6946 N.am      1 RES1    0.0000
     46 H22        5.6138    2.2589    1.8559 H         1 RES1    0.0000
     47 N2         7.2166    1.5184    4.3888 N.am      1 RES1    0.0000
     48 N3         9.5626    1.1554    4.8582 N.pl3     1 RES1    0.0000
     49 N4        10.0684    1.7194    5.9816 N.2       1 RES1    0.0000
     50 N5        11.2319    2.2472    5.6534 N.2       1 RES1    0.0000
     51 N6        10.9401    6.6962    5.1019 N.pl3     1 RES1    0.0000
     52 O1         7.3611    0.6224    2.3012 O.2       1 RES1    0.0000
     53 O2        11.1955    7.2810    6.1373 O.2       1 RES1    0.0000
     54 O3        11.5297    6.8842    4.0497 O.2       1 RES1    0.0000
     55 O4         5.1135    3.8175    7.0435 O.2       1 RES1    0.0000
     56 O5         3.6178    4.4334    5.5219 O.3       1 RES1    0.0000
@<TRIPOS>BOND
     1    1    2 1
     2    3    1 1
     3    4    3 2
     4    5   45 1
     5    6    7 1
     6    8    6 1
     7    9   10 1
     8   11    9 2
     9   12   11 1
    10   13   12 ar
    11   14   13 1
    12   15   13 ar
    13   16   15 1
    14   17   15 ar
    15   18   17 1
    16   19   17 ar
    17   20   19 1
    18   21   12 ar
    19   22   21 1
    20   23    1 1
    21   24   23 ar
    22   25   24 1
    23   26   24 ar
    24   27   26 1
    25   28   26 ar
    26   29   28 ar
    27   30   29 1
    28   31   23 ar
    29   32   31 1
    30   33    3 1
    31   34   35 1
    32   36   34 1
    33   37   34 1
    34   38   37 1
    35   39   37 1
    36   40   37 1
    37   41    4 1
    38   42   41 1
    39   43   41 1
    40   44   41 1
    41   45    4 1
    42   46   45 1
    43   47    1 1
    44   48    6 1
    45   49   48 1
    46   50   11 1
    47   51   28 1
    48   52    5 2
    49   53   51 2
    50   54   51 2
    51   55   33 2
    52   56   33 1
    53    5   47 1
    54    6   47 1
    55    9   48 1
    56   19   21 ar
    57   29   31 ar
    58   34   56 1
    59   49   50 2
@<TRIPOS>SUBSTRUCTURE
     1 RES1 1

@<TRIPOS>CRYSIN
  29.1170   12.9670   12.0670  90.0000  90.0000  90.0000  41 1

