# MOL2 file generated by ConQuest
# Please check atom types

@<TRIPOS>MOLECULE
TEXXIF
    45    48     1
SMALL
NO_CHARGES
****
Generated from CSD

@<TRIPOS>ATOM
      1 O1         3.9540    2.7802    8.8322 O.3       1 RES1    0.0000
      2 O2        -0.5422   -2.2925   10.1188 O.2       1 RES1    0.0000
      3 O3        -1.2600   -0.2169   10.6559 O.3       1 RES1    0.0000
      4 N1         3.8881    1.7491    7.8746 N.2       1 RES1    0.0000
      5 C1         3.0028    2.6063    9.7824 C.2       1 RES1    0.0000
      6 C2         2.2786    1.4788    9.4713 C.2       1 RES1    0.0000
      7 C3         2.8929    0.9898    8.2837 C.2       1 RES1    0.0000
      8 C4         2.4271   -0.2093    7.6307 C.ar      1 RES1    0.0000
      9 C5         3.0170   -0.6813    6.4507 C.ar      1 RES1    0.0000
     10 H1         3.7411   -0.2063    6.0628 H         1 RES1    0.0000
     11 C6         2.5530   -1.8283    5.8506 C.ar      1 RES1    0.0000
     12 H2         2.9506   -2.1423    5.0469 H         1 RES1    0.0000
     13 C7         1.4964   -2.5261    6.4292 C.ar      1 RES1    0.0000
     14 H3         1.1763   -3.3188    6.0157 H         1 RES1    0.0000
     15 C8         0.9066   -2.0842    7.5928 C.ar      1 RES1    0.0000
     16 H4         0.1943   -2.5818    7.9733 H         1 RES1    0.0000
     17 C9         1.3464   -0.9053    8.2252 C.ar      1 RES1    0.0000
     18 C10        0.7208   -0.3618    9.4361 C.2       1 RES1    0.0000
     19 C11        1.1534    0.7884   10.0158 C.2       1 RES1    0.0000
     20 H5         0.7099    1.1324   10.7820 H         1 RES1    0.0000
     21 C12        2.9871    3.6047   10.8464 C.ar      1 RES1    0.0000
     22 C13        3.8904    4.6715   10.8300 C.ar      1 RES1    0.0000
     23 H6         4.5269    4.7383   10.1282 H         1 RES1    0.0000
     24 C14        3.8642    5.6325   11.8258 C.ar      1 RES1    0.0000
     25 H7         4.4834    6.3524   11.8033 H         1 RES1    0.0000
     26 C15        2.9392    5.5517   12.8556 C.ar      1 RES1    0.0000
     27 H8         2.9212    6.2147   13.5363 H         1 RES1    0.0000
     28 C16        2.0412    4.4940   12.8839 C.ar      1 RES1    0.0000
     29 H9         1.4046    4.4353   13.5870 H         1 RES1    0.0000
     30 C17        2.0655    3.5232   11.8975 C.ar      1 RES1    0.0000
     31 H10        1.4542    2.7979   11.9337 H         1 RES1    0.0000
     32 C18       -0.4123   -1.0932   10.0891 C.2       1 RES1    0.0000
     33 C19       -2.4351   -0.6709   11.4281 C.3       1 RES1    0.0000
     34 C20       -3.3516   -1.5211   10.5696 C.3       1 RES1    0.0000
     35 H11       -3.5195   -1.0644    9.7190 H         1 RES1    0.0000
     36 H12       -4.2011   -1.6612   11.0373 H         1 RES1    0.0000
     37 H13       -2.9259   -2.3872   10.3963 H         1 RES1    0.0000
     38 C21       -1.9657   -1.4011   12.6747 C.3       1 RES1    0.0000
     39 H14       -1.4973   -2.2225   12.4154 H         1 RES1    0.0000
     40 H15       -2.7398   -1.6282   13.2321 H         1 RES1    0.0000
     41 H16       -1.3575   -0.8245   13.1814 H         1 RES1    0.0000
     42 C22       -3.0982    0.6476   11.7843 C.3       1 RES1    0.0000
     43 H17       -2.4890    1.1795   12.3375 H         1 RES1    0.0000
     44 H18       -3.9241    0.4738   12.2814 H         1 RES1    0.0000
     45 H19       -3.3082    1.1397   10.9631 H         1 RES1    0.0000
@<TRIPOS>BOND
     1    1    4 1
     2    2   32 2
     3    3   32 1
     4    4    7 2
     5    5    1 1
     6    6    5 2
     7    7    6 1
     8    8    7 1
     9    9    8 ar
    10   10    9 1
    11   11    9 ar
    12   12   11 1
    13   13   11 ar
    14   14   13 1
    15   15   13 ar
    16   16   15 1
    17   17    8 ar
    18   18   17 1
    19   19    6 1
    20   20   19 1
    21   21    5 1
    22   22   21 ar
    23   23   22 1
    24   24   22 ar
    25   25   24 1
    26   26   24 ar
    27   27   26 1
    28   28   26 ar
    29   29   28 1
    30   30   21 ar
    31   31   30 1
    32   32   18 1
    33   33    3 1
    34   34   33 1
    35   35   34 1
    36   36   34 1
    37   37   34 1
    38   38   33 1
    39   39   38 1
    40   40   38 1
    41   41   38 1
    42   42   33 1
    43   43   42 1
    44   44   42 1
    45   45   42 1
    46   15   17 ar
    47   18   19 2
    48   28   30 ar
@<TRIPOS>SUBSTRUCTURE
     1 RES1 1

@<TRIPOS>CRYSIN
  31.2190    6.1210   18.8770  90.0000 106.4020  90.0000  15 1

