# MOL2 file generated by ConQuest
# Please check atom types

@<TRIPOS>MOLECULE
TEYFOU
    58    54     2
SMALL
NO_CHARGES
****
Generated from CSD

@<TRIPOS>ATOM
      1 C1         3.3821    0.5686    2.9962 C.ar      1 RES1    0.0000
      2 C2         3.6535    0.2281    1.6721 C.ar      1 RES1    0.0000
      3 H1         4.3979   -0.3377    1.4987 H         1 RES1    0.0000
      4 C3         1.9291    1.4602    0.9170 C.ar      1 RES1    0.0000
      5 H2         1.3924    1.7691    0.1962 H         1 RES1    0.0000
      6 C4         1.6101    1.8922    2.2058 C.ar      1 RES1    0.0000
      7 H3         0.8843    2.4896    2.3404 H         1 RES1    0.0000
      8 C5         2.3437    1.4539    3.2734 C.ar      1 RES1    0.0000
      9 C6         4.1831   -0.0168    4.0387 C.1       1 RES1    0.0000
     10 C7         2.0651    1.8712    4.6923 C.3       1 RES1    0.0000
     11 H4         1.8781    1.0753    5.2511 H         1 RES1    0.0000
     12 H5         2.8501    2.3412    5.0698 H         1 RES1    0.0000
     13 C8         0.5028    3.2147    5.8955 C.ar      1 RES1    0.0000
     14 C9         1.1065    3.0153    7.1114 C.ar      1 RES1    0.0000
     15 H6         1.9227    2.5303    7.1513 H         1 RES1    0.0000
     16 C10       -0.5654    4.1782    8.1459 C.ar      1 RES1    0.0000
     17 C11       -0.6465    3.9837    5.8933 C.ar      1 RES1    0.0000
     18 H7        -1.0648    4.1700    5.0607 H         1 RES1    0.0000
     19 C12       -0.6997    4.0121   10.5593 C.3       1 RES1    0.0000
     20 H8         0.2912    3.8877   10.5091 H         1 RES1    0.0000
     21 C13       -0.9804    4.9025   11.7557 C.3       1 RES1    0.0000
     22 H9        -0.7671    4.4191   12.5929 H         1 RES1    0.0000
     23 H10       -0.4127    5.7136   11.7112 H         1 RES1    0.0000
     24 C14       -2.7722    5.9999   10.5205 C.3       1 RES1    0.0000
     25 H11       -2.2300    6.8233   10.4327 H         1 RES1    0.0000
     26 H12       -3.7270    6.2600   10.5627 H         1 RES1    0.0000
     27 C15       -2.5334    5.0856    9.3081 C.3       1 RES1    0.0000
     28 H13       -2.6632    5.6466    8.4903 H         1 RES1    0.0000
     29 C16       -3.4267    4.0456    9.2260 C.3       1 RES1    0.0000
     30 C17       -2.9225    5.6939   12.9351 C.2       1 RES1    0.0000
     31 C18       -4.2720    6.4649   14.3117 C.2       1 RES1    0.0000
     32 C19       -5.3943    7.0823   15.0884 C.3       1 RES1    0.0000
     33 H14       -4.9958    7.7560   15.7112 H         1 RES1    0.0000
     34 C20       -6.0800    6.0316   15.9302 C.3       1 RES1    0.0000
     35 H15       -6.4666    5.3462   15.3462 H         1 RES1    0.0000
     36 H16       -6.7905    6.4495   16.4594 H         1 RES1    0.0000
     37 H17       -5.4264    5.6174   16.5312 H         1 RES1    0.0000
     38 C21       -6.3450    7.8181   14.1657 C.3       1 RES1    0.0000
     39 H18       -5.8335    8.4115   13.5761 H         1 RES1    0.0000
     40 H19       -6.9733    8.3481   14.6984 H         1 RES1    0.0000
     41 H20       -6.8413    7.1689   13.6240 H         1 RES1    0.0000
     42 N1         2.9343    0.6460    0.6410 N.ar      1 RES1    0.0000
     43 N2         4.8161   -0.5073    4.8554 N.1       1 RES1    0.0000
     44 N3         0.5704    3.4896    8.2462 N.ar      1 RES1    0.0000
     45 N4        -1.1973    4.4748    7.0019 N.ar      1 RES1    0.0000
     46 N5        -1.1193    4.6583    9.3172 N.3       1 RES1    0.0000
     47 N6        -2.3959    5.2827   11.7455 N.3       1 RES1    0.0000
     48 N7        -2.3128    5.4661   14.0756 N.2       1 RES1    0.0000
     49 N8        -4.1369    6.3293   13.0366 N.2       1 RES1    0.0000
     50 O1         0.9372    2.7370    4.6797 O.3       1 RES1    0.0000
     51 O2        -3.2584    5.9781   15.0257 O.3       1 RES1    0.0000
     52 H21       -3.1631    3.4454    8.4972 Du        2 SUP2    0.0000
     53 H22       -4.3241    4.3986    9.0492 Du        2 SUP2    0.0000
     54 H23       -3.4313    3.5508   10.0723 Du        2 SUP2    0.0000
     55 C22       -1.2604    2.7597   10.7509 Du        2 SUP2    0.0000
     56 H24       -0.8916    2.1331   10.0939 Du        2 SUP2    0.0000
     57 H25       -1.0556    2.4444   11.6554 Du        2 SUP2    0.0000
     58 H26       -2.2322    2.8164   10.6368 Du        2 SUP2    0.0000
@<TRIPOS>BOND
     1    1    2 ar
     2    2    3 1
     3    4    5 1
     4    6    4 ar
     5    7    6 1
     6    8    1 ar
     7    9    1 1
     8   10    8 1
     9   11   10 1
    10   12   10 1
    11   13   14 ar
    12   14   15 1
    13   16   44 ar
    14   17   13 ar
    15   18   17 1
    16   19   20 1
    17   21   19 1
    18   22   21 1
    19   23   21 1
    20   24   25 1
    21   26   24 1
    22   27   24 1
    23   28   27 1
    24   29   27 1
    25   30   47 1
    26   31   32 1
    27   32   33 1
    28   34   32 1
    29   35   34 1
    30   36   34 1
    31   37   34 1
    32   38   32 1
    33   39   38 1
    34   40   38 1
    35   41   38 1
    36   42    2 ar
    37   43    9 3
    38   44   14 ar
    39   45   16 ar
    40   46   16 1
    41   47   21 1
    42   48   30 2
    43   49   30 1
    44   50   10 1
    45   51   31 1
    46    4   42 ar
    47    6    8 ar
    48   13   50 1
    49   17   45 ar
    50   19   46 1
    51   24   47 1
    52   27   46 1
    53   31   49 2
    54   48   51 1
@<TRIPOS>SUBSTRUCTURE
     1 RES1 1
     2 SUP2 52

@<TRIPOS>CRYSIN
   9.1873   10.2806   11.8644  94.8760 103.7670 102.2450   2 1

