# MOL2 file generated by ConQuest
# Please check atom types

@<TRIPOS>MOLECULE
TEYHIO
    39    39     1
SMALL
NO_CHARGES
****
Generated from CSD

@<TRIPOS>ATOM
      1 N1         4.3236    1.2122   11.4370 N.am      1 RES1    0.0000
      2 N2         5.1174    5.3717    8.5130 N.1       1 RES1    0.0000
      3 N3         9.3177    3.3571    9.8893 N.pl3     1 RES1    0.0000
      4 O1         3.2296    1.7302    6.2200 O.2       1 RES1    0.0000
      5 O2         3.0107    3.9751    6.2723 O.3       1 RES1    0.0000
      6 O3         3.1326    0.2247    8.8704 O.2       1 RES1    0.0000
      7 O4         5.0630   -0.1960    7.7689 O.3       1 RES1    0.0000
      8 O5         4.5094    0.8146   13.6692 O.2       1 RES1    0.0000
      9 O6         2.5948    0.4211   12.5665 O.3       1 RES1    0.0000
     10 O7         9.4274    3.7526    8.7416 O.2       1 RES1    0.0000
     11 O8        10.2377    3.4318   10.7051 O.2       1 RES1    0.0000
     12 C1         5.5828    1.6995   11.0844 C.ar      1 RES1    0.0000
     13 C2         5.8066    2.0930    9.7385 C.ar      1 RES1    0.0000
     14 C3         7.0285    2.6311    9.3628 C.ar      1 RES1    0.0000
     15 C4         8.0467    2.7822   10.3233 C.ar      1 RES1    0.0000
     16 C5         7.8566    2.3898   11.6412 C.ar      1 RES1    0.0000
     17 C6         6.6382    1.8584   12.0279 C.ar      1 RES1    0.0000
     18 C7         4.7662    1.9454    8.6613 C.2       1 RES1    0.0000
     19 C8         4.3749    2.9828    7.9014 C.2       1 RES1    0.0000
     20 C9         3.4677    2.8107    6.7002 C.2       1 RES1    0.0000
     21 C10        2.0495    3.9359    5.1708 C.3       1 RES1    0.0000
     22 C11        4.7830    4.3293    8.2334 C.1       1 RES1    0.0000
     23 C12        4.2019    0.5628    8.4352 C.2       1 RES1    0.0000
     24 C13        4.6555   -1.5820    7.4917 C.3       1 RES1    0.0000
     25 C14        3.8760    0.8113   12.6613 C.2       1 RES1    0.0000
     26 C15        1.9467    0.0268   13.8041 C.3       1 RES1    0.0000
     27 H1         3.6601    1.0038   10.8498 H         1 RES1    0.0000
     28 H2         7.1994    2.9360    8.3294 H         1 RES1    0.0000
     29 H3         8.6615    2.4985   12.3671 H         1 RES1    0.0000
     30 H4         6.4859    1.5577   13.0637 H         1 RES1    0.0000
     31 H5         1.2364    3.2543    5.4200 H         1 RES1    0.0000
     32 H6         2.5486    3.5890    4.2650 H         1 RES1    0.0000
     33 H7         1.6483    4.9359    5.0042 H         1 RES1    0.0000
     34 H8         4.3189   -2.0541    8.4145 H         1 RES1    0.0000
     35 H9         5.5027   -2.1371    7.0881 H         1 RES1    0.0000
     36 H10        3.8420   -1.5841    6.7647 H         1 RES1    0.0000
     37 H11        2.1454    0.7741   14.5725 H         1 RES1    0.0000
     38 H12        2.3372   -0.9382   14.1263 H         1 RES1    0.0000
     39 H13        0.8717   -0.0514   13.6424 H         1 RES1    0.0000
@<TRIPOS>BOND
     1    1   12 1
     2    2   22 3
     3    3   10 2
     4    4   20 2
     5    5   20 1
     6    6   23 2
     7    7   23 1
     8    8   25 2
     9    9   25 1
    10   11    3 2
    11   12   13 ar
    12   13   14 ar
    13   14   15 ar
    14   15    3 1
    15   16   15 ar
    16   17   12 ar
    17   18   13 1
    18   19   18 2
    19   20   19 1
    20   21    5 1
    21   22   19 1
    22   23   18 1
    23   24    7 1
    24   25    1 1
    25   26    9 1
    26   27    1 1
    27   28   14 1
    28   29   16 1
    29   30   17 1
    30   31   21 1
    31   32   21 1
    32   33   21 1
    33   34   24 1
    34   35   24 1
    35   36   24 1
    36   37   26 1
    37   38   26 1
    38   39   26 1
    39   16   17 ar
@<TRIPOS>SUBSTRUCTURE
     1 RES1 1

@<TRIPOS>CRYSIN
   7.9768    9.2204   12.9466  70.5000  78.8080  69.3870   2 1

