# MOL2 file generated by ConQuest
# Please check atom types

@<TRIPOS>MOLECULE
TEZBAC
    53    54     1
SMALL
NO_CHARGES
****
Generated from CSD

@<TRIPOS>ATOM
      1 N1         2.2740    8.0760   -2.2603 N.pl3     1 RES1    0.0000
      2 C1         3.7879    6.7503    6.5288 C.2       1 RES1    0.0000
      3 O1         4.9581    6.7094    7.1710 O.3       1 RES1    0.0000
      4 O2         2.9619    7.6036    6.7102 O.2       1 RES1    0.0000
      5 C2         3.6582    5.6158    5.5580 C.3       1 RES1    0.0000
      6 H1         4.2927    4.8984    5.8082 H         1 RES1    0.0000
      7 H2         3.8977    5.9329    4.6515 H         1 RES1    0.0000
      8 O3         2.0106    4.4821    6.8180 O.3       1 RES1    0.0000
      9 C3         2.2442    5.0517    5.5359 C.3       1 RES1    0.0000
     10 H3         1.5998    5.8029    5.3951 H         1 RES1    0.0000
     11 O4         2.1379    4.8214    3.2168 O.3       1 RES1    0.0000
     12 C4         2.0181    3.9951    4.4451 C.3       1 RES1    0.0000
     13 O5         1.8100    3.1041    1.7943 O.2       1 RES1    0.0000
     14 C5         0.5917    3.4574    4.5722 C.3       1 RES1    0.0000
     15 H4        -0.0515    4.1708    4.3334 H         1 RES1    0.0000
     16 H5         0.4652    2.7061    3.9389 H         1 RES1    0.0000
     17 C6         0.3082    2.9752    5.9951 C.3       1 RES1    0.0000
     18 H6        -0.6472    2.7283    6.0767 H         1 RES1    0.0000
     19 H7         0.8520    2.1699    6.1862 H         1 RES1    0.0000
     20 O6         2.0640    7.6531   -3.3866 O.2       1 RES1    0.0000
     21 O7         2.4968    9.2531   -2.0223 O.2       1 RES1    0.0000
     22 C7         0.6421    4.0668    7.0031 C.3       1 RES1    0.0000
     23 H8         0.0453    4.8515    6.8347 H         1 RES1    0.0000
     24 C8         0.4580    3.6195    8.4371 C.2       1 RES1    0.0000
     25 C9        -0.7181    3.7677    9.0250 C.2       1 RES1    0.0000
     26 H9        -0.8486    3.4533    9.9123 H         1 RES1    0.0000
     27 H10       -1.4315    4.1885    8.5594 H         1 RES1    0.0000
     28 C10        1.6285    2.9673    9.1030 C.3       1 RES1    0.0000
     29 H11        1.3630    2.6470    9.9908 H         1 RES1    0.0000
     30 H12        2.3564    3.6181    9.1956 H         1 RES1    0.0000
     31 H13        1.9342    2.2111    8.5594 H         1 RES1    0.0000
     32 C11        3.0763    2.9035    4.4621 C.3       1 RES1    0.0000
     33 H14        2.8930    2.2601    3.7468 H         1 RES1    0.0000
     34 H15        3.0572    2.4435    5.3269 H         1 RES1    0.0000
     35 H16        3.9598    3.3033    4.3231 H         1 RES1    0.0000
     36 C12        5.2092    7.7544    8.1370 C.3       1 RES1    0.0000
     37 H17        4.5140    7.7459    8.8424 H         1 RES1    0.0000
     38 H18        5.2000    8.6409    7.6960 H         1 RES1    0.0000
     39 C13        6.5631    7.4814    8.7352 C.3       1 RES1    0.0000
     40 H19        6.7713    8.1709    9.4001 H         1 RES1    0.0000
     41 H20        7.2412    7.4942    8.0286 H         1 RES1    0.0000
     42 H21        6.5577    6.6021    9.1667 H         1 RES1    0.0000
     43 C14        2.0051    4.2743    2.0137 C.2       1 RES1    0.0000
     44 C15        2.1128    5.3110    0.9198 C.ar      1 RES1    0.0000
     45 C16        2.2763    6.6639    1.1879 C.ar      1 RES1    0.0000
     46 H22        2.3437    6.9627    2.0882 H         1 RES1    0.0000
     47 C17        2.3424    7.5861    0.1448 C.ar      1 RES1    0.0000
     48 H23        2.4593    8.5137    0.3181 H         1 RES1    0.0000
     49 C18        2.2341    7.1138   -1.1412 C.ar      1 RES1    0.0000
     50 C19        2.0776    5.7783   -1.4363 C.ar      1 RES1    0.0000
     51 H24        2.0145    5.4852   -2.3381 H         1 RES1    0.0000
     52 C20        2.0142    4.8628   -0.3831 C.ar      1 RES1    0.0000
     53 H25        1.9040    3.9369   -0.5618 H         1 RES1    0.0000
@<TRIPOS>BOND
     1    1   20 2
     2    2    3 1
     3    3   36 1
     4    4    2 2
     5    5    2 1
     6    6    5 1
     7    7    5 1
     8    8    9 1
     9    9    5 1
    10   10    9 1
    11   11   12 1
    12   12    9 1
    13   13   43 2
    14   14   12 1
    15   15   14 1
    16   16   14 1
    17   17   14 1
    18   18   17 1
    19   19   17 1
    20   21    1 2
    21   22    8 1
    22   23   22 1
    23   24   22 1
    24   25   24 2
    25   26   25 1
    26   27   25 1
    27   28   24 1
    28   29   28 1
    29   30   28 1
    30   31   28 1
    31   32   12 1
    32   33   32 1
    33   34   32 1
    34   35   32 1
    35   36   37 1
    36   38   36 1
    37   39   36 1
    38   40   39 1
    39   41   39 1
    40   42   39 1
    41   43   11 1
    42   44   43 1
    43   45   44 ar
    44   46   45 1
    45   47   45 ar
    46   48   47 1
    47   49    1 1
    48   50   49 ar
    49   51   50 1
    50   52   44 ar
    51   53   52 1
    52   17   22 1
    53   47   49 ar
    54   50   52 ar
@<TRIPOS>SUBSTRUCTURE
     1 RES1 1

@<TRIPOS>CRYSIN
   6.6300    7.3850   20.9600  84.0200  81.7800  84.9500   2 1

