# MOL2 file generated by ConQuest
# Please check atom types

@<TRIPOS>MOLECULE
TEZGOV
    52    54     1
SMALL
NO_CHARGES
****
Generated from CSD

@<TRIPOS>ATOM
      1 C1         4.7985    1.7449    8.2335 C.3       1 RES1    0.0000
      2 C2         5.1876    1.4303    6.7697 C.3       1 RES1    0.0000
      3 H1         5.9808    1.9720    6.5287 H         1 RES1    0.0000
      4 H2         5.4464    0.4771    6.7076 H         1 RES1    0.0000
      5 N1         4.1133    1.6957    5.7827 N.pl3     1 RES1    0.0000
      6 O1         3.3241    0.7873    5.5396 O.2       1 RES1    0.0000
      7 O2         4.0622    2.8049    5.2652 O.2       1 RES1    0.0000
      8 C3         6.1107    1.5069    8.9934 C.3       1 RES1    0.0000
      9 H3         6.7834    2.1543    8.6950 H         1 RES1    0.0000
     10 H4         6.4302    0.5982    8.8162 H         1 RES1    0.0000
     11 H5         5.9555    1.6173    9.9543 H         1 RES1    0.0000
     12 C4         3.7138    0.7549    8.6807 C.3       1 RES1    0.0000
     13 H6         2.9686    0.7756    8.0288 H         1 RES1    0.0000
     14 H7         4.0911   -0.1603    8.6795 H         1 RES1    0.0000
     15 C5         3.1732    1.0663   10.0623 C.3       1 RES1    0.0000
     16 H8         3.9039    0.9995   10.7276 H         1 RES1    0.0000
     17 H9         2.4767    0.4049   10.3022 H         1 RES1    0.0000
     18 C6         2.5765    2.4754   10.0974 C.3       1 RES1    0.0000
     19 H10        2.2298    2.6547   11.0065 H         1 RES1    0.0000
     20 H11        1.8128    2.5164    9.4697 H         1 RES1    0.0000
     21 C7         3.5936    3.5752    9.7227 C.3       1 RES1    0.0000
     22 C8         4.5851    3.7525   10.8863 C.3       1 RES1    0.0000
     23 H12        5.0567    2.9079   11.0445 H         1 RES1    0.0000
     24 H13        4.0962    4.0101   11.6953 H         1 RES1    0.0000
     25 H14        5.2338    4.4518   10.6600 H         1 RES1    0.0000
     26 C9         2.8922    4.9294    9.5316 C.ar      1 RES1    0.0000
     27 C10        1.8204    5.2972   10.3611 C.ar      1 RES1    0.0000
     28 H15        1.5243    4.6891   11.0290 H         1 RES1    0.0000
     29 C11        1.1818    6.5191   10.2347 C.ar      1 RES1    0.0000
     30 H16        0.4626    6.7321   10.8177 H         1 RES1    0.0000
     31 C12        1.5753    7.4398    9.2703 C.ar      1 RES1    0.0000
     32 C13        0.8297    8.7510    9.0882 C.3       1 RES1    0.0000
     33 H17        0.2885    8.8974    9.9163 H         1 RES1    0.0000
     34 C14        1.7441    9.9564    8.9358 C.3       1 RES1    0.0000
     35 H18        1.2024   10.7655    8.8204 H         1 RES1    0.0000
     36 H19        2.3178    9.8333    8.1513 H         1 RES1    0.0000
     37 H20        2.3016   10.0474    9.7374 H         1 RES1    0.0000
     38 C15       -0.1543    8.6550    7.9202 C.3       1 RES1    0.0000
     39 H21       -0.7429    7.8820    8.0513 H         1 RES1    0.0000
     40 H22        0.3431    8.5488    7.0822 H         1 RES1    0.0000
     41 H23       -0.6933    9.4724    7.8781 H         1 RES1    0.0000
     42 C16        2.6465    7.0861    8.4618 C.ar      1 RES1    0.0000
     43 H24        2.9423    7.7034    7.8034 H         1 RES1    0.0000
     44 C17        3.3110    5.8574    8.5749 C.ar      1 RES1    0.0000
     45 C18        4.4404    5.5644    7.6054 C.3       1 RES1    0.0000
     46 H25        5.0688    6.3296    7.6104 H         1 RES1    0.0000
     47 H26        4.0638    5.4916    6.6921 H         1 RES1    0.0000
     48 C19        5.2153    4.2948    7.9164 C.3       1 RES1    0.0000
     49 H27        5.8664    4.4689    8.6415 H         1 RES1    0.0000
     50 H28        5.7156    4.0016    7.1132 H         1 RES1    0.0000
     51 C20        4.2410    3.1977    8.3480 C.3       1 RES1    0.0000
     52 H29        3.4919    3.2407    7.6879 H         1 RES1    0.0000
@<TRIPOS>BOND
     1    1    2 1
     2    2    3 1
     3    4    2 1
     4    5    2 1
     5    6    5 2
     6    7    5 2
     7    8    1 1
     8    9    8 1
     9   10    8 1
    10   11    8 1
    11   12    1 1
    12   13   12 1
    13   14   12 1
    14   15   12 1
    15   16   15 1
    16   17   15 1
    17   18   15 1
    18   19   18 1
    19   20   18 1
    20   21   18 1
    21   22   21 1
    22   23   22 1
    23   24   22 1
    24   25   22 1
    25   26   21 1
    26   27   26 ar
    27   28   27 1
    28   29   27 ar
    29   30   29 1
    30   31   29 ar
    31   32   31 1
    32   33   32 1
    33   34   32 1
    34   35   34 1
    35   36   34 1
    36   37   34 1
    37   38   32 1
    38   39   38 1
    39   40   38 1
    40   41   38 1
    41   42   31 ar
    42   43   42 1
    43   44   26 ar
    44   45   44 1
    45   46   45 1
    46   47   45 1
    47   48   45 1
    48   49   48 1
    49   50   48 1
    50   51    1 1
    51   52   51 1
    52   21   51 1
    53   42   44 ar
    54   48   51 1
@<TRIPOS>SUBSTRUCTURE
     1 RES1 1

@<TRIPOS>CRYSIN
  10.1215   12.2335   14.0856  90.0000  90.0000  90.0000  19 1

