# MOL2 file generated by ConQuest
# Please check atom types

@<TRIPOS>MOLECULE
TIBDIS
    33    35     1
SMALL
NO_CHARGES
****
Generated from CSD

@<TRIPOS>ATOM
      1 O1        19.3589    1.3621    0.8267 O.3       1 RES1    0.0000
      2 O2        19.9759    4.5730   -0.3420 O.2       1 RES1    0.0000
      3 N1        19.1572    2.4841    0.0030 N.am      1 RES1    0.0000
      4 C1        17.8184    2.6673   -0.4560 C.ar      1 RES1    0.0000
      5 C2        16.8394    1.7754   -0.0287 C.ar      1 RES1    0.0000
      6 C3        15.5381    1.9056   -0.5047 C.ar      1 RES1    0.0000
      7 C4        15.2022    2.9126   -1.3919 C.ar      1 RES1    0.0000
      8 C5        16.1855    3.7938   -1.8175 C.ar      1 RES1    0.0000
      9 C6        17.4944    3.6777   -1.3647 C.ar      1 RES1    0.0000
     10 C7        20.1572    3.4087    0.0160 C.2       1 RES1    0.0000
     11 C8        22.2535    3.8011    1.2366 C.ar      1 RES1    0.0000
     12 C9        21.5148    2.9464    0.4536 C.ar      1 RES1    0.0000
     13 C10       22.0788    1.7196    0.0080 C.ar      1 RES1    0.0000
     14 C11       23.3491    1.3729    0.3839 C.ar      1 RES1    0.0000
     15 C12       24.1217    2.2248    1.2135 C.ar      1 RES1    0.0000
     16 C13       25.4391    1.8882    1.6211 C.ar      1 RES1    0.0000
     17 C14       26.1599    2.7327    2.4220 C.ar      1 RES1    0.0000
     18 C15       25.6041    3.9618    2.8492 C.ar      1 RES1    0.0000
     19 C16       24.3436    4.3198    2.4603 C.ar      1 RES1    0.0000
     20 C17       23.5676    3.4612    1.6405 C.ar      1 RES1    0.0000
     21 H1        19.4688    0.6315    0.2156 H         1 RES1    0.0000
     22 H2        17.0583    1.0825    0.5837 H         1 RES1    0.0000
     23 H3        14.8721    1.2939   -0.2164 H         1 RES1    0.0000
     24 H4        14.3100    3.0000   -1.7057 H         1 RES1    0.0000
     25 H5        15.9618    4.4867   -2.4268 H         1 RES1    0.0000
     26 H6        18.1630    4.2798   -1.6706 H         1 RES1    0.0000
     27 H7        21.8785    4.6299    1.5101 H         1 RES1    0.0000
     28 H8        21.5754    1.1400   -0.5510 H         1 RES1    0.0000
     29 H9        23.7183    0.5497    0.0846 H         1 RES1    0.0000
     30 H10       25.8251    1.0684    1.3352 H         1 RES1    0.0000
     31 H11       27.0377    2.4926    2.6927 H         1 RES1    0.0000
     32 H12       26.1106    4.5403    3.4082 H         1 RES1    0.0000
     33 H13       23.9841    5.1520    2.7430 H         1 RES1    0.0000
@<TRIPOS>BOND
     1    1    3 1
     2    2   10 2
     3    3    4 1
     4    4    5 ar
     5    5    6 ar
     6    6    7 ar
     7    7    8 ar
     8    8    9 ar
     9    9    4 ar
    10   10    3 1
    11   11   12 ar
    12   12   10 1
    13   13   12 ar
    14   14   13 ar
    15   15   14 ar
    16   16   15 ar
    17   17   16 ar
    18   18   17 ar
    19   19   18 ar
    20   20   11 ar
    21   21    1 1
    22   22    5 1
    23   23    6 1
    24   24    7 1
    25   25    8 1
    26   26    9 1
    27   27   11 1
    28   28   13 1
    29   29   14 1
    30   30   16 1
    31   31   17 1
    32   32   18 1
    33   33   19 1
    34   15   20 ar
    35   19   20 ar
@<TRIPOS>SUBSTRUCTURE
     1 RES1 1

@<TRIPOS>CRYSIN
  27.6430    5.6380    8.0180  90.0000  95.1601  90.0000  14 1

