# MOL2 file generated by ConQuest
# Please check atom types

@<TRIPOS>MOLECULE
TIBMIA
    20    20     1
SMALL
NO_CHARGES
****
Generated from CSD

@<TRIPOS>ATOM
      1 N1         6.7388   -0.2817    1.7446 N.pl3     1 RES1    0.0000
      2 O1         6.7388   -1.6095    1.7446 O.2       1 RES1    0.0000
      3 C1         7.4523    0.3580    2.7215 C.ar      1 RES1    0.0000
      4 N2         8.0763   -0.4600    3.5520 N.3       1 RES1    0.0000
      5 H1         8.5633   -0.1915    4.2044 H         1 RES1    0.0000
      6 H2         7.9703   -1.3087    3.3475 H         1 RES1    0.0000
      7 C2         7.4144    1.7746    2.7257 C.ar      1 RES1    0.0000
      8 N3         8.0754    2.5133    3.7627 N.pl3     1 RES1    0.0000
      9 O2         8.7126    1.9015    4.6175 O.2       1 RES1    0.0000
     10 O3         7.9825    3.7274    3.7739 O.2       1 RES1    0.0000
     11 C3         6.7388    2.4634    1.7446 C.ar      1 RES1    0.0000
     12 H3         6.7388    3.3643    1.7446 H         1 RES1    0.0000
     13 C2A        6.0632    1.7746    0.7634 C.ar      1 RES1    0.0000
     14 C1A        6.0253    0.3580    0.7676 C.ar      1 RES1    0.0000
     15 N2A        5.4013   -0.4600   -0.0628 N.3       1 RES1    0.0000
     16 H1A        4.9143   -0.1915   -0.7153 H         1 RES1    0.0000
     17 H2A        5.5073   -1.3087    0.1417 H         1 RES1    0.0000
     18 N3A        5.4022    2.5133   -0.2735 N.pl3     1 RES1    0.0000
     19 O2A        4.7650    1.9015   -1.1284 O.2       1 RES1    0.0000
     20 O3A        5.4951    3.7274   -0.2847 O.2       1 RES1    0.0000
@<TRIPOS>BOND
     1    1    2 1
     2    3    1 ar
     3    4    3 1
     4    5    4 1
     5    6    4 1
     6    7    3 ar
     7    8    7 1
     8    9    8 2
     9   10    8 2
    10   11    7 ar
    11   12   11 1
    12   13   11 ar
    13   14    1 ar
    14   15   14 1
    15   16   15 1
    16   17   15 1
    17   18   13 1
    18   19   18 2
    19   20   18 2
    20   13   14 ar
@<TRIPOS>SUBSTRUCTURE
     1 RES1 1

@<TRIPOS>CRYSIN
  14.8640    7.3360    7.5090  90.0000 111.6700  90.0000  15 1

