# MOL2 file generated by ConQuest
# Please check atom types

@<TRIPOS>MOLECULE
TICKIC
    25    26     1
SMALL
NO_CHARGES
****
Generated from CSD

@<TRIPOS>ATOM
      1 O1         1.3810   -0.4241   14.7085 O.2       1 RES1    0.0000
      2 O2         0.0972    1.1696   15.4509 O.2       1 RES1    0.0000
      3 O3         2.2831    0.4463   11.6561 O.2       1 RES1    0.0000
      4 O4         2.9391    1.5840   13.3775 O.2       1 RES1    0.0000
      5 O5        -1.0054    2.7703   13.1951 O.2       1 RES1    0.0000
      6 O6         1.0261    3.4629   13.5299 O.2       1 RES1    0.0000
      7 O7         0.5954    2.3551   10.6837 O.2       1 RES1    0.0000
      8 O8        -0.1351    1.1739    9.0124 O.2       1 RES1    0.0000
      9 N1        -0.2405    0.3960   12.4241 N.3       1 RES1    0.0000
     10 N2        -1.0227   -0.5143   13.0693 N.2       1 RES1    0.0000
     11 N3         0.7146    0.5733   14.6053 N.pl3     1 RES1    0.0000
     12 N4         2.1087    1.0691   12.6745 N.pl3     1 RES1    0.0000
     13 N5         0.1861    2.6314   13.3092 N.pl3     1 RES1    0.0000
     14 N6         0.0103    1.3987   10.1941 N.pl3     1 RES1    0.0000
     15 N7        -2.7585   -1.9373   12.4399 N.pl3     1 RES1    0.0000
     16 N8        -3.6206   -2.3909   11.4999 N.2       1 RES1    0.0000
     17 N9        -4.3787   -3.2297   12.0980 N.2       1 RES1    0.0000
     18 N10       -4.0403   -3.3618   13.4170 N.2       1 RES1    0.0000
     19 C1        -1.8007   -0.9752   12.1224 C.2       1 RES1    0.0000
     20 C2        -1.5829   -0.4126   10.8577 C.2       1 RES1    0.0000
     21 C3        -0.5858    0.4643   11.1051 C.2       1 RES1    0.0000
     22 C4         0.6554    1.1559   13.1833 C.3       1 RES1    0.0000
     23 C5        -3.0287   -2.5568   13.5968 C.2       1 RES1    0.0000
     24 H1        -2.0536   -0.5722   10.0577 H         1 RES1    0.0000
     25 H2        -2.5911   -2.4270   14.3556 H         1 RES1    0.0000
@<TRIPOS>BOND
     1    1   11 2
     2    2   11 2
     3    3   12 2
     4    4   12 2
     5    5   13 2
     6    6   13 2
     7    7   14 2
     8    8   14 2
     9    9   10 1
    10   10   19 2
    11   11   22 1
    12   12   22 1
    13   13   22 1
    14   14   21 1
    15   15   16 1
    16   16   17 2
    17   17   18 1
    18   18   23 2
    19   19   15 1
    20   20   19 1
    21   21    9 1
    22   22    9 1
    23   23   15 1
    24   24   20 1
    25   25   23 1
    26   20   21 2
@<TRIPOS>SUBSTRUCTURE
     1 RES1 1

@<TRIPOS>CRYSIN
   6.8912   11.8969   14.7086  90.0000  90.0000  90.0000  19 1

