# MOL2 file generated by ConQuest
# Please check atom types

@<TRIPOS>MOLECULE
TICPIE
    36    38     1
SMALL
NO_CHARGES
****
Generated from CSD

@<TRIPOS>ATOM
      1 C1         0.1462    5.4049   -2.4368 C.ar      1 RES1    0.0000
      2 C2         1.0011    5.6048   -1.3854 C.ar      1 RES1    0.0000
      3 C3         2.2939    6.1305   -1.6383 C.ar      1 RES1    0.0000
      4 C4         2.6681    6.4514   -2.8998 C.ar      1 RES1    0.0000
      5 C5         1.8107    6.2503   -4.0024 C.ar      1 RES1    0.0000
      6 C6         2.1787    6.5547   -5.3432 C.ar      1 RES1    0.0000
      7 C7         1.3159    6.3208   -6.3682 C.ar      1 RES1    0.0000
      8 C8         0.0451    5.7730   -6.1235 C.ar      1 RES1    0.0000
      9 C9        -0.3413    5.4611   -4.8638 C.ar      1 RES1    0.0000
     10 C10        0.5180    5.6992   -3.7594 C.ar      1 RES1    0.0000
     11 C11        0.5125    5.3030   -0.0116 C.2       1 RES1    0.0000
     12 C12        1.5039    5.1191    1.0862 C.2       1 RES1    0.0000
     13 C13        1.1081    5.2175    2.3426 C.2       1 RES1    0.0000
     14 C14        1.8911    4.9860    3.5594 C.ar      1 RES1    0.0000
     15 C15        1.2950    5.2569    4.7828 C.ar      1 RES1    0.0000
     16 C16        1.9224    4.9934    5.9731 C.ar      1 RES1    0.0000
     17 C17        3.1994    4.4756    5.9218 C.ar      1 RES1    0.0000
     18 C18        3.8497    4.2136    4.7332 C.ar      1 RES1    0.0000
     19 C19        3.1827    4.4584    3.5610 C.ar      1 RES1    0.0000
     20 O1        -0.6840    5.1907    0.2083 O.2       1 RES1    0.0000
     21 N1         3.8894    4.1933    7.1915 N.pl3     1 RES1    0.0000
     22 O2         5.1022    4.2266    7.2047 O.2       1 RES1    0.0000
     23 O3         3.2148    3.9555    8.1686 O.2       1 RES1    0.0000
     24 H1        -0.6994    5.0798   -2.2153 H         1 RES1    0.0000
     25 H2         2.9495    6.2122   -0.9589 H         1 RES1    0.0000
     26 H3         3.4786    6.7917   -3.0585 H         1 RES1    0.0000
     27 H4         2.8874    6.5139   -5.6044 H         1 RES1    0.0000
     28 H5         1.5909    6.5767   -7.2742 H         1 RES1    0.0000
     29 H6        -0.5200    5.6343   -6.7617 H         1 RES1    0.0000
     30 H7        -1.2208    5.1077   -4.7117 H         1 RES1    0.0000
     31 H8         2.4547    4.8475    0.7274 H         1 RES1    0.0000
     32 H9         0.1492    5.5054    2.5956 H         1 RES1    0.0000
     33 H10        0.4234    5.5908    4.7778 H         1 RES1    0.0000
     34 H11        1.5284    5.1829    6.8443 H         1 RES1    0.0000
     35 H12        4.7011    3.8683    4.7447 H         1 RES1    0.0000
     36 H13        3.5812    4.2894    2.8270 H         1 RES1    0.0000
@<TRIPOS>BOND
     1    1    2 ar
     2    2    3 ar
     3    3    4 ar
     4    4    5 ar
     5    5    6 ar
     6    6    7 ar
     7    7    8 ar
     8    8    9 ar
     9    9   10 ar
    10   10    1 ar
    11   11    2 1
    12   12   11 1
    13   13   12 2
    14   14   13 1
    15   15   14 ar
    16   16   15 ar
    17   17   16 ar
    18   18   17 ar
    19   19   14 ar
    20   20   11 2
    21   21   17 1
    22   22   21 2
    23   23   21 2
    24   24    1 1
    25   25    3 1
    26   26    4 1
    27   27    6 1
    28   28    7 1
    29   29    8 1
    30   30    9 1
    31   31   12 1
    32   32   13 1
    33   33   15 1
    34   34   16 1
    35   35   18 1
    36   36   19 1
    37    5   10 ar
    38   18   19 ar
@<TRIPOS>SUBSTRUCTURE
     1 RES1 1

@<TRIPOS>CRYSIN
   6.0600    7.1850   16.8720 101.4400  91.9300  86.9300   2 1

