# MOL2 file generated by ConQuest
# Please check atom types

@<TRIPOS>MOLECULE
TICTOO
    37    39     1
SMALL
NO_CHARGES
****
Generated from CSD

@<TRIPOS>ATOM
      1 C1         5.5334   15.3814    6.1633 C.ar      1 RES1    0.0000
      2 C2         4.7946   16.5073    5.8230 C.ar      1 RES1    0.0000
      3 H1         5.0360   17.3465    6.1908 H         1 RES1    0.0000
      4 C3         3.7371   16.4027    4.9601 C.ar      1 RES1    0.0000
      5 N1         2.9855   17.6135    4.5890 N.pl3     1 RES1    0.0000
      6 O1         3.1508   18.6169    5.2513 O.2       1 RES1    0.0000
      7 O2         2.2589   17.5599    3.6188 O.2       1 RES1    0.0000
      8 C4         3.3391   15.1901    4.4184 C.ar      1 RES1    0.0000
      9 H2         2.5698   15.1584    3.8942 H         1 RES1    0.0000
     10 C5         3.6184   12.7111    4.2545 C.3       1 RES1    0.0000
     11 H3         2.9427   12.8162    3.5614 H         1 RES1    0.0000
     12 H4         4.3748   12.2431    3.9691 H         1 RES1    0.0000
     13 O3         2.9791   11.9392    5.2888 O.3       1 RES1    0.0000
     14 C6         3.6660   11.9329    6.5627 C.3       1 RES1    0.0000
     15 H5         3.2399   11.1620    7.0395 H         1 RES1    0.0000
     16 H6         3.4711   12.7706    7.0894 H         1 RES1    0.0000
     17 C7         5.7789   10.5842    6.6817 C.ar      1 RES1    0.0000
     18 H7         5.2851    9.9269    7.0145 H         1 RES1    0.0000
     19 C8         7.1321   10.4646    6.4495 C.ar      1 RES1    0.0000
     20 N2         7.7862    9.1769    6.7100 N.pl3     1 RES1    0.0000
     21 O4         7.0869    8.2129    6.9313 O.2       1 RES1    0.0000
     22 O5         8.9887    9.1066    6.6309 O.2       1 RES1    0.0000
     23 C9         7.8830   11.4894    5.9195 C.ar      1 RES1    0.0000
     24 H8         8.8424   11.4030    5.7664 H         1 RES1    0.0000
     25 C10        7.2740   12.7076    5.6224 C.ar      1 RES1    0.0000
     26 C11        8.1187   13.7535    4.9501 C.3       1 RES1    0.0000
     27 H9         7.6427   14.3270    4.4683 H         1 RES1    0.0000
     28 H10        8.6861   13.4435    4.2021 H         1 RES1    0.0000
     29 H11        8.3452   14.5007    5.5417 H         1 RES1    0.0000
     30 C12        6.6532   15.5496    7.1527 C.3       1 RES1    0.0000
     31 H12        6.9767   14.7829    7.4389 H         1 RES1    0.0000
     32 H13        6.2925   16.0636    7.9215 H         1 RES1    0.0000
     33 H14        7.5206   16.0050    6.6817 H         1 RES1    0.0000
     34 C13        4.0588   14.0563    4.7546 C.ar      1 RES1    0.0000
     35 C14        5.1783   14.1451    5.6033 C.ar      1 RES1    0.0000
     36 C15        5.9095   12.8713    5.9029 C.ar      1 RES1    0.0000
     37 C16        5.1579   11.7918    6.4038 C.ar      1 RES1    0.0000
@<TRIPOS>BOND
     1    1    2 ar
     2    2    3 1
     3    4    2 ar
     4    5    4 1
     5    6    5 2
     6    7    5 2
     7    8    4 ar
     8    9    8 1
     9   10   11 1
    10   12   10 1
    11   13   10 1
    12   14   13 1
    13   15   14 1
    14   16   14 1
    15   17   18 1
    16   19   17 ar
    17   20   19 1
    18   21   20 2
    19   22   20 2
    20   23   19 ar
    21   24   23 1
    22   25   23 ar
    23   26   25 1
    24   27   26 1
    25   28   26 1
    26   29   26 1
    27   30    1 1
    28   31   30 1
    29   32   30 1
    30   33   30 1
    31   34    8 ar
    32   35    1 ar
    33   36   25 ar
    34   37   14 1
    35   10   34 1
    36   17   37 ar
    37   34   35 ar
    38   35   36 1
    39   36   37 ar
@<TRIPOS>SUBSTRUCTURE
     1 RES1 1

@<TRIPOS>CRYSIN
   8.1693   21.7076    8.3750  90.0000  96.5150  90.0000  14 1

