# MOL2 file generated by ConQuest
# Please check atom types

@<TRIPOS>MOLECULE
TICVIL
    64    66     1
SMALL
USER_CHARGES
****
Generated from CSD

@<TRIPOS>ATOM
      1 O1         6.1441    2.5422    6.6762 O.2       1 RES1   -1.0000
      2 O2         8.7984    0.3316    3.6188 O.2       1 RES1    0.0000
      3 O3         3.3908   -2.6341    1.2872 O.2       1 RES1   -1.0000
      4 O4         1.0275   -0.3872    4.5580 O.2       1 RES1    0.0000
      5 O5         6.2233    1.7938    2.4532 O.3       1 RES1    0.0000
      6 O6         3.9255    0.5249    1.4585 O.3       1 RES1    0.0000
      7 N1         7.1690    2.2004    5.9816 N.pl3     1 RES1    1.0000
      8 N2         8.4320    1.1499    4.5238 N.3       1 RES1    0.0000
      9 N3         2.4190   -2.2124    2.0056 N.pl3     1 RES1    1.0000
     10 N4         1.2896   -1.1539    3.5709 N.3       1 RES1    0.0000
     11 C1         6.0081    0.5666    4.4853 C.ar      1 RES1    0.0000
     12 C2         5.5653    0.8475    3.1870 C.ar      1 RES1    0.0000
     13 C3         4.4031    0.2218    2.7125 C.ar      1 RES1    0.0000
     14 C4         3.7348   -0.7012    3.5127 C.ar      1 RES1    0.0000
     15 C5         4.1958   -0.9875    4.7975 C.ar      1 RES1    0.0000
     16 C6         5.3277   -0.3483    5.2813 C.ar      1 RES1    0.0000
     17 C7         7.1870    1.2873    4.9973 C.2       1 RES1    0.0000
     18 C8         8.4681    2.9654    6.0362 C.3       1 RES1    0.0000
     19 C9         9.4211    1.9753    5.3028 C.3       1 RES1    0.0000
     20 C10        8.2196    4.2621    5.2682 C.3       1 RES1    0.0000
     21 C11        8.8336    3.2700    7.4793 C.3       1 RES1    0.0000
     22 C12       10.4070    2.6074    4.3375 C.3       1 RES1    0.0000
     23 C13       10.1439    1.0133    6.2423 C.3       1 RES1    0.0000
     24 C14        2.5055   -1.3456    3.0265 C.2       1 RES1    0.0000
     25 C15        1.0436   -2.8244    1.9194 C.3       1 RES1    0.0000
     26 C16        0.2093   -1.8095    2.7557 C.3       1 RES1    0.0000
     27 C17        0.6233   -2.9371    0.4660 C.3       1 RES1    0.0000
     28 C18        1.1595   -4.2013    2.5681 C.3       1 RES1    0.0000
     29 C19       -0.4149   -0.6936    1.9122 C.3       1 RES1    0.0000
     30 C20       -0.8350   -2.4144    3.6739 C.3       1 RES1    0.0000
     31 C21        6.8996    1.2695    1.2808 C.3       1 RES1    0.0000
     32 C22        2.9569    1.5785    1.4639 C.3       1 RES1    0.0000
     33 H1         3.7339   -1.6298    5.3426 H         1 RES1    0.0000
     34 H2         5.6601   -0.5360    6.1750 H         1 RES1    0.0000
     35 H3         7.9503    4.0937    4.3277 H         1 RES1    0.0000
     36 H4         7.5207    4.7568    5.7103 H         1 RES1    0.0000
     37 H5         9.0470    4.7732    5.2456 H         1 RES1    0.0000
     38 H6         8.1358    3.8394    7.8442 H         1 RES1    0.0000
     39 H7         8.8917    2.4188    7.9782 H         1 RES1    0.0000
     40 H8         9.6908    3.7054    7.4594 H         1 RES1    0.0000
     41 H9         9.9474    3.0655    3.5693 H         1 RES1    0.0000
     42 H10       10.9880    1.9470    3.9670 H         1 RES1    0.0000
     43 H11       10.9464    3.2378    4.8308 H         1 RES1    0.0000
     44 H12       10.6120    0.3596    5.7046 H         1 RES1    0.0000
     45 H13        9.4923    0.5838    6.8735 H         1 RES1    0.0000
     46 H14       10.8188    1.4972    6.7566 H         1 RES1    0.0000
     47 H15        0.7914   -2.0687   -0.0456 H         1 RES1    0.0000
     48 H16        1.1533   -3.6138    0.0214 H         1 RES1    0.0000
     49 H17       -0.3527   -3.2815    0.4847 H         1 RES1    0.0000
     50 H18        1.8217   -4.7090    2.0583 H         1 RES1    0.0000
     51 H19        0.3144   -4.6557    2.4632 H         1 RES1    0.0000
     52 H20        1.4662   -4.1101    3.5408 H         1 RES1    0.0000
     53 H21        0.2543   -0.2680    1.3014 H         1 RES1    0.0000
     54 H22       -1.1547   -1.0692    1.3442 H         1 RES1    0.0000
     55 H23       -0.8423   -0.0314    2.5359 H         1 RES1    0.0000
     56 H24       -1.4633   -2.9123    3.1531 H         1 RES1    0.0000
     57 H25       -1.3290   -1.7378    4.1381 H         1 RES1    0.0000
     58 H26       -0.4358   -2.9889    4.3291 H         1 RES1    0.0000
     59 H27        7.4769    2.0318    0.9379 H         1 RES1    0.0000
     60 H28        7.4224    0.4991    1.5623 H         1 RES1    0.0000
     61 H29        6.2487    1.0460    0.5859 H         1 RES1    0.0000
     62 H30        3.4561    2.4420    1.8032 H         1 RES1    0.0000
     63 H31        2.6979    1.6968    0.5559 H         1 RES1    0.0000
     64 H32        2.2055    1.3235    2.0241 H         1 RES1    0.0000
@<TRIPOS>BOND
     1    1    7 1
     2    2    8 1
     3    3    9 1
     4    4   10 1
     5    5   12 1
     6    6   13 1
     7    7   17 2
     8    8   17 1
     9    9   24 2
    10   10   24 1
    11   11   12 ar
    12   12   13 ar
    13   13   14 ar
    14   14   15 ar
    15   15   16 ar
    16   16   11 ar
    17   17   11 1
    18   18    7 1
    19   19    8 1
    20   20   18 1
    21   21   18 1
    22   22   19 1
    23   23   19 1
    24   24   14 1
    25   25    9 1
    26   26   10 1
    27   27   25 1
    28   28   25 1
    29   29   26 1
    30   30   26 1
    31   31    5 1
    32   32    6 1
    33   33   15 1
    34   34   16 1
    35   35   20 1
    36   36   20 1
    37   37   20 1
    38   38   21 1
    39   39   21 1
    40   40   21 1
    41   41   22 1
    42   42   22 1
    43   43   22 1
    44   44   23 1
    45   45   23 1
    46   46   23 1
    47   47   27 1
    48   48   27 1
    49   49   27 1
    50   50   28 1
    51   51   28 1
    52   52   28 1
    53   53   29 1
    54   54   29 1
    55   55   29 1
    56   56   30 1
    57   57   30 1
    58   58   30 1
    59   59   31 1
    60   60   31 1
    61   61   31 1
    62   62   32 1
    63   63   32 1
    64   64   32 1
    65   18   19 1
    66   25   26 1
@<TRIPOS>SUBSTRUCTURE
     1 RES1 1

@<TRIPOS>CRYSIN
  11.8145   13.6730   14.3238  90.0000  95.6400  90.0000  14 2

