# MOL2 file generated by ConQuest
# Please check atom types

@<TRIPOS>MOLECULE
TICWUY
    51    52     1
SMALL
USER_CHARGES
****
Generated from CSD

@<TRIPOS>ATOM
      1 C1         6.5113   -7.1807    9.8936 C.3       1 RES1    0.0000
      2 C2         6.7670   -5.8088   11.9987 C.3       1 RES1    0.0000
      3 C3         4.5584   -6.8028   11.4003 C.3       1 RES1    0.0000
      4 C4         5.8530   -6.2236   10.8617 C.3       1 RES1    0.0000
      5 C5         6.2248   -4.2172    9.4981 C.2       1 RES1    0.0000
      6 C6         5.9948   -2.0954    8.2311 C.ar      1 RES1    0.0000
      7 C7         5.0797   -1.3643    7.4721 C.ar      1 RES1    0.0000
      8 C8         5.4362   -0.1904    6.8719 C.ar      1 RES1    0.0000
      9 C9         7.2957   -1.6178    8.3354 C.ar      1 RES1    0.0000
     10 C10        7.6539   -0.4358    7.7164 C.ar      1 RES1    0.0000
     11 C11        6.7338    0.3081    6.9843 C.ar      1 RES1    0.0000
     12 C12        7.0799    1.5779    6.3580 C.2       1 RES1    0.0000
     13 C13        6.8023    3.6438    5.2403 C.3       1 RES1    0.0000
     14 C14        6.2963    3.2793    3.8424 C.3       1 RES1    0.0000
     15 C15        6.3198    5.0161    5.6648 C.3       1 RES1    0.0000
     16 C16        8.3163    3.3802    5.4430 C.3       1 RES1    0.0000
     17 C17        9.1892    3.5574    4.2190 C.3       1 RES1    0.0000
     18 C18        8.9197    4.1437    6.6202 C.3       1 RES1    0.0000
     19 N1         5.5048   -3.2326    8.8935 N.am      1 RES1    0.0000
     20 N2         6.2280    2.6030    6.1545 N.pl3     1 RES1    1.0000
     21 N3         8.2810    1.9356    5.8559 N.3       1 RES1    0.0000
     22 O1         5.3689   -5.0253   10.1411 O.3       1 RES1    0.0000
     23 O2         7.4253   -4.3327    9.4574 O.2       1 RES1    0.0000
     24 O3         5.0183    2.6652    6.5687 O.2       1 RES1   -1.0000
     25 O4         9.3387    1.2149    5.8459 O.2       1 RES1    0.0000
     26 H1         6.7274   -8.0860   10.3897 H         1 RES1    0.0000
     27 H2         5.8797   -7.3282    9.0892 H         1 RES1    0.0000
     28 H3         7.3941   -6.8397    9.6198 H         1 RES1    0.0000
     29 H4         7.0049   -6.5506   12.5246 H         1 RES1    0.0000
     30 H5         7.5653   -5.3541   11.6429 H         1 RES1    0.0000
     31 H6         6.2699   -5.1447   12.6490 H         1 RES1    0.0000
     32 H7         3.9269   -7.0391   10.6416 H         1 RES1    0.0000
     33 H8         4.7194   -7.6573   11.9106 H         1 RES1    0.0000
     34 H9         4.1225   -6.1119   12.0412 H         1 RES1    0.0000
     35 H10        4.6517   -3.3122    8.9758 H         1 RES1    0.0000
     36 H11        4.1970   -1.7059    7.4203 H         1 RES1    0.0000
     37 H12        4.8083    0.2742    6.3733 H         1 RES1    0.0000
     38 H13        7.9204   -2.0998    8.8735 H         1 RES1    0.0000
     39 H14        8.5271   -0.1216    7.7871 H         1 RES1    0.0000
     40 H15        6.5918    2.3231    3.6385 H         1 RES1    0.0000
     41 H16        5.3670    3.2902    3.8810 H         1 RES1    0.0000
     42 H17        6.5777    3.9582    3.2134 H         1 RES1    0.0000
     43 H18        5.3676    5.0749    5.6081 H         1 RES1    0.0000
     44 H19        6.6776    5.6632    5.1122 H         1 RES1    0.0000
     45 H20        6.5593    5.2743    6.6520 H         1 RES1    0.0000
     46 H21        8.7943    3.0210    3.4779 H         1 RES1    0.0000
     47 H22        9.1685    4.5066    3.9345 H         1 RES1    0.0000
     48 H23       10.1447    3.3600    4.3848 H         1 RES1    0.0000
     49 H24        8.3658    4.0779    7.4534 H         1 RES1    0.0000
     50 H25        8.9975    5.1048    6.3764 H         1 RES1    0.0000
     51 H26        9.8240    3.7788    6.8535 H         1 RES1    0.0000
@<TRIPOS>BOND
     1    1    4 1
     2    2    4 1
     3    3    4 1
     4    4   22 1
     5    5   19 1
     6    6    7 ar
     7    7    8 ar
     8    8   11 ar
     9    9    6 ar
    10   10    9 ar
    11   11   10 ar
    12   12   11 1
    13   13   14 1
    14   14   40 1
    15   15   13 1
    16   16   13 1
    17   17   16 1
    18   18   16 1
    19   19    6 1
    20   20   12 2
    21   21   12 1
    22   22    5 1
    23   23    5 2
    24   24   20 1
    25   25   21 1
    26   26    1 1
    27   27    1 1
    28   28    1 1
    29   29    2 1
    30   30    2 1
    31   31    2 1
    32   32    3 1
    33   33    3 1
    34   34    3 1
    35   35   19 1
    36   36    7 1
    37   37    8 1
    38   38    9 1
    39   39   10 1
    40   41   14 1
    41   42   14 1
    42   43   15 1
    43   44   15 1
    44   45   15 1
    45   46   17 1
    46   47   17 1
    47   48   17 1
    48   49   18 1
    49   50   18 1
    50   51   18 1
    51   13   20 1
    52   16   21 1
@<TRIPOS>SUBSTRUCTURE
     1 RES1 1

@<TRIPOS>CRYSIN
  12.0543    9.9704   16.3448  90.0000 105.5790  90.0000 231 1

