# MOL2 file generated by ConQuest
# Please check atom types

@<TRIPOS>MOLECULE
TICXAF
    41    42     1
SMALL
USER_CHARGES
****
Generated from CSD

@<TRIPOS>ATOM
      1 C1         3.3529    5.3511    7.4853 C.3       1 RES1    0.0000
      2 O1         5.4960    5.4468    6.4434 O.2       1 RES1    0.0000
      3 C2         4.5400    4.7685    6.7719 C.2       1 RES1    0.0000
      4 N1         4.4652    3.4403    6.5311 N.am      1 RES1    0.0000
      5 C3         5.4217    2.6145    5.9010 C.ar      1 RES1    0.0000
      6 C4         6.3719    3.0868    4.9970 C.ar      1 RES1    0.0000
      7 C5         7.2273    2.1959    4.3749 C.ar      1 RES1    0.0000
      8 C6         5.3702    1.2582    6.1729 C.ar      1 RES1    0.0000
      9 C7         6.2106    0.3700    5.5431 C.ar      1 RES1    0.0000
     10 C8         7.1526    0.8311    4.6225 C.ar      1 RES1    0.0000
     11 C9         8.0037   -0.1146    3.9091 C.2       1 RES1    0.0000
     12 N2         7.6293   -1.3307    3.4918 N.pl3     1 RES1    1.0000
     13 O2         6.4614   -1.8493    3.6253 O.2       1 RES1   -1.0000
     14 N3         9.2854    0.0885    3.5365 N.3       1 RES1    0.0000
     15 O3         9.9841    1.1291    3.8090 O.2       1 RES1    0.0000
     16 C10        8.7546   -2.1089    2.8826 C.3       1 RES1    0.0000
     17 C11        9.1836   -3.1185    3.9524 C.3       1 RES1    0.0000
     18 C12        8.2749   -2.8130    1.6384 C.3       1 RES1    0.0000
     19 C13        9.8088   -0.9897    2.6465 C.3       1 RES1    0.0000
     20 C14        9.7946   -0.4090    1.2276 C.3       1 RES1    0.0000
     21 C15       11.2427   -1.3242    3.0107 C.3       1 RES1    0.0000
     22 H1         3.5697    6.2345    7.7834 H         1 RES1    0.0000
     23 H2         2.5770    5.4365    6.8560 H         1 RES1    0.0000
     24 H3         3.1588    4.8878    8.3354 H         1 RES1    0.0000
     25 H4         3.7525    3.0474    6.9145 H         1 RES1    0.0000
     26 H5         6.4471    4.0524    4.8025 H         1 RES1    0.0000
     27 H6         7.8781    2.5287    3.6985 H         1 RES1    0.0000
     28 H7         4.6934    0.9364    6.8262 H         1 RES1    0.0000
     29 H8         6.1870   -0.5574    5.7707 H         1 RES1    0.0000
     30 H9         9.4287   -2.5561    4.9239 H         1 RES1    0.0000
     31 H10        8.3893   -3.7656    4.0518 H         1 RES1    0.0000
     32 H11        9.9133   -3.7033    3.6322 H         1 RES1    0.0000
     33 H12        7.8988   -2.1447    1.0930 H         1 RES1    0.0000
     34 H13        9.0725   -3.2669    1.1592 H         1 RES1    0.0000
     35 H14        7.6730   -3.4913    1.9541 H         1 RES1    0.0000
     36 H15       10.3463    0.4364    1.1813 H         1 RES1    0.0000
     37 H16       10.2142   -1.1097    0.6955 H         1 RES1    0.0000
     38 H17        8.8112   -0.1247    0.9826 H         1 RES1    0.0000
     39 H18       11.1358   -1.6833    3.9193 H         1 RES1    0.0000
     40 H19       11.8383   -0.4988    2.8925 H         1 RES1    0.0000
     41 H20       11.5758   -2.2070    2.4841 H         1 RES1    0.0000
@<TRIPOS>BOND
     1    1    3 1
     2    2    3 2
     3    3    4 1
     4    4    5 1
     5    5    6 ar
     6    6    7 ar
     7    7   10 ar
     8    8    5 ar
     9    9    8 ar
    10   10    9 ar
    11   11   10 1
    12   12   11 2
    13   13   12 1
    14   14   11 1
    15   15   14 1
    16   16   12 1
    17   17   16 1
    18   18   16 1
    19   19   14 1
    20   20   19 1
    21   21   19 1
    22   22    1 1
    23   23    1 1
    24   24    1 1
    25   25    4 1
    26   26    6 1
    27   27    7 1
    28   28    8 1
    29   29    9 1
    30   30   17 1
    31   31   17 1
    32   32   17 1
    33   33   18 1
    34   34   18 1
    35   35   18 1
    36   36   20 1
    37   37   20 1
    38   38   20 1
    39   39   21 1
    40   40   21 1
    41   41   21 1
    42   16   19 1
@<TRIPOS>SUBSTRUCTURE
     1 RES1 1

@<TRIPOS>CRYSIN
  11.2200   12.4690   11.3440  90.0000 103.2890  90.0000  14 1

