# MOL2 file generated by ConQuest
# Please check atom types

@<TRIPOS>MOLECULE
TICYEJ
    30    31     1
SMALL
NO_CHARGES
****
Generated from CSD

@<TRIPOS>ATOM
      1 O1        -2.5390    3.1028   13.3443 O.2       1 RES1    0.0000
      2 O2        -2.5636    1.0069   12.8621 O.2       1 RES1    0.0000
      3 N1        -2.0551    2.1196   12.7969 N.pl3     1 RES1    0.0000
      4 C1         8.6668    2.3525    4.7577 C.1       1 RES1    0.0000
      5 C2         7.7559    2.2288    5.4886 C.1       1 RES1    0.0000
      6 C3         6.6180    2.0998    6.3724 C.ar      1 RES1    0.0000
      7 C4         5.5418    1.2885    6.0330 C.ar      1 RES1    0.0000
      8 C5         4.4330    1.2107    6.8607 C.ar      1 RES1    0.0000
      9 C6         4.3610    1.9602    8.0372 C.ar      1 RES1    0.0000
     10 C7         5.4562    2.7502    8.3828 C.ar      1 RES1    0.0000
     11 C8         6.5687    2.8174    7.5642 C.ar      1 RES1    0.0000
     12 C9         1.5366    2.5646   10.6092 C.ar      1 RES1    0.0000
     13 C10        1.0075    1.2973   10.8752 C.ar      1 RES1    0.0000
     14 C11       -0.1637    1.1471   11.5878 C.ar      1 RES1    0.0000
     15 C12       -0.8097    2.2801   12.0456 C.ar      1 RES1    0.0000
     16 C13       -0.3115    3.5474   11.8325 C.ar      1 RES1    0.0000
     17 C14        0.8622    3.6817   11.1077 C.ar      1 RES1    0.0000
     18 C15        3.1573    1.8700    8.8731 C.2       1 RES1    0.0000
     19 C16        2.7581    2.7255    9.8079 C.2       1 RES1    0.0000
     20 H1         9.4071    2.4392    4.1898 H         1 RES1    0.0000
     21 H2         5.5474    0.7706    5.2195 H         1 RES1    0.0000
     22 H3         3.6602    0.6310    6.6059 H         1 RES1    0.0000
     23 H4         5.4505    3.2876    9.2156 H         1 RES1    0.0000
     24 H5         7.3175    3.3759    7.8190 H         1 RES1    0.0000
     25 H6         1.4813    0.5126   10.5715 H         1 RES1    0.0000
     26 H7        -0.5280    0.2828   11.7642 H         1 RES1    0.0000
     27 H8        -0.7783    4.3304   12.1822 H         1 RES1    0.0000
     28 H9         1.2130    4.5778   10.9283 H         1 RES1    0.0000
     29 H10        2.5890    1.1135    8.6447 H         1 RES1    0.0000
     30 H11        3.2678    3.5173    9.9598 H         1 RES1    0.0000
@<TRIPOS>BOND
     1    1    3 2
     2    2    3 2
     3    3   15 1
     4    4    5 3
     5    5    6 1
     6    6    7 ar
     7    7    8 ar
     8    8    9 ar
     9    9   10 ar
    10   10   11 ar
    11   11    6 ar
    12   12   13 ar
    13   13   14 ar
    14   14   15 ar
    15   15   16 ar
    16   16   17 ar
    17   17   12 ar
    18   18    9 1
    19   19   12 1
    20   20    4 1
    21   21    7 1
    22   22    8 1
    23   23   10 1
    24   24   11 1
    25   25   13 1
    26   26   14 1
    27   27   16 1
    28   28   17 1
    29   29   18 1
    30   30   19 1
    31   18   19 2
@<TRIPOS>SUBSTRUCTURE
     1 RES1 1

@<TRIPOS>CRYSIN
   6.8530   17.6750   10.2030  90.0000  92.3700  90.0000 231 1

