# MOL2 file generated by ConQuest
# Please check atom types

@<TRIPOS>MOLECULE
TIDKIC
    43    47     1
SMALL
USER_CHARGES
****
Generated from CSD

@<TRIPOS>ATOM
      1 C1         1.0256   11.4230    1.6717 C.3       1 RES1    0.0000
      2 H1         0.0860    6.2935    6.6523 H         1 RES1    0.0000
      3 H2         2.2421    3.1673    9.6230 H         1 RES1    0.0000
      4 H3         0.4956   10.5608    8.7006 H         1 RES1    0.0000
      5 H4         1.0730    4.7052    8.1521 H         1 RES1    0.0000
      6 H5         0.6294    8.5769   10.0217 H         1 RES1    0.0000
      7 H6        -0.5612    4.8442    8.2621 H         1 RES1    0.0000
      8 H7         0.3645    1.8255   13.1011 H         1 RES1    0.0000
      9 H8        -1.4702    4.5926   10.6541 H         1 RES1    0.0000
     10 H9         1.0455   12.3788    1.6359 H         1 RES1    0.0000
     11 H10       -1.4795    3.2634   12.6337 H         1 RES1    0.0000
     12 H11       -2.6358   10.6450   -0.6324 H         1 RES1    0.0000
     13 H12        2.2189    1.8033   11.5751 H         1 RES1    0.0000
     14 H13        1.2680   11.1367    2.5570 H         1 RES1    0.0000
     15 H14        1.7294   11.1398    1.0585 H         1 RES1    0.0000
     16 H15       -0.8080    7.0692    2.3095 H         1 RES1    0.0000
     17 O1         0.4981    6.2334    9.3096 O.3       1 RES1    0.0000
     18 N1        -0.1315    8.2903    4.9873 N.pl3     1 RES1    0.0000
     19 N2        -0.1297   10.6941    4.8327 N.2       1 RES1    0.0000
     20 O2         0.2436   11.8624    6.6694 O.2       1 RES1   -1.0000
     21 C2         0.2228    9.5746    6.9306 C.ar      1 RES1    0.0000
     22 C3         0.1866    7.1453    7.1023 C.ar      1 RES1    0.0000
     23 N3         0.1104   10.7368    6.1190 N.pl3     1 RES1    1.0000
     24 C4         0.5314    8.5498    9.0595 C.ar      1 RES1    0.0000
     25 C5         0.0990    8.3124    6.3501 C.ar      1 RES1    0.0000
     26 N4        -0.3441    7.1764    4.2405 N.2       1 RES1    0.0000
     27 C6        -0.2686    9.4558    4.2747 C.2       1 RES1    0.0000
     28 C7         0.3212    4.8844    8.7748 C.3       1 RES1    0.0000
     29 C8         0.4006    7.2715    8.4628 C.ar      1 RES1    0.0000
     30 N5        -2.0545    9.6199    1.0848 N.2       1 RES1    0.0000
     31 N6        -0.2663   10.8773    1.2859 N.pl3     1 RES1    0.0000
     32 C9         0.3521    3.9782    9.9645 C.ar      1 RES1    0.0000
     33 N7        -0.8953   11.3354    0.1654 N.2       1 RES1    0.0000
     34 C10        0.4329    9.6859    8.3058 C.ar      1 RES1    0.0000
     35 C11       -0.5844    9.0754    2.9796 C.2       1 RES1    0.0000
     36 C12       -0.6129    7.6760    3.0337 C.2       1 RES1    0.0000
     37 C13       -0.7194    3.9935   10.8534 C.ar      1 RES1    0.0000
     38 C14       -0.9641    9.8675    1.8163 C.2       1 RES1    0.0000
     39 C15       -1.9495   10.5450    0.1028 C.2       1 RES1    0.0000
     40 C16        0.3981    2.4197   12.2639 C.ar      1 RES1    0.0000
     41 C17        1.4422    3.1697   10.2320 C.ar      1 RES1    0.0000
     42 C18        1.4596    2.3846   11.3840 C.ar      1 RES1    0.0000
     43 C19       -0.6985    3.2275   12.0027 C.ar      1 RES1    0.0000
@<TRIPOS>BOND
     1    1   10 1
     2    2   22 1
     3    3   41 1
     4    4   34 1
     5    5   28 1
     6    6   24 1
     7    7   28 1
     8    8   40 1
     9    9   37 1
    10   11   43 1
    11   12   39 1
    12   13   42 1
    13   14    1 1
    14   15    1 1
    15   16   36 1
    16   17   28 1
    17   18   25 1
    18   19   23 2
    19   20   23 1
    20   21   23 1
    21   22   25 ar
    22   24   29 ar
    23   25   21 ar
    24   26   18 1
    25   27   18 1
    26   28   32 1
    27   29   17 1
    28   30   38 2
    29   31    1 1
    30   32   37 ar
    31   33   31 1
    32   34   21 ar
    33   35   27 2
    34   36   26 2
    35   37   43 ar
    36   38   31 1
    37   39   30 1
    38   40   42 ar
    39   41   32 ar
    40   42   41 ar
    41   43   40 ar
    42   19   27 1
    43   22   29 ar
    44   24   34 ar
    45   33   39 2
    46   35   36 1
    47   35   38 1
@<TRIPOS>SUBSTRUCTURE
     1 RES1 1

@<TRIPOS>CRYSIN
   6.5750    9.4360   14.0670  95.9300 100.5600  91.0300   2 1

