# MOL2 file generated by ConQuest
# Please check atom types

@<TRIPOS>MOLECULE
TIDPAX
    31    32     1
SMALL
NO_CHARGES
****
Generated from CSD

@<TRIPOS>ATOM
      1 C1         0.3002    2.8283    2.3711 C.3       1 RES1    0.0000
      2 C2         0.4290    3.8192    3.4582 C.1       1 RES1    0.0000
      3 C3         0.5386    4.6713    4.3018 C.1       1 RES1    0.0000
      4 C4         0.6525    5.7730    5.2699 C.3       1 RES1    0.0000
      5 C5         2.0509    5.9709    5.8010 C.3       1 RES1    0.0000
      6 C6         3.0640    6.0489    4.7468 C.1       1 RES1    0.0000
      7 C7         3.8434    6.0629    3.8681 C.1       1 RES1    0.0000
      8 C8         4.7648    5.9806    2.7425 C.3       1 RES1    0.0000
      9 O1         4.1612    5.3438    1.6260 O.3       1 RES1    0.0000
     10 N1         4.0299    3.9550    1.9431 N.2       1 RES1    0.0000
     11 C9         2.8975    3.4993    1.5581 C.2       1 RES1    0.0000
     12 C10        2.6628    2.0326    1.7517 C.3       1 RES1    0.0000
     13 C11        1.3618    1.7260    2.5149 C.3       1 RES1    0.0000
     14 C12        0.4638    3.5335    1.0202 C.3       1 RES1    0.0000
     15 C13        1.7859    4.3013    0.9489 C.3       1 RES1    0.0000
     16 O2        -0.9723    2.1677    2.4526 O.3       1 RES1    0.0000
     17 H1         0.0453    5.5819    6.0408 H         1 RES1    0.0000
     18 H2         0.3611    6.6191    4.8234 H         1 RES1    0.0000
     19 H3         2.2750    5.2034    6.4017 H         1 RES1    0.0000
     20 H4         2.0745    6.8196    6.3288 H         1 RES1    0.0000
     21 H5         5.5719    5.4587    3.0193 H         1 RES1    0.0000
     22 H6         5.0440    6.9041    2.4808 H         1 RES1    0.0000
     23 H7         3.4318    1.6506    2.2641 H         1 RES1    0.0000
     24 H8         2.6168    1.5950    0.8533 H         1 RES1    0.0000
     25 H9         0.9813    0.8698    2.1664 H         1 RES1    0.0000
     26 H10        1.5793    1.6186    3.4852 H         1 RES1    0.0000
     27 H11       -0.2930    4.1745    0.8919 H         1 RES1    0.0000
     28 H12        0.4435    2.8505    0.2899 H         1 RES1    0.0000
     29 H13        2.0040    4.4934   -0.0078 H         1 RES1    0.0000
     30 H14        1.6922    5.1645    1.4448 H         1 RES1    0.0000
     31 H15       -1.6925    2.8167    2.2083 H         1 RES1    0.0000
@<TRIPOS>BOND
     1    1    2 1
     2    2    3 3
     3    3    4 1
     4    4    5 1
     5    5    6 1
     6    6    7 3
     7    7    8 1
     8    8    9 1
     9    9   10 1
    10   10   11 2
    11   11   12 1
    12   12   13 1
    13   13    1 1
    14   14    1 1
    15   15   11 1
    16   16    1 1
    17   17    4 1
    18   18    4 1
    19   19    5 1
    20   20    5 1
    21   21    8 1
    22   22    8 1
    23   23   12 1
    24   24   12 1
    25   25   13 1
    26   26   13 1
    27   27   14 1
    28   28   14 1
    29   29   15 1
    30   30   15 1
    31   31   16 1
    32   14   15 1
@<TRIPOS>SUBSTRUCTURE
     1 RES1 1

@<TRIPOS>CRYSIN
   7.2240    6.9680   11.3720  90.0000  95.3000  90.0000   4 1

