# MOL2 file generated by ConQuest
# Please check atom types

@<TRIPOS>MOLECULE
TIFWOX
    32    33     1
SMALL
NO_CHARGES
****
Generated from CSD

@<TRIPOS>ATOM
      1 O1        -3.5228    1.3491    4.7498 O.2       1 RES1    0.0000
      2 O2        -3.2252    3.4677    4.8337 O.2       1 RES1    0.0000
      3 O3         3.0682    1.5509   -1.5017 O.2       1 RES1    0.0000
      4 N1        -2.9426    2.3635    4.4110 N.pl3     1 RES1    0.0000
      5 C1        -1.8636    2.2522    3.4166 C.ar      1 RES1    0.0000
      6 C2        -1.5319    1.0262    2.9139 C.ar      1 RES1    0.0000
      7 H1        -1.9881    0.2686    3.1865 H         1 RES1    0.0000
      8 C3        -0.5311    0.9552    1.9664 C.ar      1 RES1    0.0000
      9 H2        -0.2885    0.1250    1.6248 H         1 RES1    0.0000
     10 C4         0.1210    2.0897    1.5110 C.ar      1 RES1    0.0000
     11 C5         1.1775    1.9652    0.5031 C.2       1 RES1    0.0000
     12 H3         1.4910    1.1071    0.3298 H         1 RES1    0.0000
     13 C6         1.7262    2.9447   -0.1809 C.2       1 RES1    0.0000
     14 H4         1.4253    3.8131   -0.0405 H         1 RES1    0.0000
     15 C7         2.8119    2.7135   -1.1713 C.2       1 RES1    0.0000
     16 C8         3.5496    3.8542   -1.7124 C.ar      1 RES1    0.0000
     17 C9         4.5117    3.6852   -2.7438 C.ar      1 RES1    0.0000
     18 C10        5.1857    4.8197   -3.2149 C.ar      1 RES1    0.0000
     19 H5         5.8348    4.6701   -3.8765 H         1 RES1    0.0000
     20 C11        4.9721    6.0482   -2.6862 C.ar      1 RES1    0.0000
     21 H6         5.4426    6.7787   -3.0180 H         1 RES1    0.0000
     22 C12       -1.2366    3.4013    3.0099 C.ar      1 RES1    0.0000
     23 H7        -1.4704    4.2230    3.3772 H         1 RES1    0.0000
     24 C13       -0.2563    3.3184    2.0498 C.ar      1 RES1    0.0000
     25 H8         0.1616    4.0949    1.7549 H         1 RES1    0.0000
     26 C14        4.0620    6.2300   -1.6602 C.ar      1 RES1    0.0000
     27 H9         3.9009    7.1059   -1.2888 H         1 RES1    0.0000
     28 C15        3.3690    5.1457   -1.2025 C.ar      1 RES1    0.0000
     29 H10        2.7484    5.2707   -0.5216 H         1 RES1    0.0000
     30 N2         4.7883    2.4831   -3.2925 N.3       1 RES1    0.0000
     31 H11        5.4317    2.4229   -3.8664 H         1 RES1    0.0000
     32 H12        4.3948    1.7384   -2.9835 H         1 RES1    0.0000
@<TRIPOS>BOND
     1    1    4 2
     2    2    4 2
     3    3   15 2
     4    4    5 1
     5    5    6 ar
     6    6    7 1
     7    8    6 ar
     8    9    8 1
     9   10    8 ar
    10   11   10 1
    11   12   11 1
    12   13   11 2
    13   14   13 1
    14   15   13 1
    15   16   15 1
    16   17   16 ar
    17   18   17 ar
    18   19   18 1
    19   20   18 ar
    20   21   20 1
    21   22    5 ar
    22   23   22 1
    23   24   10 ar
    24   25   24 1
    25   26   20 ar
    26   27   26 1
    27   28   16 ar
    28   29   28 1
    29   30   17 1
    30   31   30 1
    31   32   30 1
    32   22   24 ar
    33   26   28 ar
@<TRIPOS>SUBSTRUCTURE
     1 RES1 1

@<TRIPOS>CRYSIN
   4.9692   25.8304   10.1698  90.0000  93.7550  90.0000 231 1

