# MOL2 file generated by ConQuest
# Please check atom types

@<TRIPOS>MOLECULE
TIHFAS
    36    37     1
SMALL
NO_CHARGES
****
Generated from CSD

@<TRIPOS>ATOM
      1 O1         2.8316    6.7397   10.6916 O.2       1 RES1    0.0000
      2 O2         0.0934    6.6947    8.4919 O.3       1 RES1    0.0000
      3 N1        -0.4157    7.8871    9.1427 N.3       1 RES1    0.0000
      4 C1         1.4687    6.6145    8.7743 C.3       1 RES1    0.0000
      5 H1         1.9040    7.4465    8.4900 H         1 RES1    0.0000
      6 C2         1.7602    6.3768   10.2461 C.2       1 RES1    0.0000
      7 C3         0.7648    5.6590   11.0879 C.3       1 RES1    0.0000
      8 H2         0.3172    4.9966   10.5579 H         1 RES1    0.0000
      9 H3         0.1214    6.2849   11.4271 H         1 RES1    0.0000
     10 H4         1.2141    5.2327   11.8213 H         1 RES1    0.0000
     11 C4         2.0416    5.4514    7.9730 C.3       1 RES1    0.0000
     12 H5         2.9726    5.3325    8.2169 H         1 RES1    0.0000
     13 H6         1.5672    4.6416    8.2153 H         1 RES1    0.0000
     14 C5         1.9493    5.6431    6.4721 C.ar      1 RES1    0.0000
     15 C6         2.9424    6.3325    5.8404 C.ar      1 RES1    0.0000
     16 H7         3.6625    6.6542    6.3348 H         1 RES1    0.0000
     17 C7         2.8915    6.5638    4.4574 C.ar      1 RES1    0.0000
     18 H8         3.5635    7.0503    4.0358 H         1 RES1    0.0000
     19 C8         1.8413    6.0646    3.7353 C.ar      1 RES1    0.0000
     20 H9         1.8005    6.2073    2.8176 H         1 RES1    0.0000
     21 C9         0.8560    5.3595    4.3557 C.ar      1 RES1    0.0000
     22 H10        0.1449    5.0172    3.8629 H         1 RES1    0.0000
     23 C10        0.9176    5.1534    5.7305 C.ar      1 RES1    0.0000
     24 H11        0.2423    4.6717    6.1490 H         1 RES1    0.0000
     25 C11       -0.9344    8.8315    8.1927 C.ar      1 RES1    0.0000
     26 C12       -0.3889    8.9472    6.9148 C.ar      1 RES1    0.0000
     27 H12        0.3184    8.4084    6.6450 H         1 RES1    0.0000
     28 C13       -0.9316    9.8854    6.0698 C.ar      1 RES1    0.0000
     29 H13       -0.6065    9.9567    5.2006 H         1 RES1    0.0000
     30 C14       -1.9280   10.7078    6.4705 C.ar      1 RES1    0.0000
     31 H14       -2.2744   11.3401    5.8840 H         1 RES1    0.0000
     32 C15       -2.4299   10.6080    7.7533 C.ar      1 RES1    0.0000
     33 H15       -3.1131   11.1737    8.0328 H         1 RES1    0.0000
     34 C16       -1.9157    9.6683    8.6144 C.ar      1 RES1    0.0000
     35 H16       -2.2402    9.6065    9.4836 H         1 RES1    0.0000
     36 H17       -1.1302    7.6066    9.5320 H         1 RES1    0.0000
@<TRIPOS>BOND
     1    1    6 2
     2    2    3 1
     3    3   25 1
     4    4    2 1
     5    5    4 1
     6    6    4 1
     7    7    6 1
     8    8    7 1
     9    9    7 1
    10   10    7 1
    11   11    4 1
    12   12   11 1
    13   13   11 1
    14   14   11 1
    15   15   14 ar
    16   16   15 1
    17   17   15 ar
    18   18   17 1
    19   19   17 ar
    20   20   19 1
    21   21   19 ar
    22   22   21 1
    23   23   14 ar
    24   24   23 1
    25   25   26 ar
    26   26   27 1
    27   28   26 ar
    28   29   28 1
    29   30   28 ar
    30   31   30 1
    31   32   30 ar
    32   33   32 1
    33   34   25 ar
    34   35   34 1
    35   36    3 1
    36   21   23 ar
    37   32   34 ar
@<TRIPOS>SUBSTRUCTURE
     1 RES1 1

@<TRIPOS>CRYSIN
   5.5950   15.8470   16.1560  90.0000  90.0000  90.0000  19 1

