# MOL2 file generated by ConQuest
# Please check atom types

@<TRIPOS>MOLECULE
TIHHIC
    28    29     1
SMALL
NO_CHARGES
****
Generated from CSD

@<TRIPOS>ATOM
      1 N1         5.2314    2.6197    2.2335 N.pl3     1 RES1    0.0000
      2 C1         5.2414    3.2581    3.5206 C.ar      1 RES1    0.0000
      3 C2         4.1574    3.0826    4.3682 C.ar      1 RES1    0.0000
      4 H1         3.4545    2.5626    4.0556 H         1 RES1    0.0000
      5 C3         4.1686    3.7087    5.6092 C.ar      1 RES1    0.0000
      6 H2         3.3685    3.5189    6.1954 H         1 RES1    0.0000
      7 C4         5.2248    4.5125    5.9780 C.ar      1 RES1    0.0000
      8 H3         5.2149    4.9309    6.8864 H         1 RES1    0.0000
      9 C5         6.2969    4.6933    5.1197 C.ar      1 RES1    0.0000
     10 H4         7.0878    5.3418    5.3612 H         1 RES1    0.0000
     11 C6         6.3108    4.0561    3.8816 C.ar      1 RES1    0.0000
     12 H5         7.0348    4.1689    3.3069 H         1 RES1    0.0000
     13 C7         5.2407    1.2596    1.9451 C.2       1 RES1    0.0000
     14 C8         5.2837    0.2025    2.9769 C.3       1 RES1    0.0000
     15 H6         5.6848   -0.5977    2.6875 H         1 RES1    0.0000
     16 H7         4.3810    0.0075    3.2398 H         1 RES1    0.0000
     17 H8         5.7046    0.4408    3.7321 H         1 RES1    0.0000
     18 N2         5.2195    1.0486    0.6473 N.2       1 RES1    0.0000
     19 C9         5.1931    2.3033    0.0825 C.2       1 RES1    0.0000
     20 N3         5.2156    2.4520   -1.3290 N.pl3     1 RES1    0.0000
     21 O1         5.2003    1.4347   -2.0384 O.2       1 RES1    0.0000
     22 O2         5.2566    3.5967   -1.7997 O.2       1 RES1    0.0000
     23 C10        5.2023    3.2903    1.0265 C.2       1 RES1    0.0000
     24 O3         5.1977    4.6216    1.0221 O.3       1 RES1    0.0000
     25 C11        3.9913    5.2365    0.4807 C.3       1 RES1    0.0000
     26 H9         3.7854    4.8338   -0.4252 H         1 RES1    0.0000
     27 H10        4.2024    6.1935    0.5130 H         1 RES1    0.0000
     28 H11        3.3222    5.0654    1.1000 H         1 RES1    0.0000
@<TRIPOS>BOND
     1    1    2 1
     2    2    3 ar
     3    3    4 1
     4    5    3 ar
     5    6    5 1
     6    7    5 ar
     7    8    7 1
     8    9    7 ar
     9   10    9 1
    10   11    2 ar
    11   12   11 1
    12   13    1 1
    13   14   13 1
    14   15   14 1
    15   16   14 1
    16   17   14 1
    17   18   13 2
    18   19   18 1
    19   20   19 1
    20   21   20 2
    21   22   20 2
    22   23    1 1
    23   24   23 1
    24   25   24 1
    25   26   25 1
    26   27   25 1
    27   28   25 1
    28    9   11 ar
    29   19   23 2
@<TRIPOS>SUBSTRUCTURE
     1 RES1 1

@<TRIPOS>CRYSIN
   6.6179    7.4711   23.1087  90.0000  90.0000  90.0000  19 1

