# MOL2 file generated by ConQuest
# Please check atom types

@<TRIPOS>MOLECULE
TIHQEH
    40    40     1
SMALL
USER_CHARGES
****
Generated from CSD

@<TRIPOS>ATOM
      1 O1         9.3537   11.8062    3.0723 O.2       1 RES1   -1.0000
      2 O2        13.2380    6.5888    2.7530 O.3       1 RES1    0.0000
      3 O3        10.9626    5.5984    1.7781 O.3       1 RES1    0.0000
      4 O4         8.7493    7.2280    1.4464 O.3       1 RES1    0.0000
      5 N1         8.5370   11.1172    2.3464 N.pl3     1 RES1    1.0000
      6 C1        11.1502    9.6131    2.8120 C.ar      1 RES1    0.0000
      7 H1        11.1923   10.5039    3.0772 H         1 RES1    0.0000
      8 C2        12.2576    8.8056    2.9845 C.ar      1 RES1    0.0000
      9 H2        13.0364    9.1599    3.3483 H         1 RES1    0.0000
     10 C3        12.2138    7.4711    2.6180 C.ar      1 RES1    0.0000
     11 C4        11.0247    6.9375    2.1002 C.ar      1 RES1    0.0000
     12 C5         9.9315    7.7568    1.9054 C.ar      1 RES1    0.0000
     13 C6         9.9695    9.1245    2.2495 C.ar      1 RES1    0.0000
     14 C7         8.7832    9.8997    1.9672 C.2       1 RES1    0.0000
     15 H3         8.1256    9.4820    1.4595 H         1 RES1    0.0000
     16 C8         7.2308   11.8315    2.0201 C.3       1 RES1    0.0000
     17 C9         6.3902   11.0511    1.0240 C.3       1 RES1    0.0000
     18 H4         6.0967   10.2294    1.4257 H         1 RES1    0.0000
     19 H5         6.9165   10.8553    0.2444 H         1 RES1    0.0000
     20 H6         5.6261   11.5740    0.7706 H         1 RES1    0.0000
     21 C10        6.5070   11.9921    3.3466 C.3       1 RES1    0.0000
     22 H7         5.6930   12.4821    3.2097 H         1 RES1    0.0000
     23 H8         7.0678   12.4704    3.9616 H         1 RES1    0.0000
     24 H9         6.3021   11.1260    3.7065 H         1 RES1    0.0000
     25 C11        7.6012   13.1770    1.4222 C.3       1 RES1    0.0000
     26 H10        6.8072   13.7007    1.2960 H         1 RES1    0.0000
     27 H11        8.0340   13.0424    0.5751 H         1 RES1    0.0000
     28 H12        8.1971   13.6377    2.0159 H         1 RES1    0.0000
     29 C12       14.4921    7.1015    3.1812 C.3       1 RES1    0.0000
     30 H13       14.7961    7.7661    2.5590 H         1 RES1    0.0000
     31 H14       15.1317    6.3864    3.2239 H         1 RES1    0.0000
     32 H15       14.3964    7.4968    4.0505 H         1 RES1    0.0000
     33 C13       10.4858    4.7808    2.8292 C.3       1 RES1    0.0000
     34 H16       11.1068    4.8068    3.5617 H         1 RES1    0.0000
     35 H17       10.3976    3.8771    2.5172 H         1 RES1    0.0000
     36 H18        9.6311    5.1035    3.1234 H         1 RES1    0.0000
     37 C14        8.7628    6.7178    0.1164 C.3       1 RES1    0.0000
     38 H19        8.7766    7.4481   -0.5066 H         1 RES1    0.0000
     39 H20        7.9756    6.1875   -0.0311 H         1 RES1    0.0000
     40 H21        9.5439    6.1740   -0.0098 H         1 RES1    0.0000
@<TRIPOS>BOND
     1    1    5 1
     2    2   10 1
     3    3   11 1
     4    4   12 1
     5    5   14 2
     6    6    7 1
     7    8    6 ar
     8    9    8 1
     9   10    8 ar
    10   11   10 ar
    11   12   11 ar
    12   13    6 ar
    13   14   13 1
    14   15   14 1
    15   16    5 1
    16   17   16 1
    17   18   17 1
    18   19   17 1
    19   20   17 1
    20   21   16 1
    21   22   21 1
    22   23   21 1
    23   24   21 1
    24   25   16 1
    25   26   25 1
    26   27   25 1
    27   28   25 1
    28   29    2 1
    29   30   29 1
    30   31   29 1
    31   32   29 1
    32   33    3 1
    33   34   33 1
    34   35   33 1
    35   36   33 1
    36   37    4 1
    37   38   37 1
    38   39   37 1
    39   40   37 1
    40   12   13 ar
@<TRIPOS>SUBSTRUCTURE
     1 RES1 1

@<TRIPOS>CRYSIN
   8.7424    9.5039    9.8424  74.0550  68.6120  82.1080   2 1

