# MOL2 file generated by ConQuest
# Please check atom types

@<TRIPOS>MOLECULE
TIHTEK
    26    26     2
SMALL
USER_CHARGES
****
Generated from CSD

@<TRIPOS>ATOM
      1 O1        -1.7246    6.6026    6.3611 O.2       1 RES1   -1.0000
      2 N1        -0.5115    6.7351    6.6531 N.pl3     1 RES1    1.0000
      3 N2         0.5033    6.2399    6.1402 N.2       1 RES1    0.0000
      4 C1        -0.2295    7.7443    7.6876 C.ar      1 RES1    0.0000
      5 C2        -1.2149    7.9824    8.5982 C.ar      1 RES1    0.0000
      6 H1        -2.0613    7.5100    8.5518 H         1 RES1    0.0000
      7 C3        -0.9779    8.9092    9.5831 C.ar      1 RES1    0.0000
      8 H2        -1.6520    9.0631   10.2641 H         1 RES1    0.0000
      9 C4         0.1715    9.6072    9.6230 C.ar      1 RES1    0.0000
     10 H3         0.3151   10.2719   10.3159 H         1 RES1    0.0000
     11 C5         1.1420    9.3772    8.6768 C.ar      1 RES1    0.0000
     12 H4         1.9669    9.8864    8.6930 H         1 RES1    0.0000
     13 C6         0.9418    8.4231    7.7070 C.ar      1 RES1    0.0000
     14 H5         1.6291    8.2398    7.0464 H         1 RES1    0.0000
     15 C7         0.3594    5.2048    5.1768 C.ar      1 RES1    0.0000
     16 C8         1.5020    4.4529    5.0701 C.ar      1 RES1    0.0000
     17 H6         2.2620    4.6418    5.6423 H         1 RES1    0.0000
     18 C9         1.5692    3.4409    4.1628 C.ar      1 RES1    0.0000
     19 H7         2.3704    2.8968    4.1110 H         1 RES1    0.0000
     20 C10        0.5247    3.1844    3.3255 C.ar      1 RES1    0.0000
     21 H8         0.5795    2.4589    2.6832 H         1 RES1    0.0000
     22 C11       -0.5986    3.9558    3.3977 C.ar      1 RES1    0.0000
     23 H9        -1.3337    3.7899    2.7867 H         1 RES1    0.0000
     24 C12       -0.7024    4.9724    4.3309 C.ar      1 RES1    0.0000
     25 H10       -1.5069    5.5112    4.3869 H         1 RES1    0.0000
     26 O2        -1.6364    6.2092    6.5518 Du        2 SUP2    0.0000
@<TRIPOS>BOND
     1    1    2 1
     2    2    3 2
     3    3   15 1
     4    4    2 1
     5    5    4 ar
     6    6    5 1
     7    7    5 ar
     8    8    7 1
     9    9    7 ar
    10   10    9 1
    11   11    9 ar
    12   12   11 1
    13   13    4 ar
    14   14   13 1
    15   15   16 ar
    16   16   17 1
    17   18   16 ar
    18   19   18 1
    19   20   18 ar
    20   21   20 1
    21   22   20 ar
    22   23   22 1
    23   24   15 ar
    24   25   24 1
    25   11   13 ar
    26   22   24 ar
@<TRIPOS>SUBSTRUCTURE
     1 RES1 1
     2 SUP2 26

@<TRIPOS>CRYSIN
   5.8440   15.8640   11.0730  90.0000 103.3000  90.0000 231 1

