# MOL2 file generated by ConQuest
# Please check atom types

@<TRIPOS>MOLECULE
TIHXOZ
   138    80     2
SMALL
NO_CHARGES
****
Generated from CSD

@<TRIPOS>ATOM
      1 O1        14.7037    7.3656    4.5812 O.3       1 RES1    0.0000
      2 O2        17.7708   10.7755    2.8582 O.3       1 RES1    0.0000
      3 H1        16.9735   10.5179    2.8137 H         1 RES1    0.0000
      4 O3        19.1200   12.0376    4.9429 O.3       1 RES1    0.0000
      5 H2        19.7844   12.4934    5.1830 H         1 RES1    0.0000
      6 O4        18.3207    8.8135    5.9207 O.3       1 RES1    0.0000
      7 O5        17.6685    9.2750    8.1086 O.3       1 RES1    0.0000
      8 N1        15.9421    8.6009    3.1624 N.2       1 RES1    0.0000
      9 N2        20.3991    8.3481    3.2189 N.pl3     1 RES1    0.0000
     10 H3        20.6351    7.7937    3.8598 H         1 RES1    0.0000
     11 C1        16.8950    8.1595    4.2281 C.3       1 RES1    0.0000
     12 C2        18.1131    7.5447    3.5633 C.3       1 RES1    0.0000
     13 H4        18.6033    6.9807    4.2281 H         1 RES1    0.0000
     14 C3        19.0172    8.6986    3.1059 C.3       1 RES1    0.0000
     15 H5        18.8394    8.8288    2.1314 H         1 RES1    0.0000
     16 C4        18.4903    9.9568    3.8175 C.3       1 RES1    0.0000
     17 C5        17.5261    9.4234    4.8832 C.3       1 RES1    0.0000
     18 C6        16.4759   10.3935    5.4166 C.3       1 RES1    0.0000
     19 H6        16.9194   11.1863    5.7827 H         1 RES1    0.0000
     20 H7        15.9571    9.9559    6.1227 H         1 RES1    0.0000
     21 H8        15.8767   10.6606    4.6877 H         1 RES1    0.0000
     22 C7        19.5683   10.8445    4.3215 C.3       1 RES1    0.0000
     23 H9        20.1147   10.3370    4.9723 H         1 RES1    0.0000
     24 H10       20.1553   11.0877    3.5633 H         1 RES1    0.0000
     25 C8        18.5803    9.5020    7.1102 C.3       1 RES1    0.0000
     26 H11       19.4774    9.2406    7.4372 H         1 RES1    0.0000
     27 H12       18.6026   10.4720    6.9169 H         1 RES1    0.0000
     28 C9        17.8573    7.9679    8.7159 C.3       1 RES1    0.0000
     29 H13       18.7915    7.8693    8.9940 H         1 RES1    0.0000
     30 H14       17.6328    7.2699    8.0652 H         1 RES1    0.0000
     31 H15       17.2728    7.8846    9.4981 H         1 RES1    0.0000
     32 C10       16.0199    7.3197    5.2037 C.3       1 RES1    0.0000
     33 H16       15.9728    7.7946    6.0825 H         1 RES1    0.0000
     34 C11       16.4022    5.9293    5.4448 C.3       1 RES1    0.0000
     35 H17       16.3887    5.4352    4.5986 H         1 RES1    0.0000
     36 H18       15.7680    5.5204    6.0728 H         1 RES1    0.0000
     37 H19       17.3052    5.9005    5.8251 H         1 RES1    0.0000
     38 C12       14.8086    8.1173    3.4677 C.2       1 RES1    0.0000
     39 C13       13.5634    8.1393    2.6529 C.ar      1 RES1    0.0000
     40 C14       12.3804    7.4509    3.0994 C.ar      1 RES1    0.0000
     41 H20       12.3713    6.9462    3.9044 H         1 RES1    0.0000
     42 C15       11.2766    7.5552    2.3194 C.ar      1 RES1    0.0000
     43 H21       10.4829    7.1109    2.5942 H         1 RES1    0.0000
     44 C16       11.2553    8.2782    1.1439 C.ar      1 RES1    0.0000
     45 H22       10.4618    8.3155    0.6214 H         1 RES1    0.0000
     46 C17       12.4200    8.9629    0.7213 C.ar      1 RES1    0.0000
     47 H23       12.4057    9.4895   -0.0695 H         1 RES1    0.0000
     48 C18       13.5536    8.8671    1.4557 C.ar      1 RES1    0.0000
     49 H24       14.3482    9.2923    1.1559 H         1 RES1    0.0000
     50 C19       21.3925    8.8307    2.3791 C.ar      1 RES1    0.0000
     51 C20       21.1348    9.6935    1.3123 C.ar      1 RES1    0.0000
     52 H25       20.2528   10.0238    1.1744 H         1 RES1    0.0000
     53 C21       22.1635   10.0727    0.4465 C.ar      1 RES1    0.0000
     54 H26       21.9643   10.5831   -0.3292 H         1 RES1    0.0000
     55 C22       23.4363    9.7184    0.7050 C.ar      1 RES1    0.0000
     56 H27       24.1450   10.0325    0.1532 H         1 RES1    0.0000
     57 C23       23.7081    8.8815    1.7968 C.ar      1 RES1    0.0000
     58 H28       24.6016    8.6066    1.9663 H         1 RES1    0.0000
     59 C24       22.7267    8.4668    2.6029 C.ar      1 RES1    0.0000
     60 H29       22.9391    7.9114    3.3449 H         1 RES1    0.0000
     61 O6        17.6526    6.7030    2.4660 O.3       1 RES1    0.0000
     62 O7        18.5951    4.7112    3.1179 O.2       1 RES1    0.0000
     63 O8        15.4755    4.1271   -3.4981 O.2       1 RES1    0.0000
     64 O9        16.3566    2.2120   -2.9028 O.2       1 RES1    0.0000
     65 N3        16.1014    3.3323   -2.7387 N.pl3     1 RES1    0.0000
     66 C25       17.9849    5.4007    2.3183 C.2       1 RES1    0.0000
     67 C26       17.4838    4.8740    0.9908 C.ar      1 RES1    0.0000
     68 C27       16.8187    5.6114    0.0956 C.ar      1 RES1    0.0000
     69 H30       16.6486    6.5239    0.3009 H         1 RES1    0.0000
     70 C28       16.3673    5.1230   -1.1081 C.ar      1 RES1    0.0000
     71 H31       15.8877    5.6832   -1.7012 H         1 RES1    0.0000
     72 C29       16.5919    3.9165   -1.4068 C.ar      1 RES1    0.0000
     73 C30       17.2536    3.0738   -0.5866 C.ar      1 RES1    0.0000
     74 H32       17.4173    2.1670   -0.8213 H         1 RES1    0.0000
     75 C31       17.6884    3.6196    0.6442 C.ar      1 RES1    0.0000
     76 H33       18.1539    3.0537    1.2504 H         1 RES1    0.0000
     77 H34       18.5982    6.9481    4.2031 Du        2 SUP2    0.0000
     78 H35       18.6037    6.9797    4.2270 Du        2 SUP2    0.0000
     79 H36       18.5999    6.9625    4.2140 Du        2 SUP2    0.0000
     80 C32       13.6230    8.6660    2.7594 Du        2 SUP2    0.0000
     81 C33       12.2946    8.4936    3.3025 Du        2 SUP2    0.0000
     82 H37       12.1556    8.2351    4.2031 Du        2 SUP2    0.0000
     83 C34       11.2620    8.7235    2.4552 Du        2 SUP2    0.0000
     84 H38       10.3670    8.6057    2.7604 Du        2 SUP2    0.0000
     85 C35       11.4985    9.1352    1.1624 Du        2 SUP2    0.0000
     86 H39       10.7535    9.3612    0.6149 Du        2 SUP2    0.0000
     87 C36       12.7940    9.2501    0.6192 Du        2 SUP2    0.0000
     88 H40       12.9199    9.4493   -0.3009 Du        2 SUP2    0.0000
     89 C37       13.8633    9.0586    1.4340 Du        2 SUP2    0.0000
     90 H41       14.7490    9.1850    1.1222 Du        2 SUP2    0.0000
     91 O10       18.0821    6.9424    2.2151 Du        2 SUP2    0.0000
     92 O11       18.6202    4.8932    3.1070 Du        2 SUP2    0.0000
     93 O12       14.6322    4.0888   -2.9831 Du        2 SUP2    0.0000
     94 O13       15.0746    2.1162   -2.2270 Du        2 SUP2    0.0000
     95 N4        15.1427    3.2940   -2.1727 Du        2 SUP2    0.0000
     96 C38       18.0842    5.5826    2.2553 Du        2 SUP2    0.0000
     97 C39       17.3095    4.9985    1.0929 Du        2 SUP2    0.0000
     98 C40       16.7135    5.7358    0.1434 Du        2 SUP2    0.0000
     99 H42       16.7756    6.6819    0.1901 Du        2 SUP2    0.0000
    100 C41       16.0166    5.1613   -0.8908 Du        2 SUP2    0.0000
    101 H43       15.6082    5.7215   -1.5437 Du        2 SUP2    0.0000
    102 C42       15.9153    3.8973   -1.0049 Du        2 SUP2    0.0000
    103 C43       16.4973    3.0738   -0.1032 Du        2 SUP2    0.0000
    104 H44       16.4377    2.1258   -0.1792 Du        2 SUP2    0.0000
    105 C44       17.2006    3.6866    0.9603 Du        2 SUP2    0.0000
    106 H45       17.6158    3.1360    1.6111 Du        2 SUP2    0.0000
    107 O14       17.4831    6.6838    2.5638 Du        2 SUP2    0.0000
    108 O15       18.7190    4.8357    3.1287 Du        2 SUP2    0.0000
    109 O16       16.3355    3.9931   -3.6610 Du        2 SUP2    0.0000
    110 O17       17.5200    2.2024   -3.1396 Du        2 SUP2    0.0000
    111 N5        17.0440    3.2557   -2.8995 Du        2 SUP2    0.0000
    112 C45       18.0437    5.4677    2.3357 Du        2 SUP2    0.0000
    113 C46       17.7538    4.9315    0.9560 Du        2 SUP2    0.0000
    114 C47       17.0381    5.5348    0.0000 Du        2 SUP2    0.0000
    115 H46       16.6657    6.3879    0.2042 Du        2 SUP2    0.0000
    116 C48       16.7941    5.0081   -1.2385 Du        2 SUP2    0.0000
    117 H47       16.2733    5.4859   -1.8783 Du        2 SUP2    0.0000
    118 C49       17.2841    3.8782   -1.5296 Du        2 SUP2    0.0000
    119 C50       18.0335    3.1696   -0.6518 Du        2 SUP2    0.0000
    120 H48       18.3923    2.3211   -0.8745 Du        2 SUP2    0.0000
    121 C51       18.2545    3.7441    0.6301 Du        2 SUP2    0.0000
    122 H49       18.7779    3.2749    1.2634 Du        2 SUP2    0.0000
    123 O18       17.7055    6.7604    2.3998 Du        2 SUP2    0.0000
    124 O19       18.1864    4.8357    3.5057 Du        2 SUP2    0.0000
    125 O20       14.3488    3.9165   -2.6942 Du        2 SUP2    0.0000
    126 O21       14.6617    1.9343   -1.8360 Du        2 SUP2    0.0000
    127 N6        14.7911    3.1025   -1.8316 Du        2 SUP2    0.0000
    128 C52       17.6819    5.4198    2.5736 Du        2 SUP2    0.0000
    129 C53       16.9238    4.7974    1.4220 Du        2 SUP2    0.0000
    130 C54       16.4036    5.5443    0.4389 Du        2 SUP2    0.0000
    131 H50       16.5161    6.4895    0.4715 Du        2 SUP2    0.0000
    132 C55       15.7119    4.9889   -0.6084 Du        2 SUP2    0.0000
    133 H51       15.3572    5.5520   -1.2917 Du        2 SUP2    0.0000
    134 C56       15.5522    3.7345   -0.6801 Du        2 SUP2    0.0000
    135 C57       16.0405    2.8919    0.2705 Du        2 SUP2    0.0000
    136 H52       15.9123    1.9515    0.2173 Du        2 SUP2    0.0000
    137 C58       16.7484    3.4856    1.3449 Du        2 SUP2    0.0000
    138 H53       17.1065    2.9263    2.0272 Du        2 SUP2    0.0000
@<TRIPOS>BOND
     1    1   32 1
     2    2    3 1
     3    4    5 1
     4    6   17 1
     5    7   25 1
     6    8   11 1
     7    9   10 1
     8   11   12 1
     9   12   13 1
    10   14    9 1
    11   15   14 1
    12   16    2 1
    13   17   11 1
    14   18   17 1
    15   19   18 1
    16   20   18 1
    17   21   18 1
    18   22    4 1
    19   23   22 1
    20   24   22 1
    21   25    6 1
    22   26   25 1
    23   27   25 1
    24   28    7 1
    25   29   28 1
    26   30   28 1
    27   31   28 1
    28   32   11 1
    29   33   32 1
    30   34   32 1
    31   35   34 1
    32   36   34 1
    33   37   34 1
    34   38    1 1
    35   39   38 1
    36   40   39 ar
    37   41   40 1
    38   42   40 ar
    39   43   42 1
    40   44   42 ar
    41   45   44 1
    42   46   44 ar
    43   47   46 1
    44   48   39 ar
    45   49   48 1
    46   50    9 1
    47   51   50 ar
    48   52   51 1
    49   53   51 ar
    50   54   53 1
    51   55   53 ar
    52   56   55 1
    53   57   55 ar
    54   58   57 1
    55   59   50 ar
    56   60   59 1
    57   61   12 1
    58   62   66 2
    59   63   65 2
    60   64   65 2
    61   65   72 1
    62   66   61 1
    63   67   66 1
    64   68   67 ar
    65   69   68 1
    66   70   68 ar
    67   71   70 1
    68   72   70 ar
    69   73   72 ar
    70   74   73 1
    71   75   67 ar
    72   76   75 1
    73    8   38 2
    74   12   14 1
    75   14   16 1
    76   16   17 1
    77   16   22 1
    78   46   48 ar
    79   57   59 ar
    80   73   75 ar
@<TRIPOS>SUBSTRUCTURE
     1 RES1 1
     2 SUP2 77

@<TRIPOS>CRYSIN
  29.8130    9.5757   11.6715  90.0000 111.4430  90.0000   5 1

