# MOL2 file generated by ConQuest
# Please check atom types

@<TRIPOS>MOLECULE
TIJJED
    74    75     1
SMALL
NO_CHARGES
****
Generated from CSD

@<TRIPOS>ATOM
      1 N1        -2.3477    8.0171   17.6070 N.3       1 RES1    0.0000
      2 N2        -1.8860    5.1367   12.5854 N.pl3     1 RES1    0.0000
      3 N3        -6.9640    6.4032   21.0238 N.pl3     1 RES1    0.0000
      4 N4        -0.0383    9.1823   18.8300 N.3       1 RES1    0.0000
      5 O1        -1.7962    5.8298   19.0907 O.3       1 RES1    0.0000
      6 H1        -1.6433    6.4586   18.5879 H         1 RES1    0.0000
      7 O2         0.6283    7.2666   17.0507 O.3       1 RES1    0.0000
      8 H2         0.1591    7.8438   17.3941 H         1 RES1    0.0000
      9 O3        -1.2994    4.2607   11.9636 O.2       1 RES1    0.0000
     10 O4        -3.0030    5.5475   12.2835 O.2       1 RES1    0.0000
     11 O5        -7.1484    6.1043   22.2096 O.2       1 RES1    0.0000
     12 O6        -7.8048    6.9278   20.3131 O.2       1 RES1    0.0000
     13 C1        -4.0192    6.6241   18.7929 C.ar      1 RES1    0.0000
     14 C2        -3.3992    5.2789   20.7672 C.ar      1 RES1    0.0000
     15 C3        -3.0674    5.9203   19.5526 C.ar      1 RES1    0.0000
     16 C4        -5.2968    6.7585   19.2660 C.ar      1 RES1    0.0000
     17 H3        -5.9321    7.2345   18.7834 H         1 RES1    0.0000
     18 C5        -1.2217    5.7334   13.7436 C.ar      1 RES1    0.0000
     19 C6        -4.7064    5.4560   21.2117 C.ar      1 RES1    0.0000
     20 H4        -4.9682    5.0822   22.0220 H         1 RES1    0.0000
     21 C7        -5.6213    6.1773   20.4707 C.ar      1 RES1    0.0000
     22 C8        -0.0122    6.7477   15.9555 C.ar      1 RES1    0.0000
     23 C9        -1.8435    6.7448   14.4155 C.ar      1 RES1    0.0000
     24 H5        -2.6647    7.0670   14.1220 H         1 RES1    0.0000
     25 C10       -1.2456    7.2822   15.5326 C.ar      1 RES1    0.0000
     26 C11       -2.3815    4.5352   21.5991 C.3       1 RES1    0.0000
     27 C12        0.6444    5.7101   15.2580 C.ar      1 RES1    0.0000
     28 C13       -1.8770    8.4133   16.2628 C.3       1 RES1    0.0000
     29 H6        -1.2333    9.1336   16.3512 H         1 RES1    0.0000
     30 H7        -2.6272    8.7462   15.7460 H         1 RES1    0.0000
     31 C14       -3.6114    7.2325   17.4807 C.3       1 RES1    0.0000
     32 H8        -3.4878    6.5278   16.8261 H         1 RES1    0.0000
     33 H9        -4.3206    7.8146   17.1632 H         1 RES1    0.0000
     34 C15       -0.0162    5.2166   14.1379 C.ar      1 RES1    0.0000
     35 H10        0.3654    4.5235   13.6490 H         1 RES1    0.0000
     36 C16       -2.4871    9.1725   18.5046 C.3       1 RES1    0.0000
     37 H11       -3.3011    9.0820   19.0255 H         1 RES1    0.0000
     38 H12       -2.5550    9.9853   17.9789 H         1 RES1    0.0000
     39 C17       -1.7248    3.3846   20.7631 C.3       1 RES1    0.0000
     40 H13       -2.4051    2.7762   20.4651 H         1 RES1    0.0000
     41 H14       -1.0910    2.9134   21.3087 H         1 RES1    0.0000
     42 H15       -1.2744    3.7584   20.0014 H         1 RES1    0.0000
     43 C18       -1.3160    9.2699   19.4241 C.3       1 RES1    0.0000
     44 H16       -1.3720   10.1148   19.8971 H         1 RES1    0.0000
     45 H17       -1.3901    8.5641   20.0852 H         1 RES1    0.0000
     46 C19       -1.2877    5.5105   22.0909 C.3       1 RES1    0.0000
     47 H18       -0.8310    5.8882   21.3348 H         1 RES1    0.0000
     48 H19       -0.6575    5.0355   22.6384 H         1 RES1    0.0000
     49 H20       -1.6916    6.2133   22.6049 H         1 RES1    0.0000
     50 C20       -3.0231    3.8460   22.8340 C.3       1 RES1    0.0000
     51 H21       -3.4063    4.5118   23.4095 H         1 RES1    0.0000
     52 H22       -2.3500    3.3573   23.3145 H         1 RES1    0.0000
     53 H23       -3.7096    3.2425   22.5416 H         1 RES1    0.0000
     54 C21        0.4139   10.4711   18.3495 C.3       1 RES1    0.0000
     55 H24       -0.2949   10.8984   17.8634 H         1 RES1    0.0000
     56 H25        1.1702   10.3504   17.7722 H         1 RES1    0.0000
     57 H26        0.6660   11.0201   19.0963 H         1 RES1    0.0000
     58 C22        1.9637    5.0978   15.7367 C.3       1 RES1    0.0000
     59 C23        2.4742    4.0231   14.7869 C.3       1 RES1    0.0000
     60 H27        1.8673    3.2785   14.7925 H         1 RES1    0.0000
     61 H28        3.3422    3.7301   15.0737 H         1 RES1    0.0000
     62 H29        2.5334    4.3814   13.8985 H         1 RES1    0.0000
     63 C24        1.7059    4.4602   17.1204 C.3       1 RES1    0.0000
     64 H30        1.0997    3.7214   17.0254 H         1 RES1    0.0000
     65 H31        1.3223    5.1143   17.7089 H         1 RES1    0.0000
     66 H32        2.5363    4.1468   17.4891 H         1 RES1    0.0000
     67 C25        3.0425    6.1880   15.8521 C.3       1 RES1    0.0000
     68 H33        3.8520    5.8016   16.1948 H         1 RES1    0.0000
     69 H34        2.7392    6.8762   16.4481 H         1 RES1    0.0000
     70 H35        3.2090    6.5657   14.9861 H         1 RES1    0.0000
     71 C26        0.9523    8.7111   19.7798 C.3       1 RES1    0.0000
     72 H36        1.0704    9.3672   20.4707 H         1 RES1    0.0000
     73 H37        1.7861    8.5661   19.3291 H         1 RES1    0.0000
     74 H38        0.6513    7.8866   20.1709 H         1 RES1    0.0000
@<TRIPOS>BOND
     1    1   28 1
     2    2    9 2
     3    3   11 2
     4    4   43 1
     5    5    6 1
     6    7    8 1
     7   10    2 2
     8   12    3 2
     9   13   15 ar
    10   14   15 ar
    11   15    5 1
    12   16   13 ar
    13   17   16 1
    14   18    2 1
    15   19   14 ar
    16   20   19 1
    17   21    3 1
    18   22    7 1
    19   23   18 ar
    20   24   23 1
    21   25   22 ar
    22   26   14 1
    23   27   22 ar
    24   28   25 1
    25   29   28 1
    26   30   28 1
    27   31    1 1
    28   32   31 1
    29   33   31 1
    30   34   18 ar
    31   35   34 1
    32   36    1 1
    33   37   36 1
    34   38   36 1
    35   39   26 1
    36   40   39 1
    37   41   39 1
    38   42   39 1
    39   43   36 1
    40   44   43 1
    41   45   43 1
    42   46   26 1
    43   47   46 1
    44   48   46 1
    45   49   46 1
    46   50   26 1
    47   51   50 1
    48   52   50 1
    49   53   50 1
    50   54    4 1
    51   55   54 1
    52   56   54 1
    53   57   54 1
    54   58   27 1
    55   59   58 1
    56   60   59 1
    57   61   59 1
    58   62   59 1
    59   63   58 1
    60   64   63 1
    61   65   63 1
    62   66   63 1
    63   67   58 1
    64   68   67 1
    65   69   67 1
    66   70   67 1
    67   71    4 1
    68   72   71 1
    69   73   71 1
    70   74   71 1
    71   13   31 1
    72   16   21 ar
    73   19   21 ar
    74   23   25 ar
    75   27   34 ar
@<TRIPOS>SUBSTRUCTURE
     1 RES1 1

@<TRIPOS>CRYSIN
  15.5224    9.7342   19.2871  90.0000 105.0760  90.0000  14 1

