# MOL2 file generated by ConQuest
# Please check atom types

@<TRIPOS>MOLECULE
TIJKED
    36    37     1
SMALL
NO_CHARGES
****
Generated from CSD

@<TRIPOS>ATOM
      1 N1         0.8545    3.4405    2.8354 N.pl3     1 RES1    0.0000
      2 C1         0.3446    2.3270    2.1800 C.ar      1 RES1    0.0000
      3 C2        -0.8580    2.4445    1.4513 C.ar      1 RES1    0.0000
      4 O1         1.9519    3.3570    3.5001 O.2       1 RES1    0.0000
      5 N2        -1.4949    3.6784    1.3567 N.pl3     1 RES1    0.0000
      6 O2        -2.5559    3.7919    0.6349 O.2       1 RES1    0.0000
      7 O3         0.5916    5.5831    4.8178 O.3       1 RES1    0.0000
      8 C3        -1.3961    1.3174    0.8357 C.ar      1 RES1    0.0000
      9 C4         0.7544    5.7559    3.5170 C.2       1 RES1    0.0000
     10 C5        -0.9837    4.7433    1.9936 C.ar      1 RES1    0.0000
     11 C6         0.1747    4.5861    2.7643 C.ar      1 RES1    0.0000
     12 O4         1.2447    6.6888    2.9627 O.2       1 RES1    0.0000
     13 C7        -1.6812    6.0374    1.8241 C.3       1 RES1    0.0000
     14 H1        -1.2086    6.7218    2.3038 H         1 RES1    0.0000
     15 H2        -2.5756    5.9665    2.1667 H         1 RES1    0.0000
     16 H3        -1.7128    6.2636    0.8910 H         1 RES1    0.0000
     17 C8         0.4314    0.0049    1.6509 C.ar      1 RES1    0.0000
     18 C9         0.9861    1.0970    2.2569 C.ar      1 RES1    0.0000
     19 C10       -0.7727    0.1233    0.9367 C.ar      1 RES1    0.0000
     20 C11        2.6995    6.5898    5.5551 C.3       1 RES1    0.0000
     21 H4         3.0842    5.7132    5.6321 H         1 RES1    0.0000
     22 H5         3.0984    7.1723    6.2068 H         1 RES1    0.0000
     23 H6         2.8625    6.9354    4.6750 H         1 RES1    0.0000
     24 C12        1.2112    6.5092    5.7968 C.3       1 RES1    0.0000
     25 C13        0.5420    7.8402    5.7090 C.3       1 RES1    0.0000
     26 H7         0.7495    8.2469    4.8637 H         1 RES1    0.0000
     27 H8         0.8547    8.4032    6.4209 H         1 RES1    0.0000
     28 H9        -0.4079    7.7266    5.7836 H         1 RES1    0.0000
     29 C14        0.9117    5.8355    7.1159 C.3       1 RES1    0.0000
     30 H10        1.3636    4.9889    7.1531 H         1 RES1    0.0000
     31 H11       -0.0345    5.6967    7.1976 H         1 RES1    0.0000
     32 H12        1.2161    6.3927    7.8361 H         1 RES1    0.0000
     33 H13       -1.1284   -0.6310    0.5050 H         1 RES1    0.0000
     34 H14        0.7901   -0.8349    1.7194 H         1 RES1    0.0000
     35 H15        1.7165    0.9999    2.7295 H         1 RES1    0.0000
     36 H16       -2.2029    1.4562    0.2044 H         1 RES1    0.0000
@<TRIPOS>BOND
     1    1    2 ar
     2    2    3 ar
     3    3    5 ar
     4    4    1 1
     5    5    6 1
     6    7    9 1
     7    8    3 ar
     8    9   11 1
     9   10    5 ar
    10   11    1 ar
    11   12    9 2
    12   13   10 1
    13   14   13 1
    14   15   13 1
    15   16   13 1
    16   17   18 ar
    17   18    2 ar
    18   19    8 ar
    19   20   21 1
    20   22   20 1
    21   23   20 1
    22   24    7 1
    23   25   24 1
    24   26   25 1
    25   27   25 1
    26   28   25 1
    27   29   24 1
    28   30   29 1
    29   31   29 1
    30   32   29 1
    31   33   19 1
    32   34   17 1
    33   35   18 1
    34   36    8 1
    35   10   11 ar
    36   17   19 ar
    37   20   24 1
@<TRIPOS>SUBSTRUCTURE
     1 RES1 1

@<TRIPOS>CRYSIN
   5.9167    9.7080   12.0510  90.0000  93.8300  90.0000   4 1

