# MOL2 file generated by ConQuest
# Please check atom types

@<TRIPOS>MOLECULE
TIJKEC
    14    13     1
SMALL
USER_CHARGES
****
Generated from CSD

@<TRIPOS>ATOM
      1 N1        -0.2080    1.5276    1.7378 N.pl3     1 RES1    0.0000
      2 O1        -1.0173    1.1226    0.8127 O.2       1 RES1    0.0000
      3 O2         0.1273    0.7108    2.6326 O.2       1 RES1    0.0000
      4 N2         0.1926    2.7414    1.6832 N.2       1 RES1   -1.0000
      5 C1         1.1287    3.0688    2.7481 C.3       1 RES1    0.0000
      6 H1         1.8597    2.4314    2.7541 H         1 RES1    0.0000
      7 H2         0.6804    3.0278    3.6077 H         1 RES1    0.0000
      8 C2         1.6622    4.4648    2.5091 C.3       1 RES1    0.0000
      9 H3         0.9370    5.1027    2.5971 H         1 RES1    0.0000
     10 H4         2.3258    4.6730    3.1854 H         1 RES1    0.0000
     11 N3         2.2728    4.6029    1.1687 N.4       1 RES1    1.0000
     12 H5         2.9921    4.0104    1.0911 H         1 RES1    0.0000
     13 H6         2.5773    5.4795    1.0533 H         1 RES1    0.0000
     14 H7         1.6353    4.4059    0.5135 H         1 RES1    0.0000
@<TRIPOS>BOND
     1    1    2 2
     2    3    1 2
     3    4    1 1
     4    5    4 1
     5    6    5 1
     6    7    5 1
     7    8    5 1
     8    9    8 1
     9   10    8 1
    10   11    8 1
    11   12   11 1
    12   13   11 1
    13   14   11 1
@<TRIPOS>SUBSTRUCTURE
     1 RES1 1

@<TRIPOS>CRYSIN
   4.3449    6.2955    8.5432 105.2400  92.7430  96.3560   2 1

