# MOL2 file generated by ConQuest
# Please check atom types

@<TRIPOS>MOLECULE
TIJNUW
    52    55     1
SMALL
NO_CHARGES
****
Generated from CSD

@<TRIPOS>ATOM
      1 O1         9.9138    9.4107    4.4104 O.2       1 RES1    0.0000
      2 O2        10.0950    9.2052    0.9057 O.2       1 RES1    0.0000
      3 O3         4.8251    6.4286    0.3991 O.2       1 RES1    0.0000
      4 O4         3.9706    6.5477    2.3867 O.2       1 RES1    0.0000
      5 N1         8.8061   11.7983    2.1276 N.2       1 RES1    0.0000
      6 N2         8.9559    9.3142    0.5816 N.2       1 RES1    0.0000
      7 N3         4.8438    6.8059    1.5677 N.2       1 RES1    0.0000
      8 C1         9.1515   12.9978    1.6219 C.2       1 RES1    0.0000
      9 H1         8.4962   13.4917    1.1423 H         1 RES1    0.0000
     10 C2        10.4168   13.5461    1.7663 C.2       1 RES1    0.0000
     11 H2        10.6172   14.3953    1.3916 H         1 RES1    0.0000
     12 C3        11.3807   12.8462    2.4590 C.2       1 RES1    0.0000
     13 H3        12.2569   13.1985    2.5583 H         1 RES1    0.0000
     14 C4        11.0495   11.6219    3.0062 C.2       1 RES1    0.0000
     15 H4        11.6857   11.1165    3.4984 H         1 RES1    0.0000
     16 C5         9.7511   11.1517    2.8121 C.2       1 RES1    0.0000
     17 C6         9.3380    9.8491    3.4234 C.2       1 RES1    0.0000
     18 C7         8.1628    9.0900    2.8617 C.2       1 RES1    0.0000
     19 C8         7.9416    8.8658    1.4927 C.2       1 RES1    0.0000
     20 C9         6.8570    8.1272    1.0493 C.2       1 RES1    0.0000
     21 H5         6.7079    7.9764    0.1237 H         1 RES1    0.0000
     22 C10        5.9924    7.6148    2.0156 C.2       1 RES1    0.0000
     23 C11        6.1825    7.7985    3.3665 C.2       1 RES1    0.0000
     24 H6         5.5786    7.4253    3.9978 H         1 RES1    0.0000
     25 C12        7.2729    8.5401    3.7828 C.2       1 RES1    0.0000
     26 H7         7.4182    8.6767    4.7121 H         1 RES1    0.0000
     27 O1A        7.6418    9.4623   -4.4104 O.2       1 RES1    0.0000
     28 O2A        7.4606    9.6678   -0.9057 O.2       1 RES1    0.0000
     29 O3A       12.7305   12.4443   -0.3991 O.2       1 RES1    0.0000
     30 O4A       13.5850   12.3253   -2.3867 O.2       1 RES1    0.0000
     31 N1A        8.7495    7.0747   -2.1276 N.2       1 RES1    0.0000
     32 N2A        8.5997    9.5588   -0.5816 N.2       1 RES1    0.0000
     33 N3A       12.7119   12.0671   -1.5677 N.2       1 RES1    0.0000
     34 C1A        8.4042    5.8752   -1.6219 C.2       1 RES1    0.0000
     35 H1A        9.0594    5.3812   -1.1423 H         1 RES1    0.0000
     36 C2A        7.1389    5.3268   -1.7663 C.2       1 RES1    0.0000
     37 H2A        6.9384    4.4777   -1.3916 H         1 RES1    0.0000
     38 C3A        6.1749    6.0268   -2.4590 C.2       1 RES1    0.0000
     39 H3A        5.2988    5.6745   -2.5583 H         1 RES1    0.0000
     40 C4A        6.5061    7.2511   -3.0062 C.2       1 RES1    0.0000
     41 H4A        5.8699    7.7565   -3.4984 H         1 RES1    0.0000
     42 C5A        7.8046    7.7213   -2.8121 C.2       1 RES1    0.0000
     43 C6A        8.2176    9.0238   -3.4234 C.2       1 RES1    0.0000
     44 C7A        9.3928    9.7830   -2.8617 C.2       1 RES1    0.0000
     45 C8A        9.6141   10.0072   -1.4927 C.2       1 RES1    0.0000
     46 C9A       10.6986   10.7458   -1.0493 C.2       1 RES1    0.0000
     47 H5A       10.8478   10.8966   -0.1237 H         1 RES1    0.0000
     48 C10A      11.5633   11.2582   -2.0156 C.2       1 RES1    0.0000
     49 C11A      11.3732   11.0745   -3.3665 C.2       1 RES1    0.0000
     50 H6A       11.9771   11.4476   -3.9978 H         1 RES1    0.0000
     51 C12A      10.2828   10.3329   -3.7828 C.2       1 RES1    0.0000
     52 H7A       10.1374   10.1963   -4.7121 H         1 RES1    0.0000
@<TRIPOS>BOND
     1    1   17 1
     2    2    6 1
     3    3    7 1
     4    4    7 1
     5    5    8 1
     6    6   19 1
     7    7   22 1
     8    8    9 1
     9   10    8 1
    10   11   10 1
    11   12   10 1
    12   13   12 1
    13   14   12 1
    14   15   14 1
    15   16    5 1
    16   17   16 1
    17   18   17 1
    18   19   18 1
    19   20   19 1
    20   21   20 1
    21   22   20 1
    22   23   22 1
    23   24   23 1
    24   25   18 1
    25   26   25 1
    26   27   43 1
    27   28   32 1
    28   29   33 1
    29   30   33 1
    30   31   34 1
    31   32    6 1
    32   33   48 1
    33   34   35 1
    34   36   34 1
    35   37   36 1
    36   38   36 1
    37   39   38 1
    38   40   38 1
    39   41   40 1
    40   42   31 1
    41   43   42 1
    42   44   43 1
    43   45   32 1
    44   46   45 1
    45   47   46 1
    46   48   46 1
    47   49   48 1
    48   50   49 1
    49   51   44 1
    50   52   51 1
    51   14   16 1
    52   23   25 1
    53   40   42 1
    54   44   45 1
    55   49   51 1
@<TRIPOS>SUBSTRUCTURE
     1 RES1 1

@<TRIPOS>CRYSIN
   6.1113    9.8060   10.1754  63.0070  87.3330  74.2210   2 1

