# MOL2 file generated by ConQuest
# Please check atom types

@<TRIPOS>MOLECULE
TIJPAE
    25    27     1
SMALL
NO_CHARGES
****
Generated from CSD

@<TRIPOS>ATOM
      1 O1        10.9548    1.1773    3.3200 O.3       1 RES1    0.0000
      2 O2         7.7673    0.2271   -1.9653 O.2       1 RES1    0.0000
      3 O3         6.2868   -1.0405   -1.0346 O.2       1 RES1    0.0000
      4 N1         8.7032   -0.2399    5.7304 N.ar      1 RES1    0.0000
      5 N2        10.8344    1.2978    1.9257 N.2       1 RES1    0.0000
      6 N3         7.2749   -0.3118   -0.9894 N.pl3     1 RES1    0.0000
      7 C1         8.6155   -0.4482    7.0456 C.ar      1 RES1    0.0000
      8 H1         7.8212   -0.8466    7.3794 H         1 RES1    0.0000
      9 C2         9.6132   -0.1190    7.9579 C.ar      1 RES1    0.0000
     10 H2         9.4993   -0.2840    8.8862 H         1 RES1    0.0000
     11 C3        10.7789    0.4572    7.4737 C.ar      1 RES1    0.0000
     12 H3        11.4826    0.6933    8.0679 H         1 RES1    0.0000
     13 C4        10.9027    0.6832    6.1155 C.ar      1 RES1    0.0000
     14 H4        11.6917    1.0737    5.7578 H         1 RES1    0.0000
     15 C5         9.8437    0.3246    5.2808 C.ar      1 RES1    0.0000
     16 C6         9.8775    0.5416    3.8431 C.2       1 RES1    0.0000
     17 C7         9.0134    0.2173    2.8185 C.2       1 RES1    0.0000
     18 C8         9.6660    0.7118    1.6532 C.2       1 RES1    0.0000
     19 C9         9.0970    0.5596    0.3580 C.2       1 RES1    0.0000
     20 H5         9.5192    0.8850   -0.4291 H         1 RES1    0.0000
     21 C10        7.8979   -0.0900    0.3330 C.2       1 RES1    0.0000
     22 C11        7.2069   -0.5931    1.4796 C.2       1 RES1    0.0000
     23 H6         6.3708   -1.0319    1.3771 H         1 RES1    0.0000
     24 C12        7.7515   -0.4406    2.7132 C.2       1 RES1    0.0000
     25 H7         7.3039   -0.7634    3.4876 H         1 RES1    0.0000
@<TRIPOS>BOND
     1    1    5 1
     2    2    6 2
     3    3    6 2
     4    4    7 ar
     5    5   18 2
     6    6   21 1
     7    7    8 1
     8    9    7 ar
     9   10    9 1
    10   11    9 ar
    11   12   11 1
    12   13   11 ar
    13   14   13 1
    14   15    4 ar
    15   16    1 1
    16   17   16 2
    17   18   17 1
    18   19   18 1
    19   20   19 1
    20   21   19 2
    21   22   21 1
    22   23   22 1
    23   24   17 1
    24   25   24 1
    25   13   15 ar
    26   15   16 1
    27   22   24 2
@<TRIPOS>SUBSTRUCTURE
     1 RES1 1

@<TRIPOS>CRYSIN
  10.7816    3.7660   25.2394  90.0000  98.7280  90.0000 231 1

