# MOL2 file generated by ConQuest
# Please check atom types

@<TRIPOS>MOLECULE
TILJUV
    25    25     1
SMALL
NO_CHARGES
****
Generated from CSD

@<TRIPOS>ATOM
      1 N1        -3.6588    7.1787    7.9659 N.3       1 RES1    0.0000
      2 N2        -4.6544    8.0297    8.2953 N.2       1 RES1    0.0000
      3 N3        -4.0629    9.0097    8.8868 N.2       1 RES1    0.0000
      4 N4        -2.6989    8.8111    8.9685 N.2       1 RES1    0.0000
      5 C1        -2.4739    7.6527    8.3638 C.2       1 RES1    0.0000
      6 O1        -3.9059    5.9808    7.3484 O.3       1 RES1    0.0000
      7 C2        -4.1001    6.1836    5.9173 C.3       1 RES1    0.0000
      8 H1        -4.3714    5.3390    5.5016 H         1 RES1    0.0000
      9 H2        -3.2620    6.4916    5.5143 H         1 RES1    0.0000
     10 H3        -4.7975    6.8570    5.7746 H         1 RES1    0.0000
     11 N5        -1.3032    7.0242    8.1238 N.3       1 RES1    0.0000
     12 H4        -1.2800    6.3158    7.6027 H         1 RES1    0.0000
     13 C3        -0.0917    7.5218    8.7273 C.3       1 RES1    0.0000
     14 H5         0.2988    6.8135    9.2977 H         1 RES1    0.0000
     15 H6        -0.3142    8.2907    9.3093 H         1 RES1    0.0000
     16 C4         0.9480    7.9606    7.6997 C.3       1 RES1    0.0000
     17 N6         1.4845    6.8121    6.8551 N.pl3     1 RES1    0.0000
     18 O2         0.6546    6.2637    6.1551 O.2       1 RES1    0.0000
     19 O3         2.6583    6.5380    6.9619 O.2       1 RES1    0.0000
     20 N7         2.1356    8.6224    8.4024 N.pl3     1 RES1    0.0000
     21 O4         2.4315    8.1271    9.4704 O.2       1 RES1    0.0000
     22 O5         2.6531    9.5723    7.8544 O.2       1 RES1    0.0000
     23 N8         0.4295    8.9982    6.7100 N.pl3     1 RES1    0.0000
     24 O6         0.8719    8.9716    5.5792 O.2       1 RES1    0.0000
     25 O7        -0.3581    9.8071    7.1647 O.2       1 RES1    0.0000
@<TRIPOS>BOND
     1    1    2 1
     2    2    3 2
     3    3    4 1
     4    4    5 2
     5    5    1 1
     6    6    1 1
     7    7    6 1
     8    8    7 1
     9    9    7 1
    10   10    7 1
    11   11    5 1
    12   12   11 1
    13   13   11 1
    14   14   13 1
    15   15   13 1
    16   16   13 1
    17   17   16 1
    18   18   17 2
    19   19   17 2
    20   20   16 1
    21   21   20 2
    22   22   20 2
    23   23   16 1
    24   24   23 2
    25   25   23 2
@<TRIPOS>SUBSTRUCTURE
     1 RES1 1

@<TRIPOS>CRYSIN
   9.9628    9.2499   11.7900  90.0000 101.0830  90.0000  14 1

