# MOL2 file generated by ConQuest
# Please check atom types

@<TRIPOS>MOLECULE
TIMLEI
    63    67     1
SMALL
NO_CHARGES
****
Generated from CSD

@<TRIPOS>ATOM
      1 O1         2.4272    2.8557    5.6226 O.3       1 RES1    0.0000
      2 N1         5.3560    3.6100    7.3619 N.pl3     1 RES1    0.0000
      3 N2         4.9558    3.5115    8.6470 N.2       1 RES1    0.0000
      4 N3         6.0054    3.1165    9.3430 N.2       1 RES1    0.0000
      5 C1         4.4561    4.0801    6.3020 C.3       1 RES1    0.0000
      6 H1         4.7173    3.6644    5.4421 H         1 RES1    0.0000
      7 C2         4.4905    5.6059    6.1582 C.3       1 RES1    0.0000
      8 H2         5.3759    6.0202    6.3031 H         1 RES1    0.0000
      9 C3         3.8275    5.9431    4.8233 C.3       1 RES1    0.0000
     10 H3         4.1825    5.3816    4.1030 H         1 RES1    0.0000
     11 H4         3.9653    6.8859    4.5917 H         1 RES1    0.0000
     12 C4         2.3309    5.6473    5.0666 C.3       1 RES1    0.0000
     13 H5         1.7866    6.4545    4.9523 H         1 RES1    0.0000
     14 H6         2.0034    4.9516    4.4605 H         1 RES1    0.0000
     15 C5         2.3179    5.1716    6.5136 C.3       1 RES1    0.0000
     16 H7         1.4355    5.2402    6.9568 H         1 RES1    0.0000
     17 C6         2.9571    3.7767    6.5865 C.3       1 RES1    0.0000
     18 H8         2.8555    3.4058    7.4994 H         1 RES1    0.0000
     19 C7         6.6546    3.2944    7.2540 C.2       1 RES1    0.0000
     20 H9         7.1715    3.2944    6.4702 H         1 RES1    0.0000
     21 C8         3.4114    6.0216    7.1546 C.3       1 RES1    0.0000
     22 H10        3.6149    5.7488    8.0737 H         1 RES1    0.0000
     23 H11        3.2137    6.9817    7.1228 H         1 RES1    0.0000
     24 C9         7.0737    2.9715    8.5169 C.2       1 RES1    0.0000
     25 N4         1.8245    1.6912    6.2572 N.3       1 RES1    0.0000
     26 C10        0.3675    1.7043    5.9170 C.3       1 RES1    0.0000
     27 C11       -0.2226    0.4472    6.5590 C.3       1 RES1    0.0000
     28 H12       -0.1680    0.5343    7.5332 H         1 RES1    0.0000
     29 H13       -1.1701    0.3843    6.3179 H         1 RES1    0.0000
     30 C12        0.4704   -0.8257    6.1455 C.3       1 RES1    0.0000
     31 H14        0.3545   -0.9715    5.1829 H         1 RES1    0.0000
     32 H15        0.0773   -1.5886    6.6215 H         1 RES1    0.0000
     33 C13        1.9446   -0.7143    6.4776 C.3       1 RES1    0.0000
     34 H16        2.4002   -1.5258    6.1698 H         1 RES1    0.0000
     35 H17        2.0468   -0.6672    7.4507 H         1 RES1    0.0000
     36 C14        2.6236    0.5002    5.8504 C.3       1 RES1    0.0000
     37 C15       -0.2392    2.9201    6.6014 C.3       1 RES1    0.0000
     38 H18        0.0825    2.9715    7.5152 H         1 RES1    0.0000
     39 H19       -1.2057    2.8401    6.6035 H         1 RES1    0.0000
     40 H20        0.0178    3.7230    6.1222 H         1 RES1    0.0000
     41 C16        0.0302    1.7915    4.4150 C.3       1 RES1    0.0000
     42 H21        0.6053    2.4472    3.9919 H         1 RES1    0.0000
     43 H22       -0.8966    2.0586    4.3071 H         1 RES1    0.0000
     44 H23        0.1673    0.9257    4.0014 H         1 RES1    0.0000
     45 C17        4.0098    0.6429    6.4660 C.3       1 RES1    0.0000
     46 H24        4.4976    1.3415    6.0027 H         1 RES1    0.0000
     47 H25        4.4879   -0.1957    6.3824 H         1 RES1    0.0000
     48 H26        3.9245    0.8757    7.4031 H         1 RES1    0.0000
     49 C18        2.8058    0.3157    4.3357 C.3       1 RES1    0.0000
     50 H27        1.9762   -0.0043    3.9475 H         1 RES1    0.0000
     51 H28        3.5105   -0.3300    4.1707 H         1 RES1    0.0000
     52 H29        3.0438    1.1658    3.9337 H         1 RES1    0.0000
     53 C19        8.3888    2.5572    9.0141 C.ar      1 RES1    0.0000
     54 C20        9.5022    2.5901    8.1911 C.ar      1 RES1    0.0000
     55 H30        9.4209    2.8915    7.3048 H         1 RES1    0.0000
     56 C21       10.7480    2.1744    8.6745 C.ar      1 RES1    0.0000
     57 H31       11.4996    2.1915    8.1108 H         1 RES1    0.0000
     58 C22       10.8730    1.7458    9.9533 C.ar      1 RES1    0.0000
     59 H32       11.7149    1.4700   10.2664 H         1 RES1    0.0000
     60 C23        9.8021    1.7101   10.7911 C.ar      1 RES1    0.0000
     61 H33        9.9052    1.4186   11.6785 H         1 RES1    0.0000
     62 C24        8.5475    2.1115   10.3214 C.ar      1 RES1    0.0000
     63 H34        7.8029    2.0786   10.8958 H         1 RES1    0.0000
@<TRIPOS>BOND
     1    1   17 1
     2    2    3 1
     3    3    4 2
     4    4   24 1
     5    5    2 1
     6    6    5 1
     7    7    5 1
     8    8    7 1
     9    9    7 1
    10   10    9 1
    11   11    9 1
    12   12    9 1
    13   13   12 1
    14   14   12 1
    15   15   12 1
    16   16   15 1
    17   17    5 1
    18   18   17 1
    19   19    2 1
    20   20   19 1
    21   21    7 1
    22   22   21 1
    23   23   21 1
    24   24   19 2
    25   25    1 1
    26   26   25 1
    27   27   26 1
    28   28   27 1
    29   29   27 1
    30   30   27 1
    31   31   30 1
    32   32   30 1
    33   33   30 1
    34   34   33 1
    35   35   33 1
    36   36   25 1
    37   37   26 1
    38   38   37 1
    39   39   37 1
    40   40   37 1
    41   41   26 1
    42   42   41 1
    43   43   41 1
    44   44   41 1
    45   45   36 1
    46   46   45 1
    47   47   45 1
    48   48   45 1
    49   49   36 1
    50   50   49 1
    51   51   49 1
    52   52   49 1
    53   53   24 1
    54   54   53 ar
    55   55   54 1
    56   56   54 ar
    57   57   56 1
    58   58   56 ar
    59   59   58 1
    60   60   58 ar
    61   61   60 1
    62   62   53 ar
    63   63   62 1
    64   15   17 1
    65   15   21 1
    66   33   36 1
    67   60   62 ar
@<TRIPOS>SUBSTRUCTURE
     1 RES1 1

@<TRIPOS>CRYSIN
  14.7460   14.2862   11.1084  90.0000 107.7870  90.0000  14 1

