# MOL2 file generated by ConQuest
# Please check atom types

@<TRIPOS>MOLECULE
TIMZAQ03
    30    31     1
SMALL
NO_CHARGES
****
Generated from CSD

@<TRIPOS>ATOM
      1 O1        -0.0012    2.3855    7.3507 O.2       1 RES1    0.0000
      2 O2         3.0057    7.6776    9.8078 O.2       1 RES1    0.0000
      3 O3         2.5693    9.7184    9.2472 O.2       1 RES1    0.0000
      4 N1         2.7087    8.5276    8.9763 N.pl3     1 RES1    0.0000
      5 N2        -1.4902    0.2513   11.6382 N.ar      1 RES1    0.0000
      6 N3         0.3026    4.0925    8.8265 N.am      1 RES1    0.0000
      7 N4         0.8854    4.8735    7.8573 N.2       1 RES1    0.0000
      8 C1        -0.8388    1.3864   11.9332 C.ar      1 RES1    0.0000
      9 C2        -0.3521    2.2576   10.9710 C.ar      1 RES1    0.0000
     10 C3        -0.5624    1.9701    9.6246 C.ar      1 RES1    0.0000
     11 C4        -1.2297    0.7973    9.3103 C.ar      1 RES1    0.0000
     12 C5        -1.6689   -0.0243   10.3377 C.ar      1 RES1    0.0000
     13 C6        -0.0705    2.8287    8.4874 C.2       1 RES1    0.0000
     14 C7         1.9472    6.8993    7.2560 C.ar      1 RES1    0.0000
     15 C8         2.5465    8.1186    7.5799 C.ar      1 RES1    0.0000
     16 C9         3.0571    8.9927    6.6295 C.ar      1 RES1    0.0000
     17 C10        3.0186    8.6232    5.2991 C.ar      1 RES1    0.0000
     18 C11        2.4695    7.3984    4.9370 C.ar      1 RES1    0.0000
     19 C12        1.9278    6.5614    5.8998 C.ar      1 RES1    0.0000
     20 C13        1.3089    6.0144    8.2448 C.2       1 RES1    0.0000
     21 H1        -0.7043    1.6046   12.8476 H         1 RES1    0.0000
     22 H2         0.1196    3.0420   11.2271 H         1 RES1    0.0000
     23 H3        -1.3842    0.5596    8.4030 H         1 RES1    0.0000
     24 H4        -2.1220   -0.8274   10.1079 H         1 RES1    0.0000
     25 H5         0.1616    4.4465    9.5943 H         1 RES1    0.0000
     26 H6         3.4258    9.8287    6.8899 H         1 RES1    0.0000
     27 H7         3.3664    9.2046    4.6331 H         1 RES1    0.0000
     28 H8         2.4655    7.1332    4.0244 H         1 RES1    0.0000
     29 H9         1.5346    5.7396    5.6312 H         1 RES1    0.0000
     30 H10        1.2146    6.2861    9.1497 H         1 RES1    0.0000
@<TRIPOS>BOND
     1    1   13 2
     2    2    4 2
     3    3    4 2
     4    4   15 1
     5    5    8 ar
     6    6    7 1
     7    7   20 2
     8    8    9 ar
     9    9   10 ar
    10   10   11 ar
    11   11   12 ar
    12   12    5 ar
    13   13    6 1
    14   14   15 ar
    15   15   16 ar
    16   16   17 ar
    17   17   18 ar
    18   18   19 ar
    19   19   14 ar
    20   20   14 1
    21   21    8 1
    22   22    9 1
    23   23   11 1
    24   24   12 1
    25   25    6 1
    26   26   16 1
    27   27   17 1
    28   28   18 1
    29   29   19 1
    30   30   20 1
    31   10   13 1
@<TRIPOS>SUBSTRUCTURE
     1 RES1 1

@<TRIPOS>CRYSIN
   7.3096   10.9305   15.3801  90.0000  94.5690  90.0000  14 1

