# MOL2 file generated by ConQuest
# Please check atom types

@<TRIPOS>MOLECULE
TIMZAQ02
    30    31     1
SMALL
NO_CHARGES
****
Generated from CSD

@<TRIPOS>ATOM
      1 O1         5.0213    3.0814   -7.9956 O.2       1 RES1    0.0000
      2 O2         8.0245   -2.2272   -5.5540 O.2       1 RES1    0.0000
      3 O3         7.6218   -4.2354   -6.1605 O.2       1 RES1    0.0000
      4 N1         5.3369    1.3770   -6.5346 N.am      1 RES1    0.0000
      5 N2         5.9372    0.6085   -7.5036 N.2       1 RES1    0.0000
      6 N3         3.4852    5.1813   -3.7178 N.ar      1 RES1    0.0000
      7 N4         7.7581   -3.0511   -6.4021 N.pl3     1 RES1    0.0000
      8 C1         4.9505    2.6340   -6.8655 C.2       1 RES1    0.0000
      9 C2         4.4408    3.4813   -5.7307 C.ar      1 RES1    0.0000
     10 C3         4.6414    3.1898   -4.3835 C.ar      1 RES1    0.0000
     11 C4         4.1439    4.0521   -3.4271 C.ar      1 RES1    0.0000
     12 C5         3.3157    5.4543   -5.0159 C.ar      1 RES1    0.0000
     13 C6         3.7716    4.6489   -6.0388 C.ar      1 RES1    0.0000
     14 C7         6.3626   -0.5262   -7.1239 C.2       1 RES1    0.0000
     15 C8         7.0253   -1.3955   -8.1061 C.ar      1 RES1    0.0000
     16 C9         7.6264   -2.6155   -7.7919 C.ar      1 RES1    0.0000
     17 C10        8.1636   -3.4669   -8.7460 C.ar      1 RES1    0.0000
     18 C11        8.1480   -3.0788  -10.0619 C.ar      1 RES1    0.0000
     19 C12        7.5997   -1.8623  -10.4134 C.ar      1 RES1    0.0000
     20 C13        7.0294   -1.0407   -9.4584 C.ar      1 RES1    0.0000
     21 H1         5.2215    1.0583   -5.7533 H         1 RES1    0.0000
     22 H2         6.2203   -0.8139   -6.2822 H         1 RES1    0.0000
     23 H3         3.6583    4.8724   -6.9745 H         1 RES1    0.0000
     24 H4         2.8739    6.3060   -5.1719 H         1 RES1    0.0000
     25 H5         4.3253    3.8621   -2.4626 H         1 RES1    0.0000
     26 H6         5.0941    2.4111   -4.0817 H         1 RES1    0.0000
     27 H7         8.5956   -4.2658   -8.4225 H         1 RES1    0.0000
     28 H8         8.5153   -3.6330  -10.7417 H         1 RES1    0.0000
     29 H9         7.6238   -1.5492  -11.2952 H         1 RES1    0.0000
     30 H10        6.5602   -0.2291   -9.7424 H         1 RES1    0.0000
@<TRIPOS>BOND
     1    1    8 2
     2    2    7 2
     3    3    7 2
     4    4    5 1
     5    5   14 2
     6    6   11 ar
     7    7   16 1
     8    8    4 1
     9    9    8 1
    10   10    9 ar
    11   11   10 ar
    12   12    6 ar
    13   13    9 ar
    14   14   15 1
    15   15   16 ar
    16   16   17 ar
    17   17   18 ar
    18   18   19 ar
    19   19   20 ar
    20   20   15 ar
    21   21    4 1
    22   22   14 1
    23   23   13 1
    24   24   12 1
    25   25   11 1
    26   26   10 1
    27   27   17 1
    28   28   18 1
    29   29   19 1
    30   30   20 1
    31   12   13 ar
@<TRIPOS>SUBSTRUCTURE
     1 RES1 1

@<TRIPOS>CRYSIN
   7.5100   10.9100   15.4760  90.0000  94.8700  90.0000  14 1

