# MOL2 file generated by ConQuest
# Please check atom types

@<TRIPOS>MOLECULE
TIPNIR
    36    35     1
SMALL
NO_CHARGES
****
Generated from CSD

@<TRIPOS>ATOM
      1 O1         1.4808    1.2349    1.9633 O.3       1 RES1    0.0000
      2 N1         0.3381    0.9309    6.7923 N.pl3     1 RES1    0.0000
      3 O2         4.1055   -0.8159    3.8753 O.2       1 RES1    0.0000
      4 O3        -0.1500    0.9377    5.6850 O.2       1 RES1    0.0000
      5 O4         2.9298   -0.4973    8.6483 O.2       1 RES1    0.0000
      6 N2         2.4629    0.1946    7.7729 N.pl3     1 RES1    0.0000
      7 O5         2.5537    1.7993    3.8594 O.2       1 RES1    0.0000
      8 O6         3.9985   -1.3663    5.9872 O.2       1 RES1    0.0000
      9 N3         3.5032   -0.9943    4.9211 N.pl3     1 RES1    0.0000
     10 O7         2.7674    1.0944   -0.7758 O.2       1 RES1    0.0000
     11 O8         0.0483   -2.1446    8.0777 O.2       1 RES1    0.0000
     12 O9         2.9389    1.1838    7.2594 O.2       1 RES1    0.0000
     13 N4         2.1553   -0.7287    4.9183 N.3       1 RES1    0.0000
     14 C1         1.7761    2.5445    1.4554 C.3       1 RES1    0.0000
     15 H1         2.7533    2.7025    1.4475 H         1 RES1    0.0000
     16 H2         1.3471    3.2389    2.0164 H         1 RES1    0.0000
     17 O10        0.2235    1.7970    7.6310 O.2       1 RES1    0.0000
     18 C2         1.9485    1.0008    3.2137 C.2       1 RES1    0.0000
     19 O11        0.6615    0.6654   -1.1673 O.2       1 RES1    0.0000
     20 N5         0.3654   -1.0073    8.2837 N.pl3     1 RES1    0.0000
     21 O12        1.6437    4.8289   -0.0982 O.2       1 RES1    0.0000
     22 N6        -0.2885    2.7552   -0.0240 N.pl3     1 RES1    0.0000
     23 O13       -0.9067    2.4800    0.9729 O.2       1 RES1    0.0000
     24 N7         1.5742    1.3265   -0.7158 N.pl3     1 RES1    0.0000
     25 O14        2.2932    3.5915   -1.7857 O.2       1 RES1    0.0000
     26 C3         1.3858   -1.2803    6.0184 C.3       1 RES1    0.0000
     27 H3         1.8564   -2.0790    6.3684 H         1 RES1    0.0000
     28 H4         0.5058   -1.5781    5.6746 H         1 RES1    0.0000
     29 C4         1.2245    2.5832    0.0535 C.3       1 RES1    0.0000
     30 N8         1.7882    3.7721   -0.6992 N.pl3     1 RES1    0.0000
     31 O15        0.0846   -0.3580    9.2659 O.2       1 RES1    0.0000
     32 C5         1.1579   -0.2978    7.1727 C.3       1 RES1    0.0000
     33 O16       -0.7304    3.1583   -1.0764 O.2       1 RES1    0.0000
     34 C6         1.5742   -0.4031    3.6215 C.3       1 RES1    0.0000
     35 H5         0.5887   -0.4827    3.6703 H         1 RES1    0.0000
     36 H6         1.9016   -1.0438    2.9405 H         1 RES1    0.0000
@<TRIPOS>BOND
     1    1   14 1
     2    2    4 2
     3    3    9 2
     4    5    6 2
     5    6   12 2
     6    7   18 2
     7    8    9 2
     8    9   13 1
     9   10   24 2
    10   11   20 2
    11   13   26 1
    12   14   15 1
    13   16   14 1
    14   17    2 2
    15   18    1 1
    16   19   24 2
    17   20   31 2
    18   21   30 2
    19   22   23 2
    20   24   29 1
    21   25   30 2
    22   26   27 1
    23   28   26 1
    24   29   14 1
    25   30   29 1
    26   32    2 1
    27   33   22 2
    28   34   13 1
    29   35   34 1
    30   36   34 1
    31    6   32 1
    32   18   34 1
    33   20   32 1
    34   22   29 1
    35   26   32 1
@<TRIPOS>SUBSTRUCTURE
     1 RES1 1

@<TRIPOS>CRYSIN
   5.9751   10.7499   24.0150  90.0000  91.7041  90.0000  14 1

