# MOL2 file generated by ConQuest
# Please check atom types

@<TRIPOS>MOLECULE
TIPVAR01
    20    21     1
SMALL
NO_CHARGES
****
Generated from CSD

@<TRIPOS>ATOM
      1 O1         8.4705    8.2497    0.1387 O.3       1 RES1    0.0000
      2 N1         9.1875   10.6086    0.9083 N.pl3     1 RES1    0.0000
      3 C1         9.7554    9.4675    1.4479 C.2       1 RES1    0.0000
      4 N2         9.4790    8.2576    1.1276 N.2       1 RES1    0.0000
      5 C2        10.7429    9.9053    2.4410 C.ar      1 RES1    0.0000
      6 C3        11.6042    9.1924    3.2589 C.ar      1 RES1    0.0000
      7 H1        11.6077    8.2422    3.2580 H         1 RES1    0.0000
      8 C4        12.4638    9.9121    4.0815 C.ar      1 RES1    0.0000
      9 H2        13.0618    9.4459    4.6538 H         1 RES1    0.0000
     10 H3         8.6026   10.6086    0.2488 H         1 RES1    0.0000
     11 H4         8.5855    7.4359   -0.2535 H         1 RES1    0.0000
     12 O1G        8.4705   12.9675    0.1387 O.3       1 RES1    0.0000
     13 C1G        9.7554   11.7497    1.4479 C.2       1 RES1    0.0000
     14 N2G        9.4790   12.9596    1.1276 N.2       1 RES1    0.0000
     15 C2G       10.7429   11.3119    2.4410 C.ar      1 RES1    0.0000
     16 C3G       11.6042   12.0248    3.2589 C.ar      1 RES1    0.0000
     17 H1G       11.6077   12.9750    3.2580 H         1 RES1    0.0000
     18 C4G       12.4638   11.3051    4.0815 C.ar      1 RES1    0.0000
     19 H2G       13.0618   11.7713    4.6538 H         1 RES1    0.0000
     20 H4G        8.5855   13.7813   -0.2535 H         1 RES1    0.0000
@<TRIPOS>BOND
     1    1    4 1
     2    2    3 1
     3    3    4 2
     4    5    3 1
     5    6    5 ar
     6    7    6 1
     7    8    6 ar
     8    9    8 1
     9   10    2 1
    10   11    1 1
    11   12   14 1
    12   13    2 1
    13   14   13 2
    14   15    5 ar
    15   16   15 ar
    16   17   16 1
    17   18    8 ar
    18   19   18 1
    19   20   12 1
    20   13   15 1
    21   16   18 ar
@<TRIPOS>SUBSTRUCTURE
     1 RES1 1

@<TRIPOS>CRYSIN
  12.2405   14.1448    4.6082  90.0000  90.0000  90.0000  62 1

