# MOL2 file generated by ConQuest
# Please check atom types

@<TRIPOS>MOLECULE
TIQQIV
    82    88     1
SMALL
NO_CHARGES
****
Generated from CSD

@<TRIPOS>ATOM
      1 O1         2.0286   11.9695   20.3659 O.2       1 RES1    0.0000
      2 C1         2.2439   11.4100   19.3233 C.2       1 RES1    0.0000
      3 O2         2.8970   11.9577   18.2977 O.3       1 RES1    0.0000
      4 C2         3.4212   13.2807   18.5295 C.3       1 RES1    0.0000
      5 H1         3.9899   13.5123   17.7596 H         1 RES1    0.0000
      6 H2         2.6839   13.9322   18.6139 H         1 RES1    0.0000
      7 H3         3.9384   13.2533   19.3455 H         1 RES1    0.0000
      8 C3         1.8326    9.9812   19.0122 C.3       1 RES1    0.0000
      9 C4         1.2053    9.3443   20.2820 C.3       1 RES1    0.0000
     10 N1         0.9160    7.9277   20.0907 N.3       1 RES1    0.0000
     11 C5         2.1188    7.1905   19.7057 C.3       1 RES1    0.0000
     12 C6         2.6818    7.7263   18.3737 C.3       1 RES1    0.0000
     13 C7         3.0669    9.1554   18.6913 C.2       1 RES1    0.0000
     14 O3         4.2046    9.5311   18.8316 O.2       1 RES1    0.0000
     15 C8         1.6513    7.6489   17.1917 C.3       1 RES1    0.0000
     16 N2         0.5615    8.6323   17.2838 N.3       1 RES1    0.0000
     17 C9         0.9109    9.9763   17.7391 C.3       1 RES1    0.0000
     18 C10       -0.3587   10.7743   18.0253 C.ar      1 RES1    0.0000
     19 N3        -0.2834   12.0719   17.7152 N.ar      1 RES1    0.0000
     20 C11       -1.3660   12.8235   17.9689 C.ar      1 RES1    0.0000
     21 C12       -2.5432   12.3310   18.5011 C.ar      1 RES1    0.0000
     22 C13       -2.6079   10.9907   18.8077 C.ar      1 RES1    0.0000
     23 C14       -1.4973   10.1948   18.5794 C.ar      1 RES1    0.0000
     24 H4        -1.4942    9.2575   18.7795 H         1 RES1    0.0000
     25 H5        -3.3936   10.6002   19.1755 H         1 RES1    0.0000
     26 H6        -3.2696   12.9130   18.6354 H         1 RES1    0.0000
     27 H7        -1.2982   13.7882   17.7746 H         1 RES1    0.0000
     28 H8         1.3819   10.4653   17.0516 H         1 RES1    0.0000
     29 C15       -0.1873    8.6797   16.0025 C.3       1 RES1    0.0000
     30 C16        0.5924    9.0639   14.7635 C.ar      1 RES1    0.0000
     31 N4         0.9395    8.0490   13.9595 N.ar      1 RES1    0.0000
     32 C17        1.5974    8.3489   12.8311 C.ar      1 RES1    0.0000
     33 C18        1.9523    9.6315   12.4547 C.ar      1 RES1    0.0000
     34 C19        1.6057   10.6723   13.2963 C.ar      1 RES1    0.0000
     35 C20        0.9041   10.3870   14.4629 C.ar      1 RES1    0.0000
     36 H9         0.6128   11.0814   15.0654 H         1 RES1    0.0000
     37 H10        1.8239   11.5841   13.0835 H         1 RES1    0.0000
     38 H11        2.4233    9.7771   11.6353 H         1 RES1    0.0000
     39 H12        1.7998    7.6236   12.2464 H         1 RES1    0.0000
     40 H13       -0.9276    9.3112   16.1155 H         1 RES1    0.0000
     41 H14       -0.5325    7.7769   15.8766 H         1 RES1    0.0000
     42 C21        1.1066    6.2329   17.1596 C.ar      1 RES1    0.0000
     43 N5         1.9735    5.3275   16.6838 N.ar      1 RES1    0.0000
     44 C22        1.6090    4.0413   16.7170 C.ar      1 RES1    0.0000
     45 C23        0.3907    3.6072   17.2059 C.ar      1 RES1    0.0000
     46 C24       -0.4952    4.5486   17.6849 C.ar      1 RES1    0.0000
     47 C25       -0.1450    5.8868   17.6649 C.ar      1 RES1    0.0000
     48 H15       -0.7128    6.5600   17.9790 H         1 RES1    0.0000
     49 H16       -1.3190    4.2992   18.0307 H         1 RES1    0.0000
     50 H17        0.1770    2.6577   17.2022 H         1 RES1    0.0000
     51 H18        2.2493    3.4179   16.3823 H         1 RES1    0.0000
     52 H19        2.1631    7.7892   16.3759 H         1 RES1    0.0000
     53 C26        3.9689    6.9698   18.0294 C.2       1 RES1    0.0000
     54 O4         4.4695    7.3729   16.8635 O.3       1 RES1    0.0000
     55 C27        5.7156    6.7632   16.4781 C.3       1 RES1    0.0000
     56 H20        5.9909    7.2420   15.6787 H         1 RES1    0.0000
     57 H21        6.3957    6.8788   17.1699 H         1 RES1    0.0000
     58 H22        5.5591    5.8442   16.2747 H         1 RES1    0.0000
     59 O5         4.4947    6.1757   18.7617 O.2       1 RES1    0.0000
     60 H23        2.8117    7.2880   20.4021 H         1 RES1    0.0000
     61 H24        1.8937    6.2687   19.6339 H         1 RES1    0.0000
     62 C28        0.3269    7.3930   21.3274 C.3       1 RES1    0.0000
     63 C29       -0.2120    6.0134   21.1440 C.2       1 RES1    0.0000
     64 N6        -1.4935    5.7910   21.0171 N.2       1 RES1    0.0000
     65 O6        -1.5709    4.3950   20.8436 O.3       1 RES1    0.0000
     66 C30       -0.2944    3.9416   20.8886 C.2       1 RES1    0.0000
     67 N7         0.5772    4.8864   21.0804 N.2       1 RES1    0.0000
     68 C31       -0.0494    2.5283   20.6592 C.ar      1 RES1    0.0000
     69 C32       -1.1044    1.6427   20.4328 C.ar      1 RES1    0.0000
     70 C33       -0.8383    0.3180   20.1454 C.ar      1 RES1    0.0000
     71 C34        0.4701   -0.1366   20.0821 C.ar      1 RES1    0.0000
     72 C35        1.5222    0.7469   20.3134 C.ar      1 RES1    0.0000
     73 C36        1.2734    2.0724   20.5996 C.ar      1 RES1    0.0000
     74 H25        1.9759    2.6562   20.7722 H         1 RES1    0.0000
     75 H26        2.4387    0.4384   20.2816 H         1 RES1    0.0000
     76 H27        0.6466   -1.0422   19.9157 H         1 RES1    0.0000
     77 H28       -1.5490   -0.2805   19.9932 H         1 RES1    0.0000
     78 H29       -2.0101    1.9312   20.4752 H         1 RES1    0.0000
     79 H30       -0.3738    7.9777   21.5727 H         1 RES1    0.0000
     80 H31        0.9736    7.3876   22.0483 H         1 RES1    0.0000
     81 H32        0.3701    9.8016   20.5290 H         1 RES1    0.0000
     82 H33        1.8325    9.4782   21.0304 H         1 RES1    0.0000
@<TRIPOS>BOND
     1    1    2 2
     2    2    3 1
     3    3    4 1
     4    4    5 1
     5    6    4 1
     6    7    4 1
     7    8    2 1
     8    9    8 1
     9   10    9 1
    10   11   10 1
    11   12   11 1
    12   13    8 1
    13   14   13 2
    14   15   12 1
    15   16   15 1
    16   17    8 1
    17   18   17 1
    18   19   18 ar
    19   20   19 ar
    20   21   20 ar
    21   22   21 ar
    22   23   18 ar
    23   24   23 1
    24   25   22 1
    25   26   21 1
    26   27   20 1
    27   28   17 1
    28   29   16 1
    29   30   29 1
    30   31   30 ar
    31   32   31 ar
    32   33   32 ar
    33   34   33 ar
    34   35   30 ar
    35   36   35 1
    36   37   34 1
    37   38   33 1
    38   39   32 1
    39   40   29 1
    40   41   29 1
    41   42   15 1
    42   43   42 ar
    43   44   43 ar
    44   45   44 ar
    45   46   45 ar
    46   47   42 ar
    47   48   47 1
    48   49   46 1
    49   50   45 1
    50   51   44 1
    51   52   15 1
    52   53   12 1
    53   54   53 1
    54   55   54 1
    55   56   55 1
    56   57   55 1
    57   58   55 1
    58   59   53 2
    59   60   11 1
    60   61   11 1
    61   62   10 1
    62   63   62 1
    63   64   63 2
    64   65   64 1
    65   66   65 1
    66   67   63 1
    67   68   66 1
    68   69   68 ar
    69   70   69 ar
    70   71   70 ar
    71   72   71 ar
    72   73   68 ar
    73   74   73 1
    74   75   72 1
    75   76   71 1
    76   77   70 1
    77   78   69 1
    78   79   62 1
    79   80   62 1
    80   81    9 1
    81   82    9 1
    82   12   13 1
    83   16   17 1
    84   22   23 ar
    85   34   35 ar
    86   46   47 ar
    87   66   67 2
    88   72   73 ar
@<TRIPOS>SUBSTRUCTURE
     1 RES1 1

@<TRIPOS>CRYSIN
   9.8633   15.3270   21.6040  90.0000  95.0870  90.0000  14 1

