# MOL2 file generated by ConQuest
# Please check atom types

@<TRIPOS>MOLECULE
TIQXEW
    55    57     1
SMALL
NO_CHARGES
****
Generated from CSD

@<TRIPOS>ATOM
      1 C1         3.7132   -1.9163    0.5052 C.3       1 RES1    0.0000
      2 H1         2.9701   -2.3115    1.0974 H         1 RES1    0.0000
      3 C2         4.8605   -2.8778    0.2610 C.3       1 RES1    0.0000
      4 H2         5.3469   -3.0208    1.1108 H         1 RES1    0.0000
      5 H3         5.6318   -2.3813   -0.3045 H         1 RES1    0.0000
      6 C3         4.3629   -4.1388   -0.4149 C.3       1 RES1    0.0000
      7 H4         5.1915   -4.6578   -0.4885 H         1 RES1    0.0000
      8 H5         3.6682   -4.6207    0.1372 H         1 RES1    0.0000
      9 C4         3.5781   -3.8179   -1.6722 C.3       1 RES1    0.0000
     10 H6         3.0332   -4.7637   -1.9473 H         1 RES1    0.0000
     11 O1         4.4304   -3.2370   -2.6532 O.3       1 RES1    0.0000
     12 C5         5.0801   -4.1760   -3.4495 C.3       1 RES1    0.0000
     13 H7         5.7252   -3.7380   -4.0283 H         1 RES1    0.0000
     14 H8         5.6892   -4.6973   -2.8305 H         1 RES1    0.0000
     15 H9         4.6398   -4.9258   -3.6603 H         1 RES1    0.0000
     16 C6         2.4905   -2.7956   -1.3721 C.3       1 RES1    0.0000
     17 O2         1.5909   -3.5139   -0.5357 O.3       1 RES1    0.0000
     18 C7         1.8071   -2.2856   -2.6398 C.3       1 RES1    0.0000
     19 H10        1.5459   -3.1964   -3.0480 H         1 RES1    0.0000
     20 H11        2.4094   -1.6708   -3.0815 H         1 RES1    0.0000
     21 C8         0.5607   -1.5143   -2.3086 C.3       1 RES1    0.0000
     22 H12        0.8467   -0.5652   -1.7599 H         1 RES1    0.0000
     23 H13        0.0394   -1.2925   -3.0514 H         1 RES1    0.0000
     24 C9        -0.3558   -2.3441   -1.4387 C.3       1 RES1    0.0000
     25 H14       -1.2509   -1.8026   -1.0339 H         1 RES1    0.0000
     26 H15       -0.7701   -3.2235   -1.7699 H         1 RES1    0.0000
     27 C10        0.4110   -2.7934   -0.1907 C.3       1 RES1    0.0000
     28 H16       -0.0045   -3.3056    0.3346 H         1 RES1    0.0000
     29 H17        0.7555   -1.9636    0.3647 H         1 RES1    0.0000
     30 O3         3.0039   -1.6494   -0.7224 O.3       1 RES1    0.0000
     31 C11        4.1906   -0.5573    1.0004 C.3       1 RES1    0.0000
     32 H18        4.8560   -0.1013    0.3747 H         1 RES1    0.0000
     33 H19        4.8098   -0.6136    1.8134 H         1 RES1    0.0000
     34 C12        3.0816    0.4830    1.2179 C.3       1 RES1    0.0000
     35 H20        2.3531    0.1475    1.9573 H         1 RES1    0.0000
     36 H21        2.4916    0.6035    0.4952 H         1 RES1    0.0000
     37 C13        3.7098    1.7677    1.6595 C.3       1 RES1    0.0000
     38 H22        4.2019    2.1865    0.8164 H         1 RES1    0.0000
     39 H23        4.1591    1.5875    2.4792 H         1 RES1    0.0000
     40 O4         2.6515    2.7461    1.8927 O.3       1 RES1    0.0000
     41 C14        3.0906    3.9823    2.1724 C.2       1 RES1    0.0000
     42 O5         4.2503    4.2604    2.1390 O.2       1 RES1    0.0000
     43 C15        2.0368    4.9314    2.5267 C.ar      1 RES1    0.0000
     44 C16        0.6891    4.6162    2.5197 C.ar      1 RES1    0.0000
     45 H24        0.4110    3.7695    2.2524 H         1 RES1    0.0000
     46 C17       -0.2387    5.5541    2.9078 C.ar      1 RES1    0.0000
     47 H25       -1.1484    5.3615    2.8951 H         1 RES1    0.0000
     48 C18        0.2173    6.7824    3.3140 C.ar      1 RES1    0.0000
     49 C19        1.5245    7.1371    3.3461 C.ar      1 RES1    0.0000
     50 H26        1.7902    7.9815    3.6325 H         1 RES1    0.0000
     51 C20        2.4331    6.2093    2.9433 C.ar      1 RES1    0.0000
     52 H27        3.3867    6.3782    2.8740 H         1 RES1    0.0000
     53 N1        -0.7690    7.7811    3.7774 N.pl3     1 RES1    0.0000
     54 O6        -1.9197    7.5075    3.7038 O.2       1 RES1    0.0000
     55 O7        -0.4132    8.8226    4.1822 O.2       1 RES1    0.0000
@<TRIPOS>BOND
     1    1    2 1
     2    3    1 1
     3    4    3 1
     4    5    3 1
     5    6    3 1
     6    7    6 1
     7    8    6 1
     8    9    6 1
     9   10    9 1
    10   11    9 1
    11   12   11 1
    12   13   12 1
    13   14   12 1
    14   15   12 1
    15   16    9 1
    16   17   16 1
    17   18   16 1
    18   19   18 1
    19   20   18 1
    20   21   18 1
    21   22   21 1
    22   23   21 1
    23   24   21 1
    24   25   24 1
    25   26   24 1
    26   27   17 1
    27   28   27 1
    28   29   27 1
    29   30    1 1
    30   31    1 1
    31   32   31 1
    32   33   31 1
    33   34   31 1
    34   35   34 1
    35   36   34 1
    36   37   34 1
    37   38   37 1
    38   39   37 1
    39   40   37 1
    40   41   40 1
    41   42   41 2
    42   43   41 1
    43   44   43 ar
    44   45   44 1
    45   46   44 ar
    46   47   46 1
    47   48   46 ar
    48   49   48 ar
    49   50   49 1
    50   51   43 ar
    51   52   51 1
    52   53   48 1
    53   54   53 2
    54   55   53 2
    55   16   30 1
    56   24   27 1
    57   49   51 ar
@<TRIPOS>SUBSTRUCTURE
     1 RES1 1

@<TRIPOS>CRYSIN
  11.2590   11.2590   33.4580  90.0000  90.0000  90.0000  96 1

