# MOL2 file generated by ConQuest
# Please check atom types

@<TRIPOS>MOLECULE
TIRJUZ
    26    27     1
SMALL
NO_CHARGES
****
Generated from CSD

@<TRIPOS>ATOM
      1 O1        -0.0619    2.0032   12.8311 O.3       1 RES1    0.0000
      2 O2         1.4605    2.4620   10.5164 O.2       1 RES1    0.0000
      3 O3        -2.1798    0.2772   12.1548 O.2       1 RES1    0.0000
      4 N1        -0.3527    1.5261   11.5601 N.am      1 RES1    0.0000
      5 C1         0.4500    1.8033   10.4751 C.2       1 RES1    0.0000
      6 C2        -0.1772    1.1159    9.3107 C.3       1 RES1    0.0000
      7 H1         0.4108    0.4261    8.9661 H         1 RES1    0.0000
      8 H2        -0.3622    1.7499    8.6008 H         1 RES1    0.0000
      9 C3        -1.4608    0.5090    9.8250 C.3       1 RES1    0.0000
     10 H3        -2.2298    0.9502    9.4314 H         1 RES1    0.0000
     11 H4        -1.5014   -0.4365    9.6108 H         1 RES1    0.0000
     12 C4        -1.4394    0.7137   11.3177 C.2       1 RES1    0.0000
     13 C5         0.7763    1.0147   13.5334 C.3       1 RES1    0.0000
     14 H5         1.5621    0.8053   13.0050 H         1 RES1    0.0000
     15 H6         0.2771    0.1967   13.6801 H         1 RES1    0.0000
     16 C6         1.1774    1.6169   14.8377 C.ar      1 RES1    0.0000
     17 C7         0.3521    1.4887   15.9491 C.ar      1 RES1    0.0000
     18 H7        -0.4607    1.0426   15.8752 H         1 RES1    0.0000
     19 C8         0.7422    2.0263   17.1700 C.ar      1 RES1    0.0000
     20 H8         0.1904    1.9403   17.9137 H         1 RES1    0.0000
     21 C9         1.9576    2.6922   17.2798 C.ar      1 RES1    0.0000
     22 H9         2.2188    3.0522   18.0963 H         1 RES1    0.0000
     23 C10        2.7822    2.8204   16.1687 C.ar      1 RES1    0.0000
     24 H10        3.5952    3.2664   16.2416 H         1 RES1    0.0000
     25 C11        2.3920    2.2828   14.9478 C.ar      1 RES1    0.0000
     26 H11        2.9445    2.3688   14.2042 H         1 RES1    0.0000
@<TRIPOS>BOND
     1    1    4 1
     2    2    5 2
     3    3   12 2
     4    4    5 1
     5    5    6 1
     6    6    7 1
     7    8    6 1
     8    9    6 1
     9   10    9 1
    10   11    9 1
    11   12    4 1
    12   13    1 1
    13   14   13 1
    14   15   13 1
    15   16   13 1
    16   17   16 ar
    17   18   17 1
    18   19   17 ar
    19   20   19 1
    20   21   19 ar
    21   22   21 1
    22   23   21 ar
    23   24   23 1
    24   25   16 ar
    25   26   25 1
    26    9   12 1
    27   23   25 ar
@<TRIPOS>SUBSTRUCTURE
     1 RES1 1

@<TRIPOS>CRYSIN
   5.9360    7.9650   11.0500  90.0000 100.3000  90.0000   4 1

