# MOL2 file generated by ConQuest
# Please check atom types

@<TRIPOS>MOLECULE
TIRKOW
    85    88     1
SMALL
NO_CHARGES
****
Generated from CSD

@<TRIPOS>ATOM
      1 O1         1.6079    8.8251    9.3303 O.3       1 RES1    0.0000
      2 O2         3.2472    7.3265    9.7021 O.2       1 RES1    0.0000
      3 O3         2.7118    7.7385    6.6575 O.3       1 RES1    0.0000
      4 O4         6.4534   10.1072    7.9847 O.3       1 RES1    0.0000
      5 O5         4.9463   10.5841    6.3868 O.2       1 RES1    0.0000
      6 N1         3.7778    7.1053    5.9997 N.2       1 RES1    0.0000
      7 C1         3.2914    9.4632   12.5599 C.3       1 RES1    0.0000
      8 H1         4.1945    9.8364   12.6283 H         1 RES1    0.0000
      9 H2         3.3375    8.5681   12.1620 H         1 RES1    0.0000
     10 H3         2.8940    9.4028   13.4531 H         1 RES1    0.0000
     11 C2         2.4336   10.3673   11.6808 C.3       1 RES1    0.0000
     12 C3         1.0099    9.8331   11.4418 C.3       1 RES1    0.0000
     13 C4         0.9750    8.5493   10.6251 C.3       1 RES1    0.0000
     14 C5         2.7048    8.1645    9.0155 C.2       1 RES1    0.0000
     15 C6         3.2384    8.6335    7.6673 C.3       1 RES1    0.0000
     16 C7         4.7598    8.5240    7.5972 C.3       1 RES1    0.0000
     17 C8         4.8934    7.5079    6.4736 C.2       1 RES1    0.0000
     18 C9         6.1677    6.9747    5.9830 C.ar      1 RES1    0.0000
     19 C10        6.2294    6.2689    4.7849 C.ar      1 RES1    0.0000
     20 C11        7.4314    5.7375    4.3473 C.ar      1 RES1    0.0000
     21 C12        8.5978    5.8855    5.0882 C.ar      1 RES1    0.0000
     22 C13        9.8863    5.2345    4.6579 C.3       1 RES1    0.0000
     23 H4        10.0265    4.4139    5.1766 H         1 RES1    0.0000
     24 H5        10.6319    5.8506    4.8152 H         1 RES1    0.0000
     25 H6         9.8389    5.0140    3.7048 H         1 RES1    0.0000
     26 C14        2.3983   11.7798   12.2800 C.3       1 RES1    0.0000
     27 H7         2.0532   11.7370   13.1966 H         1 RES1    0.0000
     28 H8         1.8149   12.3496   11.7370 H         1 RES1    0.0000
     29 H9         3.3040   12.1526   12.2884 H         1 RES1    0.0000
     30 C15       -0.4332    8.0815   10.3185 C.3       1 RES1    0.0000
     31 C16       -1.2646    7.8773   11.5852 C.3       1 RES1    0.0000
     32 C17       -2.6942    7.4884   11.2229 C.3       1 RES1    0.0000
     33 H10       -3.2033    7.3159   12.0422 H         1 RES1    0.0000
     34 H11       -2.6821    6.6800   10.6687 H         1 RES1    0.0000
     35 H12       -3.1152    8.2206   10.7249 H         1 RES1    0.0000
     36 C18       -1.2243    9.1386   12.4322 C.3       1 RES1    0.0000
     37 C19        0.1962    9.5936   12.7261 C.3       1 RES1    0.0000
     38 C20        8.5350    6.6225    6.2729 C.ar      1 RES1    0.0000
     39 C21        7.3349    7.1574    6.7206 C.ar      1 RES1    0.0000
     40 C22        5.3871    9.8639    7.2396 C.2       1 RES1    0.0000
     41 C23        7.1951   11.3406    7.7009 C.3       1 RES1    0.0000
     42 C24        7.5064   12.0116    9.0237 C.3       1 RES1    0.0000
     43 C25        6.2457   12.2783    9.8878 C.3       1 RES1    0.0000
     44 C26        5.1815   13.1214    9.1828 C.3       1 RES1    0.0000
     45 C27        6.6324   12.8915   11.2276 C.3       1 RES1    0.0000
     46 H13        6.8979   13.8257   11.0947 H         1 RES1    0.0000
     47 H14        7.3823   12.3908   11.6115 H         1 RES1    0.0000
     48 H15        5.8661   12.8530   11.8371 H         1 RES1    0.0000
     49 C28        8.3625   13.2616    8.7185 C.3       1 RES1    0.0000
     50 C29        9.5980   12.9173    7.8974 C.3       1 RES1    0.0000
     51 C30        9.2578   12.2085    6.5922 C.3       1 RES1    0.0000
     52 C31        8.4371   10.9585    6.9096 C.3       1 RES1    0.0000
     53 C32       10.4910   11.8774    5.7514 C.3       1 RES1    0.0000
     54 H16       10.9182   12.7079    5.4556 H         1 RES1    0.0000
     55 H17       10.2215   11.3536    4.9687 H         1 RES1    0.0000
     56 H18       11.1245   11.3590    6.2898 H         1 RES1    0.0000
     57 H19        0.5111   10.5081   10.8981 H         1 RES1    0.0000
     58 H20       -0.9134    8.7293    9.7839 H         1 RES1    0.0000
     59 H21        2.9318    9.5121    7.4714 H         1 RES1    0.0000
     60 H22       -1.7074    9.9080   11.9748 H         1 RES1    0.0000
     61 H23        0.7140    8.8941   13.2949 H         1 RES1    0.0000
     62 H24        8.9585   10.3541    7.4433 H         1 RES1    0.0000
     63 H25        1.4931    7.8426   11.0760 H         1 RES1    0.0000
     64 H26        7.4820    5.2899    3.4829 H         1 RES1    0.0000
     65 H27        5.1248    8.1077    8.3608 H         1 RES1    0.0000
     66 H28        9.3371    6.7964    6.8253 H         1 RES1    0.0000
     67 H29        4.4836   13.2382    9.8495 H         1 RES1    0.0000
     68 H30        7.3398    7.6831    7.4994 H         1 RES1    0.0000
     69 H31       -0.3714    7.2317    9.8495 H         1 RES1    0.0000
     70 H32        8.1362   11.3716    9.5124 H         1 RES1    0.0000
     71 H33       -0.8869    7.1959   12.0871 H         1 RES1    0.0000
     72 H34        6.6347   11.8731    7.1437 H         1 RES1    0.0000
     73 H35        5.4406    6.1444    4.2787 H         1 RES1    0.0000
     74 H36        8.5359   13.5982    9.6341 H         1 RES1    0.0000
     75 H37        0.1925   10.4490   13.1825 H         1 RES1    0.0000
     76 H38        8.7156   12.7616    6.0295 H         1 RES1    0.0000
     77 H39        8.1671   10.4723    6.0202 H         1 RES1    0.0000
     78 H40        5.9194   11.3948   10.0461 H         1 RES1    0.0000
     79 H41        7.7460   13.9010    8.1455 H         1 RES1    0.0000
     80 H42        2.8731   10.3935   10.7576 H         1 RES1    0.0000
     81 H43        4.8843   12.6595    8.3514 H         1 RES1    0.0000
     82 H44       10.1934   12.3765    8.4732 H         1 RES1    0.0000
     83 H45        5.5523   13.9386    8.9787 H         1 RES1    0.0000
     84 H46       -1.6863    8.9711   13.2949 H         1 RES1    0.0000
     85 H47       10.1220   13.7361    7.7241 H         1 RES1    0.0000
@<TRIPOS>BOND
     1    1   13 1
     2    2   14 2
     3    3    6 1
     4    4   40 1
     5    5   40 2
     6    6   17 2
     7    7    8 1
     8    9    7 1
     9   10    7 1
    10   11    7 1
    11   12   11 1
    12   13   12 1
    13   14    1 1
    14   15    3 1
    15   16   15 1
    16   17   16 1
    17   18   17 1
    18   19   18 ar
    19   20   19 ar
    20   21   20 ar
    21   22   21 1
    22   23   22 1
    23   24   22 1
    24   25   22 1
    25   26   11 1
    26   27   26 1
    27   28   26 1
    28   29   26 1
    29   30   13 1
    30   31   30 1
    31   32   31 1
    32   33   32 1
    33   34   32 1
    34   35   32 1
    35   36   31 1
    36   37   12 1
    37   38   21 ar
    38   39   18 ar
    39   40   16 1
    40   41    4 1
    41   42   41 1
    42   43   42 1
    43   44   43 1
    44   45   43 1
    45   46   45 1
    46   47   45 1
    47   48   45 1
    48   49   42 1
    49   50   49 1
    50   51   50 1
    51   52   41 1
    52   53   51 1
    53   54   53 1
    54   55   53 1
    55   56   53 1
    56   57   12 1
    57   58   30 1
    58   59   15 1
    59   60   36 1
    60   61   37 1
    61   62   52 1
    62   63   13 1
    63   64   20 1
    64   65   16 1
    65   66   38 1
    66   67   44 1
    67   68   39 1
    68   69   30 1
    69   70   42 1
    70   71   31 1
    71   72   41 1
    72   73   19 1
    73   74   49 1
    74   75   37 1
    75   76   51 1
    76   77   52 1
    77   78   43 1
    78   79   49 1
    79   80   11 1
    80   81   44 1
    81   82   50 1
    82   83   44 1
    83   84   36 1
    84   85   50 1
    85   14   15 1
    86   36   37 1
    87   38   39 ar
    88   51   52 1
@<TRIPOS>SUBSTRUCTURE
     1 RES1 1

@<TRIPOS>CRYSIN
   9.0578   17.9136   10.2169  90.0000 113.5970  90.0000   4 1

