# MOL2 file generated by ConQuest
# Please check atom types

@<TRIPOS>MOLECULE
TISJUB01
    17    17     1
SMALL
NO_CHARGES
****
Generated from CSD

@<TRIPOS>ATOM
      1 C1         0.7477    6.1141    8.4941 C.ar      1 RES1    0.0000
      2 C2         1.7863    6.8099    9.0296 C.ar      1 RES1    0.0000
      3 H1         2.4224    7.1946    8.4715 H         1 RES1    0.0000
      4 C3         1.8995    6.9453   10.3896 C.ar      1 RES1    0.0000
      5 C4         0.9953    6.3427   11.2260 C.ar      1 RES1    0.0000
      6 H2         1.0808    6.4124   12.1499 H         1 RES1    0.0000
      7 C5        -0.0305    5.6410   10.6719 C.ar      1 RES1    0.0000
      8 H3        -0.6483    5.2210   11.2260 H         1 RES1    0.0000
      9 C6         0.6417    5.9207    7.0055 C.2       1 RES1    0.0000
     10 N1        -0.1660    5.5439    9.3305 N.pl3     1 RES1    0.0000
     11 N2         3.0152    7.7216   10.9529 N.pl3     1 RES1    0.0000
     12 O1        -1.2068    4.8922    8.8520 O.2       1 RES1    0.0000
     13 O2        -0.3775    5.2347    6.5614 O.3       1 RES1    0.0000
     14 H4        -0.8992    4.9953    7.2507 H         1 RES1    0.0000
     15 O3         1.4876    6.3839    6.2816 O.2       1 RES1    0.0000
     16 O4         3.8335    8.1828   10.1801 O.2       1 RES1    0.0000
     17 O5         3.0497    7.8698   12.1645 O.2       1 RES1    0.0000
@<TRIPOS>BOND
     1    1    2 ar
     2    2    3 1
     3    4    2 ar
     4    5    4 ar
     5    6    5 1
     6    7    5 ar
     7    8    7 1
     8    9    1 1
     9   10    1 ar
    10   11    4 1
    11   12   10 1
    12   13    9 1
    13   14   13 1
    14   15    9 2
    15   16   11 2
    16   17   11 2
    17    7   10 ar
@<TRIPOS>SUBSTRUCTURE
     1 RES1 1

@<TRIPOS>CRYSIN
   5.5509    9.8139   13.2554  90.0000  90.0000  90.0000  19 1

