# MOL2 file generated by ConQuest
# Please check atom types

@<TRIPOS>MOLECULE
TITKUC
    27    27     1
SMALL
NO_CHARGES
****
Generated from CSD

@<TRIPOS>ATOM
      1 O1         5.7887    0.8497   10.4030 O.2       1 RES1    0.0000
      2 O2         6.7093    0.9332    8.4056 O.2       1 RES1    0.0000
      3 N1         5.7208    0.9332    9.1442 N.pl3     1 RES1    0.0000
      4 N2         2.2829    0.9104    4.1945 N.3       1 RES1    0.0000
      5 C1         4.4140    0.9029    8.5825 C.2       1 RES1    0.0000
      6 C2         4.3165    0.8725    7.2509 C.2       1 RES1    0.0000
      7 C3         3.1529    0.9104    6.4395 C.2       1 RES1    0.0000
      8 C4         3.2652    0.8573    5.0767 C.2       1 RES1    0.0000
      9 C5         0.8724    1.0318    4.5461 C.3       1 RES1    0.0000
     10 C6         0.1691    1.1608    3.1833 C.3       1 RES1    0.0000
     11 C7         1.1365    0.7056    2.1846 C.3       1 RES1    0.0000
     12 C8         2.5272    0.8877    2.7360 C.3       1 RES1    0.0000
     13 C9         3.2849    1.0015    9.5396 C.3       1 RES1    0.0000
     14 H1         5.1396    0.8202    6.7776 H         1 RES1    0.0000
     15 H2         2.2965    0.9772    6.8493 H         1 RES1    0.0000
     16 H3         4.1450    0.7731    4.7323 H         1 RES1    0.0000
     17 H4         0.7194    1.7966    5.0850 H         1 RES1    0.0000
     18 H5         0.5713    0.2542    5.0080 H         1 RES1    0.0000
     19 H6        -0.0679    2.0697    3.0221 H         1 RES1    0.0000
     20 H7        -0.6108    0.6229    3.1573 H         1 RES1    0.0000
     21 H8         1.0403    1.2223    1.3940 H         1 RES1    0.0000
     22 H9         0.9835   -0.2079    1.9932 H         1 RES1    0.0000
     23 H10        3.0875    0.1571    2.4967 H         1 RES1    0.0000
     24 H11        2.9172    1.6972    2.4395 H         1 RES1    0.0000
     25 H12        3.3540    1.8103   10.0306 H         1 RES1    0.0000
     26 H13        3.3108    0.2633   10.1336 H         1 RES1    0.0000
     27 H14        2.4655    0.9924    9.0569 H         1 RES1    0.0000
@<TRIPOS>BOND
     1    1    3 2
     2    2    3 2
     3    3    5 1
     4    4    8 1
     5    5    6 2
     6    6    7 1
     7    7    8 2
     8    8   16 1
     9    9    4 1
    10   10    9 1
    11   11   10 1
    12   12    4 1
    13   13    5 1
    14   14    6 1
    15   15    7 1
    16   17    9 1
    17   18    9 1
    18   19   10 1
    19   20   10 1
    20   21   11 1
    21   22   11 1
    22   23   12 1
    23   24   12 1
    24   25   13 1
    25   26   13 1
    26   27   13 1
    27   11   12 1
@<TRIPOS>SUBSTRUCTURE
     1 RES1 1

@<TRIPOS>CRYSIN
  12.3400    7.5870   10.4030  90.0000  90.0000  90.0000  33 1

