# MOL2 file generated by ConQuest
# Please check atom types

@<TRIPOS>MOLECULE
TITWAV
    26    27     1
SMALL
NO_CHARGES
****
Generated from CSD

@<TRIPOS>ATOM
      1 N1        -0.9352   11.6083   11.5419 N.ar      1 RES1    0.0000
      2 C1        -0.3861   12.1763   10.4567 C.ar      1 RES1    0.0000
      3 C2        -0.2738   13.5530   10.3300 C.ar      1 RES1    0.0000
      4 N2        -0.6933   14.3894   11.2828 N.ar      1 RES1    0.0000
      5 C3        -1.2132   13.8221   12.3717 C.ar      1 RES1    0.0000
      6 C4        -1.3427   12.4440   12.5003 C.ar      1 RES1    0.0000
      7 C5         0.1294   11.2785    9.3677 C.2       1 RES1    0.0000
      8 O1         0.7738   11.7477    8.4379 O.2       1 RES1    0.0000
      9 N3        -0.1756    9.9716    9.5527 N.am      1 RES1    0.0000
     10 C6         0.1371    8.8788    8.7308 C.ar      1 RES1    0.0000
     11 C7        -0.0550    7.5533    9.1689 C.ar      1 RES1    0.0000
     12 N4        -0.5932    7.2369   10.4886 N.pl3     1 RES1    0.0000
     13 O2        -1.2022    8.1056   11.1281 O.2       1 RES1    0.0000
     14 O3        -0.4326    6.1031   10.9345 O.2       1 RES1    0.0000
     15 C8         0.2630    6.4622    8.3704 C.ar      1 RES1    0.0000
     16 C9         0.7698    6.6605    7.1122 C.ar      1 RES1    0.0000
     17 C10        0.9671    7.9536    6.6546 C.ar      1 RES1    0.0000
     18 C11        0.6630    9.0453    7.4516 C.ar      1 RES1    0.0000
     19 H1         0.1138   13.9132    9.5407 H         1 RES1    0.0000
     20 H2        -1.5054   14.3779   13.0837 H         1 RES1    0.0000
     21 H3        -1.7315   12.0872   13.2909 H         1 RES1    0.0000
     22 H4        -0.6312    9.7488   10.2723 H         1 RES1    0.0000
     23 H5         0.1298    5.5801    8.6962 H         1 RES1    0.0000
     24 H6         0.9835    5.9188    6.5589 H         1 RES1    0.0000
     25 H7         1.3163    8.0943    5.7826 H         1 RES1    0.0000
     26 H8         0.8154    9.9225    7.1201 H         1 RES1    0.0000
@<TRIPOS>BOND
     1    1    2 ar
     2    2    3 ar
     3    3    4 ar
     4    4    5 ar
     5    5    6 ar
     6    6    1 ar
     7    7    2 1
     8    8    7 2
     9    9    7 1
    10   10    9 1
    11   11   10 ar
    12   12   11 1
    13   13   12 2
    14   14   12 2
    15   15   11 ar
    16   16   15 ar
    17   17   16 ar
    18   18   10 ar
    19   19    3 1
    20   20    5 1
    21   21    6 1
    22   22    9 1
    23   23   15 1
    24   24   16 1
    25   25   17 1
    26   26   18 1
    27   17   18 ar
@<TRIPOS>SUBSTRUCTURE
     1 RES1 1

@<TRIPOS>CRYSIN
   3.6598   21.7123   13.1158  90.0000  91.2810  90.0000 231 1

