# MOL2 file generated by ConQuest
# Please check atom types

@<TRIPOS>MOLECULE
TIVWIE
    39    42     1
SMALL
NO_CHARGES
****
Generated from CSD

@<TRIPOS>ATOM
      1 O1        10.0239   -1.3785    6.8541 O.2       1 RES1    0.0000
      2 N1        11.0860    0.4440    7.3789 N.3       1 RES1    0.0000
      3 N2        10.9601   -0.8711    7.4921 N.2       1 RES1    0.0000
      4 C1        10.1579    1.2478    6.5476 C.3       1 RES1    0.0000
      5 C2        10.5487    2.7105    6.2919 C.3       1 RES1    0.0000
      6 C3         9.2993    3.0134    5.4648 C.3       1 RES1    0.0000
      7 C4         9.4108    1.9701    4.3612 C.3       1 RES1    0.0000
      8 C5        10.0293    0.7585    5.0938 C.3       1 RES1    0.0000
      9 C6        12.1133    1.0096    8.2840 C.3       1 RES1    0.0000
     10 C7        11.5595    1.9183    9.3937 C.3       1 RES1    0.0000
     11 C8        12.7052    1.9041   10.4433 C.3       1 RES1    0.0000
     12 C9        13.7414    0.9863    9.8104 C.3       1 RES1    0.0000
     13 C10       12.8681   -0.0453    9.1038 C.3       1 RES1    0.0000
     14 C11       14.4012    1.6995    8.6445 C.3       1 RES1    0.0000
     15 C12        8.7611    1.3837    7.1419 C.3       1 RES1    0.0000
     16 C13        8.1943    2.6289    6.4125 C.3       1 RES1    0.0000
     17 C14       13.2632    1.7436    7.5825 C.3       1 RES1    0.0000
     18 H1        11.5081    2.7700    5.7776 H         1 RES1    0.0000
     19 H2        10.5789    3.2101    7.1180 H         1 RES1    0.0000
     20 H3         9.2642    3.9868    5.1333 H         1 RES1    0.0000
     21 H4         8.5351    1.7345    3.9799 H         1 RES1    0.0000
     22 H5        10.0893    2.2134    3.5850 H         1 RES1    0.0000
     23 H6        10.9657    0.6084    4.7488 H         1 RES1    0.0000
     24 H7         9.4286   -0.0518    5.0294 H         1 RES1    0.0000
     25 H8         8.8256    1.5533    8.1468 H         1 RES1    0.0000
     26 H9         8.2601    0.5954    6.9518 H         1 RES1    0.0000
     27 H10        7.8953    3.3525    7.0349 H         1 RES1    0.0000
     28 H11        7.3340    2.4335    6.0062 H         1 RES1    0.0000
     29 H12       10.6751    1.5662    9.7470 H         1 RES1    0.0000
     30 H13       11.3733    2.8865    9.0820 H         1 RES1    0.0000
     31 H14       13.0362    2.8477   10.5576 H         1 RES1    0.0000
     32 H15       12.3438    1.5274   11.2642 H         1 RES1    0.0000
     33 H16       14.3304    0.5954   10.3913 H         1 RES1    0.0000
     34 H17       12.2313   -0.5566    9.7055 H         1 RES1    0.0000
     35 H18       13.3684   -0.6860    8.5417 H         1 RES1    0.0000
     36 H19       14.7104    2.5888    8.8222 H         1 RES1    0.0000
     37 H20       15.1845    1.1391    8.2715 H         1 RES1    0.0000
     38 H21       13.5380    1.2556    6.7440 H         1 RES1    0.0000
     39 H22       13.0280    2.7053    7.4090 H         1 RES1    0.0000
@<TRIPOS>BOND
     1    1    3 2
     2    2    3 1
     3    4    2 1
     4    5    4 1
     5    6    5 1
     6    7    6 1
     7    8    4 1
     8    9    2 1
     9   10    9 1
    10   11   10 1
    11   12   11 1
    12   13    9 1
    13   14   12 1
    14   15    4 1
    15   16    6 1
    16   17    9 1
    17   18    5 1
    18   19    5 1
    19   20    6 1
    20   21    7 1
    21   22    7 1
    22   23    8 1
    23   24    8 1
    24   25   15 1
    25   26   15 1
    26   27   16 1
    27   28   16 1
    28   29   10 1
    29   30   10 1
    30   31   11 1
    31   32   11 1
    32   33   12 1
    33   34   13 1
    34   35   13 1
    35   36   14 1
    36   37   14 1
    37   38   17 1
    38   39   17 1
    39    7    8 1
    40   12   13 1
    41   14   17 1
    42   15   16 1
@<TRIPOS>SUBSTRUCTURE
     1 RES1 1

@<TRIPOS>CRYSIN
  18.8180   12.9440   10.8920  90.0000 107.4400  90.0000  15 1

