# MOL2 file generated by ConQuest
# Please check atom types

@<TRIPOS>MOLECULE
TIVWOK
    53    58     1
SMALL
NO_CHARGES
****
Generated from CSD

@<TRIPOS>ATOM
      1 O1         5.6434    5.5871    6.6606 O.2       1 RES1    0.0000
      2 N1         5.0281    6.6070    7.0226 N.2       1 RES1    0.0000
      3 N2         3.8725    6.4435    7.6521 N.3       1 RES1    0.0000
      4 C1         3.3138    5.0464    7.9352 C.3       1 RES1    0.0000
      5 C2         1.9972    5.0239    8.7224 C.3       1 RES1    0.0000
      6 C3         1.5334    3.5691    8.9411 C.3       1 RES1    0.0000
      7 C4         1.3155    2.8910    7.5977 C.3       1 RES1    0.0000
      8 C5         2.6182    2.9069    6.8338 C.3       1 RES1    0.0000
      9 C6         3.6987    2.1688    7.6277 C.3       1 RES1    0.0000
     10 C7         3.8801    2.8388    8.9889 C.3       1 RES1    0.0000
     11 C8         4.3426    4.2831    8.7924 C.3       1 RES1    0.0000
     12 C9         3.0599    4.3490    6.5851 C.3       1 RES1    0.0000
     13 C10        2.5774    2.8160    9.7528 C.3       1 RES1    0.0000
     14 C11        3.2450    7.7916    7.9774 C.3       1 RES1    0.0000
     15 C12        4.1802    8.9296    7.4955 C.3       1 RES1    0.0000
     16 C13        3.5782   10.3085    7.8098 C.3       1 RES1    0.0000
     17 C14        2.2515   10.4466    7.0881 C.3       1 RES1    0.0000
     18 C15        1.3193    9.3497    7.5633 C.3       1 RES1    0.0000
     19 C16        1.9196    7.9703    7.2313 C.3       1 RES1    0.0000
     20 C17        3.0662    7.9689    9.4807 C.3       1 RES1    0.0000
     21 C18        2.4454    9.3474    9.7805 C.3       1 RES1    0.0000
     22 C19        3.3823   10.4489    9.3053 C.3       1 RES1    0.0000
     23 C20        1.1128    9.4542    9.0566 C.3       1 RES1    0.0000
     24 H1         5.2174    4.3126    8.3605 H         1 RES1    0.0000
     25 H2         2.3257    4.8372    6.1177 H         1 RES1    0.0000
     26 H3         2.1329    5.4277    9.6817 H         1 RES1    0.0000
     27 H4         1.3124    5.4981    8.2494 H         1 RES1    0.0000
     28 H5         2.5493    2.4981    5.9622 H         1 RES1    0.0000
     29 H6         4.5621    2.1688    7.1169 H         1 RES1    0.0000
     30 H7         2.6820    3.2294   10.6365 H         1 RES1    0.0000
     31 H8         0.5908    3.3838    7.1169 H         1 RES1    0.0000
     32 H9         1.0020    1.9758    7.7498 H         1 RES1    0.0000
     33 H10        2.2688    1.8849    9.9149 H         1 RES1    0.0000
     34 H11        3.9532    7.8804    9.8815 H         1 RES1    0.0000
     35 H12        2.1438    7.9212    6.2509 H         1 RES1    0.0000
     36 H13        4.3069    8.8115    6.4619 H         1 RES1    0.0000
     37 H14        4.2137   10.9916    7.4722 H         1 RES1    0.0000
     38 H15        2.4206   10.3558    6.1066 H         1 RES1    0.0000
     39 H16        1.8475   11.3323    7.2835 H         1 RES1    0.0000
     40 H17        0.6594   10.3331    9.2820 H         1 RES1    0.0000
     41 H18        0.4994    8.7661    9.3819 H         1 RES1    0.0000
     42 H19        0.4623    9.4247    7.1280 H         1 RES1    0.0000
     43 H20        2.9908   11.3550    9.4929 H         1 RES1    0.0000
     44 H21        4.5653    2.3618    9.5041 H         1 RES1    0.0000
     45 H22        4.3547    4.7191    9.6706 H         1 RES1    0.0000
     46 H23        3.8987    4.3626    6.0289 H         1 RES1    0.0000
     47 H24        3.4099    1.2491    7.7831 H         1 RES1    0.0000
     48 H25        0.7186    3.5950    9.4374 H         1 RES1    0.0000
     49 H26        1.2503    7.2627    7.5055 H         1 RES1    0.0000
     50 H27        2.4467    7.2672    9.8593 H         1 RES1    0.0000
     51 H28        5.0301    8.8115    7.9497 H         1 RES1    0.0000
     52 H29        4.2508   10.3785    9.7261 H         1 RES1    0.0000
     53 H30        2.2858    9.4019   10.7476 H         1 RES1    0.0000
@<TRIPOS>BOND
     1    1    2 2
     2    2    3 1
     3    3    4 1
     4    4    5 1
     5    5    6 1
     6    6    7 1
     7    7    8 1
     8    8    9 1
     9    9   10 1
    10   10   11 1
    11   11    4 1
    12   12    4 1
    13   13    6 1
    14   14    3 1
    15   15   14 1
    16   16   15 1
    17   17   16 1
    18   18   17 1
    19   19   14 1
    20   20   14 1
    21   21   20 1
    22   22   16 1
    23   23   18 1
    24   24   11 1
    25   25   12 1
    26   26    5 1
    27   27    5 1
    28   28    8 1
    29   29    9 1
    30   30   13 1
    31   31    7 1
    32   32    7 1
    33   33   13 1
    34   34   20 1
    35   35   19 1
    36   36   15 1
    37   37   16 1
    38   38   17 1
    39   39   17 1
    40   40   23 1
    41   41   23 1
    42   42   18 1
    43   43   22 1
    44   44   10 1
    45   45   11 1
    46   46   12 1
    47   47    9 1
    48   48    6 1
    49   49   19 1
    50   50   20 1
    51   51   15 1
    52   52   22 1
    53   53   21 1
    54    8   12 1
    55   10   13 1
    56   18   19 1
    57   21   22 1
    58   21   23 1
@<TRIPOS>SUBSTRUCTURE
     1 RES1 1

@<TRIPOS>CRYSIN
   6.7310   22.7100   11.1180  90.0000  92.9900  90.0000 231 1

