# MOL2 file generated by ConQuest
# Please check atom types

@<TRIPOS>MOLECULE
TIXPIZ
    28    29     1
SMALL
NO_CHARGES
****
Generated from CSD

@<TRIPOS>ATOM
      1 O1         3.5621    3.0345    1.8209 O.3       1 RES1    0.0000
      2 N1         3.3574    1.6716    3.9948 N.pl3     1 RES1    0.0000
      3 N2         2.2164    1.7146    4.7729 N.2       1 RES1    0.0000
      4 N3         4.6329    0.2077    2.6483 N.3       1 RES1    0.0000
      5 N4         4.3554    3.4936    2.8621 N.2       1 RES1    0.0000
      6 C1         1.6751    0.5125    4.6179 C.2       1 RES1    0.0000
      7 C2         2.4403   -0.2995    3.7790 C.2       1 RES1    0.0000
      8 C3         3.5128    0.4767    3.3930 C.2       1 RES1    0.0000
      9 C4         0.3750    0.1804    5.2592 C.3       1 RES1    0.0000
     10 C5         4.2171    2.8001    3.9320 C.2       1 RES1    0.0000
     11 C6         4.9719    3.1166    5.1599 C.ar      1 RES1    0.0000
     12 C7         5.4211    4.4066    5.4416 C.ar      1 RES1    0.0000
     13 C8         6.1159    4.6501    6.6016 C.ar      1 RES1    0.0000
     14 C9         6.3980    3.6271    7.4901 C.ar      1 RES1    0.0000
     15 C10        5.9572    2.3495    7.2176 C.ar      1 RES1    0.0000
     16 C11        5.2428    2.0936    6.0636 C.ar      1 RES1    0.0000
     17 H1         3.7752    3.5913    1.0780 H         1 RES1    0.0000
     18 H2         2.2749   -1.2347    3.5480 H         1 RES1    0.0000
     19 H3         5.1974    5.0956    4.7476 H         1 RES1    0.0000
     20 H4         6.4756    5.5716    6.9238 H         1 RES1    0.0000
     21 H5         6.8491    3.8687    8.2500 H         1 RES1    0.0000
     22 H6         6.1756    1.5557    7.7616 H         1 RES1    0.0000
     23 H7         4.9287    1.1956    5.8600 H         1 RES1    0.0000
     24 H8         4.6594   -0.5971    2.3859 H         1 RES1    0.0000
     25 H9         4.7960    0.8120    2.0506 H         1 RES1    0.0000
     26 H10        0.0981    0.8856    5.8732 H         1 RES1    0.0000
     27 H11        0.3915   -0.6134    5.7962 H         1 RES1    0.0000
     28 H12       -0.4012    0.2175    4.5784 H         1 RES1    0.0000
@<TRIPOS>BOND
     1    1    5 1
     2    2    3 1
     3    3    6 2
     4    4    8 1
     5    5   10 2
     6    6    7 1
     7    7    8 2
     8    8    2 1
     9    9    6 1
    10   10    2 1
    11   11   10 1
    12   12   11 ar
    13   13   12 ar
    14   14   13 ar
    15   15   14 ar
    16   16   11 ar
    17   17    1 1
    18   18    7 1
    19   19   12 1
    20   20   13 1
    21   21   14 1
    22   22   15 1
    23   23   16 1
    24   24    4 1
    25   25    4 1
    26   26    9 1
    27   27    9 1
    28   28    9 1
    29   15   16 ar
@<TRIPOS>SUBSTRUCTURE
     1 RES1 1

@<TRIPOS>CRYSIN
   8.3770    6.5119   10.7340  90.0000 109.2900  90.0000   7 1

