# MOL2 file generated by ConQuest
# Please check atom types

@<TRIPOS>MOLECULE
TIXQUM01
    19    19     1
SMALL
NO_CHARGES
****
Generated from CSD

@<TRIPOS>ATOM
      1 C1         9.2911    1.0520    3.9772 C.ar      1 RES1    0.0000
      2 C2         8.9005   -0.1079    3.2589 C.ar      1 RES1    0.0000
      3 C3         7.9903   -0.9913    3.8349 C.ar      1 RES1    0.0000
      4 C4         7.4147   -0.7543    5.0836 C.ar      1 RES1    0.0000
      5 C5         7.7879    0.4128    5.7354 C.ar      1 RES1    0.0000
      6 C6         8.7101    1.3101    5.2256 C.ar      1 RES1    0.0000
      7 C7         9.4653   -0.3749    1.8991 C.3       1 RES1    0.0000
      8 N1        10.2384    1.9077    3.4711 N.3       1 RES1    0.0000
      9 N2         7.1533    0.7340    7.0121 N.pl3     1 RES1    0.0000
     10 O1         6.2473    0.0139    7.4095 O.2       1 RES1    0.0000
     11 O2         7.5341    1.7212    7.6274 O.2       1 RES1    0.0000
     12 H1         7.7146   -1.8909    3.2933 H         1 RES1    0.0000
     13 H2         6.7059   -1.4425    5.5343 H         1 RES1    0.0000
     14 H3         8.9679    2.2029    5.7780 H         1 RES1    0.0000
     15 H4        10.3751    2.7887    3.9359 H         1 RES1    0.0000
     16 H5        10.5024    1.8764    2.5064 H         1 RES1    0.0000
     17 H6        10.5450   -0.5096    1.9278 H         1 RES1    0.0000
     18 H7         9.2766    0.4690    1.2185 H         1 RES1    0.0000
     19 H8         9.0402   -1.2667    1.4527 H         1 RES1    0.0000
@<TRIPOS>BOND
     1    1    2 ar
     2    2    3 ar
     3    3    4 ar
     4    4    5 ar
     5    5    6 ar
     6    6    1 ar
     7    7    2 1
     8    8    1 1
     9    9    5 1
    10   10    9 2
    11   11    9 2
    12   12    3 1
    13   13    4 1
    14   14    6 1
    15   15    8 1
    16   16    8 1
    17   17    7 1
    18   18    7 1
    19   19    7 1
@<TRIPOS>SUBSTRUCTURE
     1 RES1 1

@<TRIPOS>CRYSIN
   9.3690    5.5630   13.6260  90.0000  92.3600  90.0000 231 1

