# MOL2 file generated by ConQuest
# Please check atom types

@<TRIPOS>MOLECULE
TIYYAB
    68    73     1
SMALL
USER_CHARGES
****
Generated from CSD

@<TRIPOS>ATOM
      1 O1         1.7149    5.9040    4.3191 O.2       1 RES1    0.0000
      2 O2         6.9044    5.2599    6.3360 O.2       1 RES1   -1.0000
      3 N1         3.8062    5.5498    5.0677 N.pl3     1 RES1    1.0000
      4 N2         4.6583    5.4079    6.1471 N.2       1 RES1    0.0000
      5 N3         5.8658    5.3944    5.6260 N.pl3     1 RES1    0.0000
      6 N4         0.8486    6.4120    7.0912 N.3       1 RES1    0.0000
      7 C1         2.4176    5.7202    5.2772 C.2       1 RES1    0.0000
      8 C2         5.8412    5.5319    4.2309 C.ar      1 RES1    0.0000
      9 C3         4.5203    5.6410    3.8801 C.ar      1 RES1    0.0000
     10 C4         4.1492    5.7949    2.5493 C.ar      1 RES1    0.0000
     11 C5         5.1719    5.8203    1.6380 C.ar      1 RES1    0.0000
     12 C6         6.5139    5.7067    2.0179 C.ar      1 RES1    0.0000
     13 C7         6.8877    5.5767    3.3237 C.ar      1 RES1    0.0000
     14 C8         1.9031    5.5065    6.6993 C.3       1 RES1    0.0000
     15 C9         1.3614    4.0451    6.6931 C.3       1 RES1    0.0000
     16 C10        1.2479    3.4160    8.0487 C.ar      1 RES1    0.0000
     17 C11        0.2885    3.7955    8.9725 C.ar      1 RES1    0.0000
     18 C12        0.2656    3.2441   10.2368 C.ar      1 RES1    0.0000
     19 C13        1.1758    2.2967   10.6001 C.ar      1 RES1    0.0000
     20 C14        2.0807    1.8604    9.6887 C.ar      1 RES1    0.0000
     21 C15        2.1265    2.4133    8.4307 C.ar      1 RES1    0.0000
     22 C16        1.1547    7.8227    7.3947 C.3       1 RES1    0.0000
     23 C17        1.9092    8.4697    6.2114 C.ar      1 RES1    0.0000
     24 C18        3.2899    8.5758    6.1844 C.ar      1 RES1    0.0000
     25 C19        3.9398    9.0838    5.0779 C.ar      1 RES1    0.0000
     26 C20        3.2345    9.4903    3.9880 C.ar      1 RES1    0.0000
     27 C21        1.8582    9.3737    3.9735 C.ar      1 RES1    0.0000
     28 C22        1.2145    8.8627    5.0717 C.ar      1 RES1    0.0000
     29 C23       -0.1864    8.5339    7.6646 C.ar      1 RES1    0.0000
     30 C24       -0.3192    9.9057    7.4944 C.ar      1 RES1    0.0000
     31 C25       -1.4906   10.5572    7.8162 C.ar      1 RES1    0.0000
     32 C26       -2.5591    9.8549    8.3269 C.ar      1 RES1    0.0000
     33 C27       -2.4457    8.5070    8.5199 C.ar      1 RES1    0.0000
     34 C28       -1.2646    7.8525    8.1899 C.ar      1 RES1    0.0000
     35 C29        1.9374    7.9437    8.7130 C.ar      1 RES1    0.0000
     36 C30        2.5169    9.1466    9.0908 C.ar      1 RES1    0.0000
     37 C31        3.1413    9.2931   10.3136 C.ar      1 RES1    0.0000
     38 C32        3.1809    8.2426   11.1897 C.ar      1 RES1    0.0000
     39 C33        2.6040    7.0486   10.8534 C.ar      1 RES1    0.0000
     40 C34        1.9752    6.9081    9.6202 C.ar      1 RES1    0.0000
     41 H1         3.2592    5.8756    2.2940 H         1 RES1    0.0000
     42 H2         0.0387    6.1281    7.1479 H         1 RES1    0.0000
     43 H3         4.9670    5.9159    0.7349 H         1 RES1    0.0000
     44 H4         7.1718    5.7202    1.3619 H         1 RES1    0.0000
     45 H5         7.7786    5.5214    3.5873 H         1 RES1    0.0000
     46 H6         2.6480    5.5782    7.3325 H         1 RES1    0.0000
     47 H7         0.4854    4.0421    6.2758 H         1 RES1    0.0000
     48 H8         1.9479    3.4997    6.1471 H         1 RES1    0.0000
     49 H9        -0.3491    4.4306    8.7359 H         1 RES1    0.0000
     50 H10       -0.3790    3.5206   10.8472 H         1 RES1    0.0000
     51 H11        1.1767    1.9531   11.4637 H         1 RES1    0.0000
     52 H12        2.6752    1.1820    9.9171 H         1 RES1    0.0000
     53 H13        2.7605    2.1085    7.8224 H         1 RES1    0.0000
     54 H14        3.7859    8.3023    6.9214 H         1 RES1    0.0000
     55 H15        4.8676    9.1481    5.0758 H         1 RES1    0.0000
     56 H16        3.6787    9.8474    3.2531 H         1 RES1    0.0000
     57 H17        1.3719    9.6397    3.2261 H         1 RES1    0.0000
     58 H18        0.2885    8.7760    5.0530 H         1 RES1    0.0000
     59 H19        0.3957   10.3944    7.1581 H         1 RES1    0.0000
     60 H20       -1.5592   11.4762    7.6875 H         1 RES1    0.0000
     61 H21       -3.3506   10.2942    8.5366 H         1 RES1    0.0000
     62 H22       -3.1598    8.0259    8.8708 H         1 RES1    0.0000
     63 H23       -1.1995    6.9336    8.3269 H         1 RES1    0.0000
     64 H24        2.4844    9.8699    8.5075 H         1 RES1    0.0000
     65 H25        3.5344   10.1045   10.5420 H         1 RES1    0.0000
     66 H26        3.6004    8.3397   12.0139 H         1 RES1    0.0000
     67 H27        2.6321    6.3343   11.4471 H         1 RES1    0.0000
     68 H28        1.5724    6.0982    9.4022 H         1 RES1    0.0000
@<TRIPOS>BOND
     1    1    7 2
     2    2    5 1
     3    3    4 2
     4    4    5 1
     5    5    8 1
     6    6   14 1
     7    7    3 1
     8    8    9 ar
     9    9    3 1
    10   10    9 ar
    11   11   10 ar
    12   12   11 ar
    13   13    8 ar
    14   14    7 1
    15   15   14 1
    16   16   15 1
    17   17   16 ar
    18   18   17 ar
    19   19   18 ar
    20   20   19 ar
    21   21   16 ar
    22   22    6 1
    23   23   22 1
    24   24   23 ar
    25   25   24 ar
    26   26   25 ar
    27   27   26 ar
    28   28   23 ar
    29   29   22 1
    30   30   29 ar
    31   31   30 ar
    32   32   31 ar
    33   33   32 ar
    34   34   29 ar
    35   35   22 1
    36   36   35 ar
    37   37   36 ar
    38   38   37 ar
    39   39   38 ar
    40   40   35 ar
    41   41   10 1
    42   42    6 1
    43   43   11 1
    44   44   12 1
    45   45   13 1
    46   46   14 1
    47   47   15 1
    48   48   15 1
    49   49   17 1
    50   50   18 1
    51   51   19 1
    52   52   20 1
    53   53   21 1
    54   54   24 1
    55   55   25 1
    56   56   26 1
    57   57   27 1
    58   58   28 1
    59   59   30 1
    60   60   31 1
    61   61   32 1
    62   62   33 1
    63   63   34 1
    64   64   36 1
    65   65   37 1
    66   66   38 1
    67   67   39 1
    68   68   40 1
    69   12   13 ar
    70   20   21 ar
    71   27   28 ar
    72   33   34 ar
    73   39   40 ar
@<TRIPOS>SUBSTRUCTURE
     1 RES1 1

@<TRIPOS>CRYSIN
   8.7943   14.9430   20.7601  90.0000  90.0000  90.0000  19 1

