# MOL2 file generated by ConQuest
# Please check atom types

@<TRIPOS>MOLECULE
TIZXAD
    60    61     1
SMALL
NO_CHARGES
****
Generated from CSD

@<TRIPOS>ATOM
      1 C1         7.5155    7.4395    3.1078 C.3       1 RES1    0.0000
      2 C2         8.8334    8.2015    3.1055 C.3       1 RES1    0.0000
      3 H1         9.5399    7.6263    2.7735 H         1 RES1    0.0000
      4 H2         9.0450    8.4852    4.0094 H         1 RES1    0.0000
      5 H3         8.7556    8.9807    2.5328 H         1 RES1    0.0000
      6 C3         7.5976    6.1716    3.9422 C.3       1 RES1    0.0000
      7 H4         8.2750    5.5839    3.5729 H         1 RES1    0.0000
      8 H5         6.7383    5.7217    3.9303 H         1 RES1    0.0000
      9 H6         7.8307    6.4006    4.8554 H         1 RES1    0.0000
     10 C4         7.0683    7.0829    1.7027 C.3       1 RES1    0.0000
     11 H7         7.7030    6.4644    1.3095 H         1 RES1    0.0000
     12 H8         7.0250    7.8883    1.1640 H         1 RES1    0.0000
     13 H9         6.1919    6.6694    1.7370 H         1 RES1    0.0000
     14 N1         6.4481    8.4141    3.6429 N.pl3     1 RES1    0.0000
     15 O1         5.9986    9.2397    2.7823 O.2       1 RES1    0.0000
     16 C5         5.9701    8.4030    4.8765 C.2       1 RES1    0.0000
     17 C6         6.7181    7.9549    6.0495 C.2       1 RES1    0.0000
     18 N2         7.8490    8.4375    6.4396 N.2       1 RES1    0.0000
     19 C7         8.2108    7.8165    7.7450 C.3       1 RES1    0.0000
     20 C8         9.3850    6.8927    7.4479 C.3       1 RES1    0.0000
     21 H10       10.1457    7.4190    7.1565 H         1 RES1    0.0000
     22 H11        9.1363    6.2685    6.7488 H         1 RES1    0.0000
     23 H12        9.6209    6.4006    8.2505 H         1 RES1    0.0000
     24 C9         8.6728    8.9385    8.6710 C.3       1 RES1    0.0000
     25 H13        9.4777    9.3429    8.3116 H         1 RES1    0.0000
     26 H14        8.8596    8.5751    9.5510 H         1 RES1    0.0000
     27 H15        7.9761    9.6094    8.7391 H         1 RES1    0.0000
     28 C10        6.9169    7.0744    8.2311 C.3       1 RES1    0.0000
     29 C11        6.0679    7.8757    9.2246 C.3       1 RES1    0.0000
     30 H16        5.2859    7.3586    9.4738 H         1 RES1    0.0000
     31 H17        5.7865    8.7073    8.8127 H         1 RES1    0.0000
     32 H18        6.5927    8.0694   10.0163 H         1 RES1    0.0000
     33 C12        7.1115    5.6579    8.7421 C.3       1 RES1    0.0000
     34 H19        6.2556    5.2923    9.0175 H         1 RES1    0.0000
     35 H20        7.7172    5.6682    9.5007 H         1 RES1    0.0000
     36 H21        7.4861    5.1077    8.0367 H         1 RES1    0.0000
     37 N3         6.1542    7.0558    6.9510 N.3       1 RES1    0.0000
     38 O2         5.0567    6.4322    6.7680 O.2       1 RES1    0.0000
     39 C13        4.7458    9.1494    5.1777 C.2       1 RES1    0.0000
     40 N4         4.6010    9.8288    6.2693 N.2       1 RES1    0.0000
     41 C14        3.1521   10.2159    6.3446 C.3       1 RES1    0.0000
     42 C15        3.0360   11.5915    6.9920 C.3       1 RES1    0.0000
     43 H22        3.3722   11.5505    7.9002 H         1 RES1    0.0000
     44 H23        2.1061   11.8660    7.0038 H         1 RES1    0.0000
     45 H24        3.5562   12.2328    6.4829 H         1 RES1    0.0000
     46 C16        2.5089    9.1618    7.2476 C.3       1 RES1    0.0000
     47 H25        2.8552    9.2529    8.1481 H         1 RES1    0.0000
     48 H26        2.7158    8.2767    6.9086 H         1 RES1    0.0000
     49 H27        1.5474    9.2882    7.2571 H         1 RES1    0.0000
     50 C17        2.6491   10.1361    4.8775 C.3       1 RES1    0.0000
     51 C18        1.2119    9.6869    4.6713 C.3       1 RES1    0.0000
     52 H28        1.0089    9.6755    3.7220 H         1 RES1    0.0000
     53 H29        0.6121   10.3020    5.1231 H         1 RES1    0.0000
     54 H30        1.0962    8.7950    5.0369 H         1 RES1    0.0000
     55 C19        2.9265   11.4069    4.0674 C.3       1 RES1    0.0000
     56 H31        2.5888   11.2953    3.1651 H         1 RES1    0.0000
     57 H32        3.8820   11.5687    4.0381 H         1 RES1    0.0000
     58 H33        2.4838   12.1610    4.4872 H         1 RES1    0.0000
     59 N5         3.6083    9.1022    4.3809 N.3       1 RES1    0.0000
     60 O3         3.4334    8.3949    3.3429 O.2       1 RES1    0.0000
@<TRIPOS>BOND
     1    1    2 1
     2    2    3 1
     3    4    2 1
     4    5    2 1
     5    6    1 1
     6    7    6 1
     7    8    6 1
     8    9    6 1
     9   10    1 1
    10   11   10 1
    11   12   10 1
    12   13   10 1
    13   14    1 1
    14   15   14 1
    15   16   14 2
    16   17   16 1
    17   18   17 2
    18   19   18 1
    19   20   19 1
    20   21   20 1
    21   22   20 1
    22   23   20 1
    23   24   19 1
    24   25   24 1
    25   26   24 1
    26   27   24 1
    27   28   19 1
    28   29   28 1
    29   30   29 1
    30   31   29 1
    31   32   29 1
    32   33   28 1
    33   34   33 1
    34   35   33 1
    35   36   33 1
    36   37   17 1
    37   38   37 1
    38   39   16 1
    39   40   39 2
    40   41   40 1
    41   42   41 1
    42   43   42 1
    43   44   42 1
    44   45   42 1
    45   46   41 1
    46   47   46 1
    47   48   46 1
    48   49   46 1
    49   50   41 1
    50   51   50 1
    51   52   51 1
    52   53   51 1
    53   54   51 1
    54   55   50 1
    55   56   55 1
    56   57   55 1
    57   58   55 1
    58   59   39 1
    59   60   59 1
    60   28   37 1
    61   50   59 1
@<TRIPOS>SUBSTRUCTURE
     1 RES1 1

@<TRIPOS>CRYSIN
  10.5930   11.3910   18.0110  90.0000  94.1760  90.0000 231 1

