# MOL2 file generated by ConQuest
# Please check atom types

@<TRIPOS>MOLECULE
TMANSB
    27    27     1
SMALL
NO_CHARGES
****
Generated from CSD

@<TRIPOS>ATOM
      1 O1        -5.2544    3.3007    2.7878 O.2       1 RES1    0.0000
      2 N1       -10.9049    3.4085    0.3613 N.3       1 RES1    0.0000
      3 N2        -6.2844    2.6968    3.2315 N.2       1 RES1    0.0000
      4 N3        -8.7383    1.5752    4.2131 N.3       1 RES1    0.0000
      5 C1        -9.8420    3.3800    1.2020 C.ar      1 RES1    0.0000
      6 C2        -8.7247    4.2620    0.9828 C.ar      1 RES1    0.0000
      7 C3        -7.6024    4.0916    1.7204 C.ar      1 RES1    0.0000
      8 C4        -7.4941    3.0983    2.7291 C.ar      1 RES1    0.0000
      9 C5        -8.6866    2.3749    3.1194 C.ar      1 RES1    0.0000
     10 C6        -9.8182    2.5100    2.2955 C.ar      1 RES1    0.0000
     11 C7       -11.0026    4.3593   -0.7392 C.3       1 RES1    0.0000
     12 C8       -11.9587    2.4054    0.4881 C.3       1 RES1    0.0000
     13 C9        -9.8971    0.7034    4.4135 C.3       1 RES1    0.0000
     14 C10       -7.8032    1.6350    5.3328 C.3       1 RES1    0.0000
     15 H1        -8.7401    4.9005    0.3231 H         1 RES1    0.0000
     16 H2       -10.5685    2.0242    2.5198 H         1 RES1    0.0000
     17 H3       -11.9546    4.3223   -1.0389 H         1 RES1    0.0000
     18 H4       -12.5386    2.5936    1.2891 H         1 RES1    0.0000
     19 H5       -12.4794    2.4206   -0.3491 H         1 RES1    0.0000
     20 H6       -10.7211    1.1881    4.6378 H         1 RES1    0.0000
     21 H7        -7.3572    2.5451    5.3607 H         1 RES1    0.0000
     22 H8        -8.3321    1.4767    6.1727 H         1 RES1    0.0000
     23 H9        -6.8276    4.6504    1.5849 H         1 RES1    0.0000
     24 H10      -10.4673    4.1236   -1.4276 H         1 RES1    0.0000
     25 H11      -10.7616    5.2603   -0.4583 H         1 RES1    0.0000
     26 H12      -10.0857    0.1967    3.5866 H         1 RES1    0.0000
     27 H13       -9.7104    0.0761    5.1104 H         1 RES1    0.0000
@<TRIPOS>BOND
     1    1    3 2
     2    2    5 1
     3    3    8 1
     4    4    9 1
     5    5    6 ar
     6    6    7 ar
     7    7    8 ar
     8    8    9 ar
     9    9   10 ar
    10   10    5 ar
    11   11    2 1
    12   12    2 1
    13   13    4 1
    14   14    4 1
    15   15    6 1
    16   16   10 1
    17   17   11 1
    18   18   12 1
    19   19   12 1
    20   20   13 1
    21   21   14 1
    22   22   14 1
    23   23    7 1
    24   24   11 1
    25   25   11 1
    26   26   13 1
    27   27   13 1
@<TRIPOS>SUBSTRUCTURE
     1 RES1 1

@<TRIPOS>CRYSIN
  15.5740    9.8840    6.5010  90.0000  90.0000  90.0000  19 1

