# MOL2 file generated by ConQuest
# Please check atom types

@<TRIPOS>MOLECULE
TMDZET
    22    22     1
SMALL
NO_CHARGES
****
Generated from CSD

@<TRIPOS>ATOM
      1 O1        -0.1282    4.3207    1.7202 O.2       1 RES1    0.0000
      2 N1        -0.2960    3.3522    2.4922 N.pl3     1 RES1    0.0000
      3 C1        -0.2440    1.8323    2.3545 C.3       1 RES1    0.0000
      4 C2        -1.3282    1.3659    1.4125 C.3       1 RES1    0.0000
      5 C3         1.1172    1.3734    1.9104 C.3       1 RES1    0.0000
      6 H1        -2.2119    1.7528    1.5263 H         1 RES1    0.0000
      7 H2        -1.0297    1.6965    0.4129 H         1 RES1    0.0000
      8 H3        -1.4889    0.3506    1.5513 H         1 RES1    0.0000
      9 H4         1.1380    0.4194    1.9267 H         1 RES1    0.0000
     10 H5         1.1875    1.7340    0.9508 H         1 RES1    0.0000
     11 H6         1.7384    1.5713    2.5022 H         1 RES1    0.0000
     12 N1B       -0.5319    3.3522    3.7633 N.pl3     1 RES1    0.0000
     13 C1B       -0.5840    1.8323    3.9009 C.3       1 RES1    0.0000
     14 O1B       -0.6998    4.3207    4.5352 O.2       1 RES1    0.0000
     15 C2B        0.5002    1.3659    4.8430 C.3       1 RES1    0.0000
     16 C3B       -1.9452    1.3734    4.3450 C.3       1 RES1    0.0000
     17 H1B        1.3839    1.7528    4.7291 H         1 RES1    0.0000
     18 H2B        0.2018    1.6965    5.8426 H         1 RES1    0.0000
     19 H3B        0.6609    0.3506    4.7041 H         1 RES1    0.0000
     20 H4B       -1.9660    0.4194    4.3288 H         1 RES1    0.0000
     21 H5B       -2.0155    1.7340    5.3046 H         1 RES1    0.0000
     22 H6B       -2.5664    1.5713    3.7533 H         1 RES1    0.0000
@<TRIPOS>BOND
     1    1    2 1
     2    2    3 1
     3    3    4 1
     4    4    6 1
     5    5    3 1
     6    7    4 1
     7    8    4 1
     8    9    5 1
     9   10    5 1
    10   11    5 1
    11   12    2 2
    12   13    3 1
    13   14   12 1
    14   15   13 1
    15   16   13 1
    16   17   15 1
    17   18   15 1
    18   19   15 1
    19   20   16 1
    20   21   16 1
    21   22   16 1
    22   12   13 1
@<TRIPOS>SUBSTRUCTURE
     1 RES1 1

@<TRIPOS>CRYSIN
   9.9500    6.2600   12.6200  90.0000  97.5400  90.0000  15 1

