# MOL2 file generated by ConQuest
# Please check atom types

@<TRIPOS>MOLECULE
TMDZHO
    13    13     1
SMALL
NO_CHARGES
****
Generated from CSD

@<TRIPOS>ATOM
      1 N1         3.1420    4.4746    4.2406 N.3       1 RES1    0.0000
      2 C1         1.6750    4.7352    4.2625 C.3       1 RES1    0.0000
      3 C2         1.3354    6.1521    3.7435 C.3       1 RES1    0.0000
      4 N2         1.7091    7.2217    4.6498 N.am      1 RES1    0.0000
      5 C3         2.9852    7.5756    4.8868 C.2       1 RES1    0.0000
      6 C4         4.0022    6.8785    4.0267 C.3       1 RES1    0.0000
      7 C5         4.2979    5.4171    4.4290 C.3       1 RES1    0.0000
      8 C6         4.7333    5.3443    5.8892 C.3       1 RES1    0.0000
      9 C7         5.3628    4.9078    3.4799 C.3       1 RES1    0.0000
     10 C8         1.1364    4.5321    5.6973 C.3       1 RES1    0.0000
     11 C9         1.0901    3.7178    3.2822 C.3       1 RES1    0.0000
     12 O1         3.4515    3.2433    4.4464 O.2       1 RES1    0.0000
     13 O2         3.2728    8.4247    5.7042 O.2       1 RES1    0.0000
@<TRIPOS>BOND
     1    1    2 1
     2    2    3 1
     3    3    4 1
     4    4    5 1
     5    5    6 1
     6    6    7 1
     7    7    1 1
     8    8    7 1
     9    9    7 1
    10   10    2 1
    11   11    2 1
    12   12    1 1
    13   13    5 2
@<TRIPOS>SUBSTRUCTURE
     1 RES1 1

@<TRIPOS>CRYSIN
   8.1230   10.8580   11.5610  90.0000  90.0000  90.0000  19 1

