# MOL2 file generated by ConQuest
# Please check atom types

@<TRIPOS>MOLECULE
TMPDAC
    56    57     1
SMALL
NO_CHARGES
****
Generated from CSD

@<TRIPOS>ATOM
      1 C1         0.8441    3.6017    4.0852 C.1       1 RES1    0.0000
      2 C10        1.6990   -0.8755    4.8583 C.3       1 RES1    0.0000
      3 C11        4.1631    1.0304    1.4015 C.3       1 RES1    0.0000
      4 C2         0.1792    4.6186    4.1757 C.1       1 RES1    0.0000
      5 C3         1.7991    1.6002    4.9505 C.2       1 RES1    0.0000
      6 C4         2.6599    0.3421    4.8693 C.3       1 RES1    0.0000
      7 C5         1.6587    2.4590    3.9583 C.2       1 RES1    0.0000
      8 C6         2.3610    2.2407    2.6474 C.3       1 RES1    0.0000
      9 C7         4.7522    2.3966    3.4399 C.3       1 RES1    0.0000
     10 C8         3.6767    1.5035    2.8072 C.3       1 RES1    0.0000
     11 C9         3.5881    0.2963    6.1092 C.3       1 RES1    0.0000
     12 H101       1.0474   -0.8006    5.5231 H         1 RES1    0.0000
     13 H102       2.2177   -1.7676    4.5250 H         1 RES1    0.0000
     14 H103       1.1484   -0.6758    4.1190 H         1 RES1    0.0000
     15 H111       3.5296    0.2287    0.9980 H         1 RES1    0.0000
     16 H112       5.1801    0.5927    1.5224 H         1 RES1    0.0000
     17 H113       4.2103    1.8508    0.8204 H         1 RES1    0.0000
     18 H3         1.3360    1.6428    5.8952 H         1 RES1    0.0000
     19 H61        2.5527    3.0153    2.0553 H         1 RES1    0.0000
     20 H62        1.8913    1.8404    2.1568 H         1 RES1    0.0000
     21 H71        5.1507    3.0881    2.8334 H         1 RES1    0.0000
     22 H72        4.5108    2.6306    4.1783 H         1 RES1    0.0000
     23 H73        5.4949    1.6324    3.7638 H         1 RES1    0.0000
     24 H91        4.0666   -0.7174    5.9967 H         1 RES1    0.0000
     25 H92        2.9567    0.5303    6.9779 H         1 RES1    0.0000
     26 H93        4.4157    1.0086    6.1151 H         1 RES1    0.0000
     27 N1         3.4121    0.3379    3.6344 N.3       1 RES1    0.0000
     28 O1         4.2606   -0.6696    3.5211 O.2       1 RES1    0.0000
     29 C2B       -0.5459    5.7789    4.2823 C.1       1 RES1    0.0000
     30 C1B       -1.2108    6.7958    4.3728 C.1       1 RES1    0.0000
     31 C5B       -2.0254    7.9385    4.4997 C.2       1 RES1    0.0000
     32 C3B       -2.1658    8.7974    3.5075 C.2       1 RES1    0.0000
     33 C6B       -2.7277    8.1569    5.8106 C.3       1 RES1    0.0000
     34 C4B       -3.0266   10.0555    3.5887 C.3       1 RES1    0.0000
     35 H3B       -1.7027    8.7547    2.5628 H         1 RES1    0.0000
     36 C8B       -4.0434    8.8941    5.6508 C.3       1 RES1    0.0000
     37 H61B      -2.9195    7.3822    6.4027 H         1 RES1    0.0000
     38 H62B      -2.2581    8.5572    6.3012 H         1 RES1    0.0000
     39 C10B      -2.0657   11.2730    3.5997 C.3       1 RES1    0.0000
     40 C9B       -3.9548   10.1012    2.3488 C.3       1 RES1    0.0000
     41 N1B       -3.7788   10.0596    4.8236 N.3       1 RES1    0.0000
     42 C11B      -4.5299    9.3671    7.0565 C.3       1 RES1    0.0000
     43 C7B       -5.1189    8.0009    5.0181 C.3       1 RES1    0.0000
     44 H101B     -1.4141   11.1981    2.9349 H         1 RES1    0.0000
     45 H102B     -2.5844   12.1651    3.9330 H         1 RES1    0.0000
     46 H103B     -1.5151   11.0734    4.3390 H         1 RES1    0.0000
     47 H91B      -4.4334   11.1150    2.4613 H         1 RES1    0.0000
     48 H92B      -3.3234    9.8673    1.4801 H         1 RES1    0.0000
     49 H93B      -4.7825    9.3890    2.3429 H         1 RES1    0.0000
     50 O1B       -4.6273   11.0671    4.9369 O.2       1 RES1    0.0000
     51 H111B     -3.8963   10.1688    7.4600 H         1 RES1    0.0000
     52 H112B     -5.5468    9.8049    6.9356 H         1 RES1    0.0000
     53 H113B     -4.5771    8.5468    7.6376 H         1 RES1    0.0000
     54 H71B      -5.5174    7.3095    5.6246 H         1 RES1    0.0000
     55 H72B      -4.8775    7.7670    4.2797 H         1 RES1    0.0000
     56 H73B      -5.8616    8.7651    4.6942 H         1 RES1    0.0000
@<TRIPOS>BOND
     1    1    4 3
     2    2    6 1
     3    3   10 1
     4    4   29 1
     5    5    6 1
     6    6   11 1
     7    7    1 1
     8    8    7 1
     9    9   10 1
    10   10    8 1
    11   11   24 1
    12   12    2 1
    13   13    2 1
    14   14    2 1
    15   15    3 1
    16   16    3 1
    17   17    3 1
    18   18    5 1
    19   19    8 1
    20   20    8 1
    21   21    9 1
    22   22    9 1
    23   23    9 1
    24   25   11 1
    25   26   11 1
    26   27    6 1
    27   28   27 1
    28   29   30 3
    29   30   31 1
    30   31   32 2
    31   32   34 1
    32   33   31 1
    33   34   39 1
    34   35   32 1
    35   36   33 1
    36   37   33 1
    37   38   33 1
    38   39   44 1
    39   40   34 1
    40   41   34 1
    41   42   36 1
    42   43   36 1
    43   45   39 1
    44   46   39 1
    45   47   40 1
    46   48   40 1
    47   49   40 1
    48   50   41 1
    49   51   42 1
    50   52   42 1
    51   53   42 1
    52   54   43 1
    53   55   43 1
    54   56   43 1
    55    5    7 2
    56   10   27 1
    57   36   41 1
@<TRIPOS>SUBSTRUCTURE
     1 RES1 1

@<TRIPOS>CRYSIN
  11.7140   10.4040    8.4580  90.0000  90.0000  92.0200  14 3

