# MOL2 file generated by ConQuest
# Please check atom types

@<TRIPOS>MOLECULE
TMPIMZ10
    17    18     1
SMALL
NO_CHARGES
****
Generated from CSD

@<TRIPOS>ATOM
      1 O1         8.3769    4.2402    6.8647 O.2       1 RES1    0.0000
      2 O2         5.4924    0.8892    8.2967 O.2       1 RES1    0.0000
      3 N1         7.2567    3.6803    7.1366 N.pl3     1 RES1    0.0000
      4 N2         5.9138    2.0108    7.8943 N.3       1 RES1    0.0000
      5 C1         5.6927    5.4513    6.4478 C.ar      1 RES1    0.0000
      6 C2         5.0048    3.1010    7.4466 C.3       1 RES1    0.0000
      7 C3         4.3453    5.8341    6.3408 C.ar      1 RES1    0.0000
      8 C4         6.0248    4.1406    6.9789 C.2       1 RES1    0.0000
      9 C5         6.6807    6.3764    6.0617 C.ar      1 RES1    0.0000
     10 C6         4.0015    7.1097    5.8750 C.ar      1 RES1    0.0000
     11 C7         6.3539    7.6594    5.5668 C.ar      1 RES1    0.0000
     12 C8         7.3334    2.3179    7.7584 C.3       1 RES1    0.0000
     13 C9         4.9959    8.0173    5.4762 C.ar      1 RES1    0.0000
     14 C10        7.9970    2.3825    9.1288 C.3       1 RES1    0.0000
     15 C11        4.1890    3.5512    8.6810 C.3       1 RES1    0.0000
     16 C12        8.0100    1.3402    6.7867 C.3       1 RES1    0.0000
     17 C13        4.1048    2.5513    6.3100 C.3       1 RES1    0.0000
@<TRIPOS>BOND
     1    1    3 1
     2    2    4 1
     3    3    8 2
     4    4    6 1
     5    5    7 ar
     6    6    8 1
     7    7   10 ar
     8    8    5 1
     9    9    5 ar
    10   10   13 ar
    11   11    9 ar
    12   12    3 1
    13   13   11 ar
    14   14   12 1
    15   15    6 1
    16   16   12 1
    17   17    6 1
    18    4   12 1
@<TRIPOS>SUBSTRUCTURE
     1 RES1 1

@<TRIPOS>CRYSIN
   7.5840    9.5000   18.1270  90.0000  90.0000  76.1500   9 3

