# MOL2 file generated by ConQuest
# Please check atom types

@<TRIPOS>MOLECULE
TMPPIO03
    29    29     1
SMALL
NO_CHARGES
****
Generated from CSD

@<TRIPOS>ATOM
      1 N1         8.6372   -2.7593   -1.4205 N.3       1 RES1    0.0000
      2 O1         7.6818   -1.9365   -1.2703 O.2       1 RES1    0.0000
      3 C1         8.4221   -3.8709   -2.4050 C.3       1 RES1    0.0000
      4 C2         9.7646   -4.4592   -2.7896 C.3       1 RES1    0.0000
      5 C3        10.6340   -4.8109   -1.5811 C.3       1 RES1    0.0000
      6 C4        10.9374   -3.4606   -0.8817 C.3       1 RES1    0.0000
      7 C5         9.6877   -2.7724   -0.3750 C.3       1 RES1    0.0000
      8 C6         7.7248   -3.2912   -3.6183 C.3       1 RES1    0.0000
      9 C7         7.4848   -4.9173   -1.7521 C.3       1 RES1    0.0000
     10 C8        10.0159   -1.3091   -0.0201 C.3       1 RES1    0.0000
     11 C9         9.1262   -3.5257    0.8343 C.3       1 RES1    0.0000
     12 H1        10.2763   -3.8275   -3.3999 H         1 RES1    0.0000
     13 H2         9.5201   -5.3971   -3.3188 H         1 RES1    0.0000
     14 H3        10.2469   -5.4839   -0.9443 H         1 RES1    0.0000
     15 H4        11.5328   -5.1040   -1.9417 H         1 RES1    0.0000
     16 H5        11.5645   -3.6364   -0.0257 H         1 RES1    0.0000
     17 H6        11.4015   -2.8353   -1.5289 H         1 RES1    0.0000
     18 H7         8.2817   -2.5118   -4.0672 H         1 RES1    0.0000
     19 H8         6.7739   -2.9200   -3.3670 H         1 RES1    0.0000
     20 H9         7.6750   -4.0185   -4.3595 H         1 RES1    0.0000
     21 H10        7.1656   -5.5643   -2.5479 H         1 RES1    0.0000
     22 H11        7.9919   -5.4622   -1.0029 H         1 RES1    0.0000
     23 H12        6.6064   -4.4028   -1.4526 H         1 RES1    0.0000
     24 H13       10.2672   -0.8272   -0.8970 H         1 RES1    0.0000
     25 H14        9.1307   -0.8423    0.4449 H         1 RES1    0.0000
     26 H15       10.8151   -1.3113    0.6432 H         1 RES1    0.0000
     27 H16        8.1889   -3.0112    1.1346 H         1 RES1    0.0000
     28 H17        9.0266   -4.3876    0.7307 H         1 RES1    0.0000
     29 H18        9.7420   -3.3281    1.6614 H         1 RES1    0.0000
@<TRIPOS>BOND
     1    1    2 1
     2    3    1 1
     3    4    3 1
     4    5    4 1
     5    6    5 1
     6    7    1 1
     7    8    3 1
     8    9    3 1
     9   10    7 1
    10   11    7 1
    11   12    4 1
    12   13    4 1
    13   14    5 1
    14   15    5 1
    15   16    6 1
    16   17    6 1
    17   18    8 1
    18   19    8 1
    19   20    8 1
    20   21    9 1
    21   22    9 1
    22   23    9 1
    23   24   10 1
    24   25   10 1
    25   26   10 1
    26   27   11 1
    27   28   11 1
    28   29   11 1
    29    6    7 1
@<TRIPOS>SUBSTRUCTURE
     1 RES1 1

@<TRIPOS>CRYSIN
  22.6400   21.7100    8.0300  90.0000  90.0000  90.0000  43 1

