# MOL2 file generated by ConQuest
# Please check atom types

@<TRIPOS>MOLECULE
TMPYRO
    30    30     1
SMALL
NO_CHARGES
****
Generated from CSD

@<TRIPOS>ATOM
      1 C1         1.4707   -0.1452    0.2397 C.3       1 RES1    0.0000
      2 C2         1.4148   -1.1852   -0.8671 C.3       1 RES1    0.0000
      3 C3         1.9016    1.2197   -0.2983 C.3       1 RES1    0.0000
      4 C4        -0.6749    1.0420    2.9750 C.3       1 RES1    0.0000
      5 C5        -0.4391   -1.4320    2.7862 C.3       1 RES1    0.0000
      6 C6         2.3283   -0.5921    1.4343 C.3       1 RES1    0.0000
      7 C7         1.6702    0.0721    2.6444 C.3       1 RES1    0.0000
      8 C8         0.1433   -0.0873    2.3677 C.3       1 RES1    0.0000
      9 C9         2.1151   -0.5058    3.9770 C.2       1 RES1    0.0000
     10 H1         2.3127   -1.6250    1.5029 H         1 RES1    0.0000
     11 H2        -1.5406    1.0968    2.5434 H         1 RES1    0.0000
     12 H3        -0.2544    1.7773    2.8209 H         1 RES1    0.0000
     13 H4        -0.7986    0.9140    4.0618 H         1 RES1    0.0000
     14 H5        -1.2989   -1.5234    2.5049 H         1 RES1    0.0000
     15 H6        -0.5616   -1.4422    3.9770 H         1 RES1    0.0000
     16 H7         0.1622   -2.2546    2.4432 H         1 RES1    0.0000
     17 H8         2.4758    0.0812    5.9346 H         1 RES1    0.0000
     18 H9         2.2537    1.5234    4.8556 H         1 RES1    0.0000
     19 H10        3.2660   -0.1016    1.2486 H         1 RES1    0.0000
     20 H11        1.7328    1.0968    2.8748 H         1 RES1    0.0000
     21 H12        2.2364   -0.9344   -1.3488 H         1 RES1    0.0000
     22 H13        1.4986   -2.1734   -0.4624 H         1 RES1    0.0000
     23 H14        0.5756   -0.9547   -1.5415 H         1 RES1    0.0000
     24 H15        1.2043    1.5234   -1.0328 H         1 RES1    0.0000
     25 H16        1.9151    1.9398    0.5010 H         1 RES1    0.0000
     26 H17        2.8673    1.1375   -0.7861 H         1 RES1    0.0000
     27 N1         0.1358    0.0000    0.8833 N.3       1 RES1    0.0000
     28 N2         2.2674    0.4144    4.9535 N.am      1 RES1    0.0000
     29 O1        -0.9309    0.1564    0.2135 O.2       1 RES1    0.0000
     30 O2         2.3164   -1.6950    4.1450 O.2       1 RES1    0.0000
@<TRIPOS>BOND
     1    1    2 1
     2    2   21 1
     3    3    1 1
     4    4    8 1
     5    5    8 1
     6    6    1 1
     7    7    6 1
     8    8    7 1
     9    9    7 1
    10   10    6 1
    11   11    4 1
    12   12    4 1
    13   13    4 1
    14   14    5 1
    15   15    5 1
    16   16    5 1
    17   17   28 1
    18   18   28 1
    19   19    6 1
    20   20    7 1
    21   22    2 1
    22   23    2 1
    23   24    3 1
    24   25    3 1
    25   26    3 1
    26   27    1 1
    27   28    9 1
    28   29   27 1
    29   30    9 2
    30    8   27 1
@<TRIPOS>SUBSTRUCTURE
     1 RES1 1

@<TRIPOS>CRYSIN
   6.5510   10.1560    8.0980  90.0000 107.8700  90.0000   4 1

