# MOL2 file generated by ConQuest
# Please check atom types

@<TRIPOS>MOLECULE
TNBMAN10
    26    27     1
SMALL
NO_CHARGES
****
Generated from CSD

@<TRIPOS>ATOM
      1 C1        -1.1457    0.3169   -3.5891 C.ar      1 RES1    0.0000
      2 C2         2.2208   -3.7697   -3.9196 C.ar      1 RES1    0.0000
      3 C3         2.2126   -3.4361   -5.3049 C.ar      1 RES1    0.0000
      4 C4         1.1972   -2.6188   -5.8086 C.ar      1 RES1    0.0000
      5 C5        -1.8078   -0.7006   -4.5493 C.3       1 RES1    0.0000
      6 C6         3.5538   -4.6037   -2.1251 C.3       1 RES1    0.0000
      7 C7        -1.1825   -1.3177   -6.8633 C.3       1 RES1    0.0000
      8 C8        -1.5297    0.4337   -2.2510 C.ar      1 RES1    0.0000
      9 C9        -0.9407    1.2844   -1.3065 C.ar      1 RES1    0.0000
     10 C10        0.0997    2.0683   -1.7788 C.ar      1 RES1    0.0000
     11 C11        0.6185    2.0350   -3.1011 C.ar      1 RES1    0.0000
     12 C12       -0.0923    1.1342   -3.9826 C.ar      1 RES1    0.0000
     13 C13        0.1675   -2.1350   -4.9586 C.ar      1 RES1    0.0000
     14 C14        0.2201   -2.5354   -3.5891 C.ar      1 RES1    0.0000
     15 C15        1.2242   -3.3026   -3.1011 C.ar      1 RES1    0.0000
     16 N1        -2.6650   -0.4003   -1.7473 N.pl3     1 RES1    0.0000
     17 N2         0.7774    2.9690   -0.8658 N.pl3     1 RES1    0.0000
     18 N3         0.3990    1.1843   -5.3521 N.pl3     1 RES1    0.0000
     19 N4        -0.7984   -1.2510   -5.4623 N.pl3     1 RES1    0.0000
     20 O1         3.3180   -4.5370   -3.5261 O.3       1 RES1    0.0000
     21 O2        -2.3995   -1.0842   -0.7713 O.2       1 RES1    0.0000
     22 O3        -3.6989   -0.3002   -2.2510 O.2       1 RES1    0.0000
     23 O4         1.8675    3.4194   -1.1649 O.2       1 RES1    0.0000
     24 O5         0.1857    3.2693    0.1732 O.2       1 RES1    0.0000
     25 O6         1.5391    0.8507   -5.5725 O.2       1 RES1    0.0000
     26 O7        -0.3832    1.5846   -6.1864 O.2       1 RES1    0.0000
@<TRIPOS>BOND
     1    1    5 1
     2    2    3 ar
     3    3    4 ar
     4    4   13 ar
     5    5   19 1
     6    6   20 1
     7    7   19 1
     8    8    1 ar
     9    9    8 ar
    10   10    9 ar
    11   11   10 ar
    12   12    1 ar
    13   13   14 ar
    14   14   15 ar
    15   15    2 ar
    16   16    8 1
    17   17   10 1
    18   18   12 1
    19   19   13 1
    20   20    2 1
    21   21   16 2
    22   22   16 2
    23   23   17 2
    24   24   17 2
    25   25   18 2
    26   26   18 2
    27   11   12 ar
@<TRIPOS>SUBSTRUCTURE
     1 RES1 1

@<TRIPOS>CRYSIN
   6.1800   16.6800   15.7800  90.0000  94.0000  90.0000  14 1

