# MOL2 file generated by ConQuest
# Please check atom types

@<TRIPOS>MOLECULE
TNFLUO01
    29    30     2
SMALL
NO_CHARGES
****
Generated from CSD

@<TRIPOS>ATOM
      1 N1         0.2767    6.9281   -1.2446 N.pl3     1 RES1    0.0000
      2 N2        -0.5483   -1.1784    4.0639 N.pl3     1 RES1    0.0000
      3 N3         1.2077    3.3057    4.7133 N.pl3     1 RES1    0.0000
      4 O1        -0.4627    6.7940   -2.1753 O.2       1 RES1    0.0000
      5 O2         0.9697    7.8970   -1.1049 O.2       1 RES1    0.0000
      6 O3        -0.0542   -1.4316    5.1778 O.2       1 RES1    0.0000
      7 O4        -1.2821   -1.8674    3.5613 O.2       1 RES1    0.0000
      8 O5        -0.8075   -2.0786    3.0842 Du        2 SUP2    0.0000
      9 O6         0.7285    3.3610    5.8599 O.2       1 RES1    0.0000
     10 O7         2.1682    4.0047    4.3197 O.2       1 RES1    0.0000
     11 O8        -1.2117    1.6847   -0.5116 O.2       1 RES1    0.0000
     12 C1         0.4683    3.8840    1.6818 C.ar      1 RES1    0.0000
     13 C2        -0.1151    3.6342    0.4282 C.ar      1 RES1    0.0000
     14 C3        -0.1764    4.6031   -0.5588 C.ar      1 RES1    0.0000
     15 H1        -0.5497    4.4254   -1.3788 H         1 RES1    0.0000
     16 C4         0.3434    5.8335   -0.2340 C.ar      1 RES1    0.0000
     17 C5         0.9087    6.1185    0.9652 C.ar      1 RES1    0.0000
     18 H2         1.2413    6.9734    1.1248 H         1 RES1    0.0000
     19 C6         0.9953    5.1345    1.9412 C.ar      1 RES1    0.0000
     20 H3         1.3971    5.3139    2.7576 H         1 RES1    0.0000
     21 C7         0.3474    2.6502    2.4946 C.ar      1 RES1    0.0000
     22 C8        -0.2962    1.6729    1.7181 C.ar      1 RES1    0.0000
     23 C9        -0.5984    0.3990    2.2007 C.ar      1 RES1    0.0000
     24 H4        -1.0232   -0.2347    1.6691 H         1 RES1    0.0000
     25 C10       -0.2428    0.1375    3.4779 C.ar      1 RES1    0.0000
     26 C11        0.3569    1.0594    4.2870 C.ar      1 RES1    0.0000
     27 H5         0.5703    0.8382    5.1705 H         1 RES1    0.0000
     28 C12        0.6410    2.3083    3.7863 C.ar      1 RES1    0.0000
     29 C13       -0.6331    2.2194    0.3810 C.2       1 RES1    0.0000
@<TRIPOS>BOND
     1    1    4 2
     2    2    6 2
     3    3    9 2
     4    5    1 2
     5    7    2 2
     6   10    3 2
     7   11   29 2
     8   12   13 ar
     9   13   14 ar
    10   14   15 1
    11   16    1 1
    12   17   16 ar
    13   18   17 1
    14   19   12 ar
    15   20   19 1
    16   21   12 1
    17   22   21 ar
    18   23   22 ar
    19   24   23 1
    20   25    2 1
    21   26   25 ar
    22   27   26 1
    23   28    3 1
    24   29   13 1
    25   14   16 ar
    26   17   19 ar
    27   21   28 ar
    28   22   29 1
    29   23   25 ar
    30   26   28 ar
@<TRIPOS>SUBSTRUCTURE
     1 RES1 1
     2 SUP2 8

@<TRIPOS>CRYSIN
   4.0240   16.7630   18.2500  90.0000  96.2300  90.0000  14 1

