# MOL2 file generated by ConQuest
# Please check atom types

@<TRIPOS>MOLECULE
TNITAN
    22    22     1
SMALL
NO_CHARGES
****
Generated from CSD

@<TRIPOS>ATOM
      1 C1        -2.2087    3.7128    2.6773 C.ar      1 RES1    0.0000
      2 C2        -3.3620    4.5280    2.4300 C.ar      1 RES1    0.0000
      3 C3        -4.2564    4.2404    1.4454 C.ar      1 RES1    0.0000
      4 C4        -4.0654    3.1421    0.6245 C.ar      1 RES1    0.0000
      5 C5        -2.9326    2.3702    0.7554 C.ar      1 RES1    0.0000
      6 C6        -2.0229    2.6555    1.7352 C.ar      1 RES1    0.0000
      7 H1        -0.6515    3.3490    3.8280 H         1 RES1    0.0000
      8 H2        -1.5972    4.6386    4.3106 H         1 RES1    0.0000
      9 H3        -2.8355    1.5827    0.1188 H         1 RES1    0.0000
     10 N1        -1.3927    3.9562    3.6753 N.pl3     1 RES1    0.0000
     11 N2        -3.5232    5.7612    3.2084 N.pl3     1 RES1    0.0000
     12 N3        -5.4185    5.1484    1.2598 N.pl3     1 RES1    0.0000
     13 N4        -5.0755    2.6920   -0.3080 N.pl3     1 RES1    0.0000
     14 N5        -0.8706    1.7596    1.8055 N.pl3     1 RES1    0.0000
     15 O1        -3.3259    5.7180    4.4089 O.2       1 RES1    0.0000
     16 O2        -3.8474    6.7665    2.6021 O.2       1 RES1    0.0000
     17 O3        -6.2218    5.1783    2.1656 O.2       1 RES1    0.0000
     18 O4        -5.4502    5.7678    0.2243 O.2       1 RES1    0.0000
     19 O5        -6.2102    3.1256   -0.1819 O.2       1 RES1    0.0000
     20 O6        -4.7420    1.9001   -1.1847 O.2       1 RES1    0.0000
     21 O7        -0.7795    0.8782    0.9640 O.2       1 RES1    0.0000
     22 O8        -0.0486    1.9377    2.6810 O.2       1 RES1    0.0000
@<TRIPOS>BOND
     1    1    2 ar
     2    2    3 ar
     3    3    4 ar
     4    4    5 ar
     5    5    6 ar
     6    6    1 ar
     7    7   10 1
     8    8   10 1
     9    9    5 1
    10   10    1 1
    11   11    2 1
    12   12    3 1
    13   13    4 1
    14   14    6 1
    15   15   11 2
    16   16   11 2
    17   17   12 2
    18   18   12 2
    19   19   13 2
    20   20   13 2
    21   21   14 2
    22   22   14 2
@<TRIPOS>SUBSTRUCTURE
     1 RES1 1

@<TRIPOS>CRYSIN
   7.2700   11.0600   12.2700  90.0000  98.8000  90.0000  14 1

