# MOL2 file generated by ConQuest
# Please check atom types

@<TRIPOS>MOLECULE
TNOXYL01
    24    24     1
SMALL
NO_CHARGES
****
Generated from CSD

@<TRIPOS>ATOM
      1 O1         1.4359    2.0747    4.8828 O.2       1 RES1    0.0000
      2 O2        -0.0837    3.5853    4.5875 O.2       1 RES1    0.0000
      3 O3         3.7924    8.0063    3.4195 O.2       1 RES1    0.0000
      4 N1         1.0497    3.1455    4.4444 N.pl3     1 RES1    0.0000
      5 N2         2.8744    7.4479    2.8538 N.pl3     1 RES1    0.0000
      6 C1         2.8744    3.2455    2.8538 C.ar      1 RES1    0.0000
      7 H1         2.8744    2.3151    2.8538 H         1 RES1    0.0000
      8 C2         2.0000    3.9495    3.6546 C.ar      1 RES1    0.0000
      9 C3         1.9724    5.3460    3.7170 C.ar      1 RES1    0.0000
     10 C4         2.8744    5.9570    2.8538 C.ar      1 RES1    0.0000
     11 C5         1.1164    6.1479    4.6555 C.3       1 RES1    0.0000
     12 H2         1.5418    6.9890    4.8365 H         1 RES1    0.0000
     13 H3         1.0020    5.6637    5.4769 H         1 RES1    0.0000
     14 H4         0.2587    6.3030    4.2532 H         1 RES1    0.0000
     15 O1B        4.3128    2.0747    0.8247 O.2       1 RES1    0.0000
     16 O2B        5.8324    3.5853    1.1200 O.2       1 RES1    0.0000
     17 O3B        1.9563    8.0063    2.2880 O.2       1 RES1    0.0000
     18 N1B        4.6990    3.1455    1.2631 N.pl3     1 RES1    0.0000
     19 C2B        3.7487    3.9495    2.0529 C.ar      1 RES1    0.0000
     20 C3B        3.7763    5.3460    1.9905 C.ar      1 RES1    0.0000
     21 C5B        4.6323    6.1479    1.0520 C.3       1 RES1    0.0000
     22 H2B        4.2069    6.9890    0.8710 H         1 RES1    0.0000
     23 H3B        4.7467    5.6637    0.2306 H         1 RES1    0.0000
     24 H4B        5.4900    6.3030    1.4543 H         1 RES1    0.0000
@<TRIPOS>BOND
     1    1    4 2
     2    2    4 2
     3    3    5 2
     4    4    8 1
     5    5   10 1
     6    6    7 1
     7    8    6 ar
     8    9    8 ar
     9   10    9 ar
    10   11    9 1
    11   12   11 1
    12   13   11 1
    13   14   11 1
    14   15   18 2
    15   16   18 2
    16   17    5 2
    17   18   19 1
    18   19    6 ar
    19   20   10 ar
    20   21   20 1
    21   22   21 1
    22   23   21 1
    23   24   21 1
    24   19   20 ar
@<TRIPOS>SUBSTRUCTURE
     1 RES1 1

@<TRIPOS>CRYSIN
   5.7487   15.0430   11.4150  90.0000  90.0000  90.0000  60 1

