# MOL2 file generated by ConQuest
# Please check atom types

@<TRIPOS>MOLECULE
TNPHNT
    25    25     1
SMALL
NO_CHARGES
****
Generated from CSD

@<TRIPOS>ATOM
      1 C1         2.8923    1.6681    0.0000 C.ar      1 RES1    0.0000
      2 C2         3.6534    0.6497   -0.5481 C.ar      1 RES1    0.0000
      3 C3         3.3133    0.0537   -1.7558 C.ar      1 RES1    0.0000
      4 C4         2.2049    0.5048   -2.4204 C.ar      1 RES1    0.0000
      5 C5         1.3843    1.4753   -1.8873 C.ar      1 RES1    0.0000
      6 C6         1.7482    2.0271   -0.6984 C.ar      1 RES1    0.0000
      7 C7         3.9911    3.3707    1.3392 C.3       1 RES1    0.0000
      8 C8         4.1909    3.6555    2.7762 C.3       1 RES1    0.0000
      9 H1         3.8793   -0.7064   -2.0903 H         1 RES1    0.0000
     10 H2         0.5304    1.7144   -2.3759 H         1 RES1    0.0000
     11 H3         4.9473    3.3258    0.8563 H         1 RES1    0.0000
     12 H4         3.5915    4.2014    0.8813 H         1 RES1    0.0000
     13 H5         4.6143    2.8696    3.2116 H         1 RES1    0.0000
     14 H6         4.8759    4.4884    3.0737 H         1 RES1    0.0000
     15 H7         3.3037    3.9012    3.2930 H         1 RES1    0.0000
     16 N1         4.8260    0.1140    0.1441 N.pl3     1 RES1    0.0000
     17 N2         1.8624   -0.0618   -3.7296 N.pl3     1 RES1    0.0000
     18 N3         0.8563    3.0609   -0.1322 N.pl3     1 RES1    0.0000
     19 O1         3.1253    2.1765    1.2490 O.3       1 RES1    0.0000
     20 O2         5.4872    0.8454    0.8369 O.2       1 RES1    0.0000
     21 O3         5.0829   -1.0809   -0.0263 O.2       1 RES1    0.0000
     22 O4         2.6282   -0.8815   -4.2132 O.2       1 RES1    0.0000
     23 O5         0.8420    0.3252   -4.2670 O.2       1 RES1    0.0000
     24 O6        -0.2902    2.7666    0.0601 O.2       1 RES1    0.0000
     25 O7         1.2915    4.1720   -0.0094 O.2       1 RES1    0.0000
@<TRIPOS>BOND
     1    1    2 ar
     2    2    3 ar
     3    3    4 ar
     4    4    5 ar
     5    5    6 ar
     6    6    1 ar
     7    7    8 1
     8    8   13 1
     9    9    3 1
    10   10    5 1
    11   11    7 1
    12   12    7 1
    13   14    8 1
    14   15    8 1
    15   16    2 1
    16   17    4 1
    17   18    6 1
    18   19    1 1
    19   20   16 2
    20   21   16 2
    21   22   17 2
    22   23   17 2
    23   24   18 2
    24   25   18 2
    25    7   19 1
@<TRIPOS>SUBSTRUCTURE
     1 RES1 1

@<TRIPOS>CRYSIN
  23.7850    7.3580    6.2640  90.0000  90.0000  90.0000  29 1

