# MOL2 file generated by ConQuest
# Please check atom types

@<TRIPOS>MOLECULE
TOBJAX
    37    38     1
SMALL
NO_CHARGES
****
Generated from CSD

@<TRIPOS>ATOM
      1 O1         8.5263    4.4349   -1.8723 O.2       1 RES1    0.0000
      2 O2         8.2183    3.5527   -3.8301 O.2       1 RES1    0.0000
      3 O3         4.4563   -1.7865    2.7695 O.3       1 RES1    0.0000
      4 O4         2.6833   -3.2846    4.1393 O.3       1 RES1    0.0000
      5 N1         7.9458    3.6641   -2.6457 N.pl3     1 RES1    0.0000
      6 N2         2.2681   -0.7491   -2.3264 N.1       1 RES1    0.0000
      7 C1         6.8655    2.8216   -2.1104 C.ar      1 RES1    0.0000
      8 C2         6.5316    2.9391   -0.7646 C.ar      1 RES1    0.0000
      9 H1         6.9743    3.5476   -0.2173 H         1 RES1    0.0000
     10 C3         5.5298    2.1334   -0.2569 C.ar      1 RES1    0.0000
     11 H2         5.3033    2.1915    0.6442 H         1 RES1    0.0000
     12 C4         4.8517    1.2305   -1.0842 C.ar      1 RES1    0.0000
     13 C5         5.1977    1.1597   -2.4399 C.ar      1 RES1    0.0000
     14 H3         4.7374    0.5782   -3.0017 H         1 RES1    0.0000
     15 C6         6.2141    1.9428   -2.9549 C.ar      1 RES1    0.0000
     16 H4         6.4550    1.8790   -3.8515 H         1 RES1    0.0000
     17 C7         3.7999    0.3375   -0.5347 C.2       1 RES1    0.0000
     18 C8         3.7160   -0.0099    0.7666 C.2       1 RES1    0.0000
     19 C9         2.7146   -0.8869    1.3949 C.ar      1 RES1    0.0000
     20 C10        3.1134   -1.7072    2.4560 C.ar      1 RES1    0.0000
     21 C11        2.1832   -2.5238    3.1235 C.ar      1 RES1    0.0000
     22 C12        0.8580   -2.5219    2.7111 C.ar      1 RES1    0.0000
     23 H5         0.2344   -3.0619    3.1407 H         1 RES1    0.0000
     24 C13        0.4672   -1.7058    1.6512 C.ar      1 RES1    0.0000
     25 H6        -0.4219   -1.7091    1.3765 H         1 RES1    0.0000
     26 C14        1.3695   -0.8968    1.0057 C.ar      1 RES1    0.0000
     27 H7         1.0862   -0.3526    0.3074 H         1 RES1    0.0000
     28 C15        4.8290   -1.1682    4.0175 C.3       1 RES1    0.0000
     29 H8         5.7736   -1.2687    4.1550 H         1 RES1    0.0000
     30 H9         4.3540   -1.5897    4.7385 H         1 RES1    0.0000
     31 H10        4.6077   -0.2346    3.9905 H         1 RES1    0.0000
     32 C16        1.7369   -4.0398    4.9071 C.3       1 RES1    0.0000
     33 H11        2.1986   -4.5340    5.5883 H         1 RES1    0.0000
     34 H12        1.2704   -4.6492    4.3292 H         1 RES1    0.0000
     35 H13        1.1070   -3.4418    5.3161 H         1 RES1    0.0000
     36 C17        2.9200   -0.2752   -1.5097 C.1       1 RES1    0.0000
     37 H14        4.3877    0.3446    1.3491 H         1 RES1    0.0000
@<TRIPOS>BOND
     1    1    5 2
     2    2    5 2
     3    3   20 1
     4    4   21 1
     5    5    7 1
     6    6   36 3
     7    7    8 ar
     8    8    9 1
     9   10    8 ar
    10   11   10 1
    11   12   10 ar
    12   13   12 ar
    13   14   13 1
    14   15    7 ar
    15   16   15 1
    16   17   12 1
    17   18   17 2
    18   19   18 1
    19   20   19 ar
    20   21   20 ar
    21   22   21 ar
    22   23   22 1
    23   24   22 ar
    24   25   24 1
    25   26   19 ar
    26   27   26 1
    27   28    3 1
    28   29   28 1
    29   30   28 1
    30   31   28 1
    31   32    4 1
    32   33   32 1
    33   34   32 1
    34   35   32 1
    35   36   17 1
    36   37   18 1
    37   13   15 ar
    38   24   26 ar
@<TRIPOS>SUBSTRUCTURE
     1 RES1 1

@<TRIPOS>CRYSIN
  15.6340    4.7200   19.5850  90.0000  91.2290  90.0000  14 1

