# MOL2 file generated by ConQuest
# Please check atom types

@<TRIPOS>MOLECULE
TOCGIB
    48    50     1
SMALL
NO_CHARGES
****
Generated from CSD

@<TRIPOS>ATOM
      1 O1         0.3617    6.6461    8.6155 O.3       1 RES1    0.0000
      2 O2        -3.5154    5.1550    7.8167 O.3       1 RES1    0.0000
      3 H1        -3.3792    4.4896    8.3110 H         1 RES1    0.0000
      4 O3         0.9408    4.7224    4.7317 O.3       1 RES1    0.0000
      5 O4         1.4559    5.3933   10.1085 O.2       1 RES1    0.0000
      6 O5        -0.1394    6.4859    5.7739 O.3       1 RES1    0.0000
      7 O6         1.2049    3.6736    6.7161 O.3       1 RES1    0.0000
      8 N1        -2.7764    6.2970    8.3258 N.3       1 RES1    0.0000
      9 C1        -3.1668    8.4849    9.4291 C.ar      1 RES1    0.0000
     10 C2        -2.0193    6.8104    7.1782 C.3       1 RES1    0.0000
     11 H2        -1.5838    7.6689    7.4484 H         1 RES1    0.0000
     12 C3        -3.7901    7.2650    8.7972 C.3       1 RES1    0.0000
     13 H3        -4.3790    6.8227    9.4586 H         1 RES1    0.0000
     14 H4        -4.3512    7.5470    8.0328 H         1 RES1    0.0000
     15 C4        -2.8961    7.0815    5.9980 C.1       1 RES1    0.0000
     16 C5         0.0689    5.4631    7.8527 C.3       1 RES1    0.0000
     17 H5        -0.2567    4.7142    8.4306 H         1 RES1    0.0000
     18 C6        -2.4532    8.3850   10.6110 C.ar      1 RES1    0.0000
     19 H6        -2.3392    7.5320   11.0154 H         1 RES1    0.0000
     20 C7        -0.9350    5.8328    6.7788 C.3       1 RES1    0.0000
     21 H7        -1.3476    5.0044    6.3990 H         1 RES1    0.0000
     22 C8         1.4436    3.5093    5.3006 C.3       1 RES1    0.0000
     23 C9        -3.3079    9.7336    8.8414 C.ar      1 RES1    0.0000
     24 H8        -3.7778    9.8213    8.0213 H         1 RES1    0.0000
     25 C10        1.0720    5.7780    5.6673 C.3       1 RES1    0.0000
     26 H9         1.8356    6.3818    5.4398 H         1 RES1    0.0000
     27 C11       -2.7633   10.8578    9.4488 C.ar      1 RES1    0.0000
     28 H10       -2.8822   11.7135    9.0542 H         1 RES1    0.0000
     29 N2        -3.6171    7.2444    5.1238 N.1       1 RES1    0.0000
     30 C12        1.0794    6.4749    9.7549 C.2       1 RES1    0.0000
     31 C13       -2.0554   10.7386   10.6192 C.ar      1 RES1    0.0000
     32 H11       -1.6683   11.5068   11.0236 H         1 RES1    0.0000
     33 C14        0.6316    2.3619    4.8062 C.3       1 RES1    0.0000
     34 H12        0.9719    1.5294    5.1942 H         1 RES1    0.0000
     35 H13        0.6914    2.3167    3.8289 H         1 RES1    0.0000
     36 H14       -0.3043    2.4865    5.0698 H         1 RES1    0.0000
     37 C15        1.2885    5.0619    7.0293 C.3       1 RES1    0.0000
     38 H15        2.1522    5.3111    7.4664 H         1 RES1    0.0000
     39 C16        2.9240    3.3888    5.0354 C.3       1 RES1    0.0000
     40 H16        3.2587    2.5563    5.4299 H         1 RES1    0.0000
     41 H17        3.3907    4.1514    5.4381 H         1 RES1    0.0000
     42 H18        3.0831    3.3806    4.0696 H         1 RES1    0.0000
     43 C17       -1.9070    9.4954   11.2102 C.ar      1 RES1    0.0000
     44 H19       -1.4296    9.4091   12.0270 H         1 RES1    0.0000
     45 C18        1.2803    7.7469   10.4883 C.3       1 RES1    0.0000
     46 H20        0.8776    8.4822    9.9808 H         1 RES1    0.0000
     47 H21        2.2400    7.9126   10.5979 H         1 RES1    0.0000
     48 H22        0.8563    7.6867   11.3690 H         1 RES1    0.0000
@<TRIPOS>BOND
     1    1   16 1
     2    2    3 1
     3    4   22 1
     4    5   30 2
     5    6   20 1
     6    7   22 1
     7    8    2 1
     8    9   12 1
     9   10    8 1
    10   11   10 1
    11   12    8 1
    12   13   12 1
    13   14   12 1
    14   15   10 1
    15   16   17 1
    16   18    9 ar
    17   19   18 1
    18   20   10 1
    19   21   20 1
    20   22   33 1
    21   23    9 ar
    22   24   23 1
    23   25    4 1
    24   26   25 1
    25   27   23 ar
    26   28   27 1
    27   29   15 3
    28   30    1 1
    29   31   27 ar
    30   32   31 1
    31   33   34 1
    32   35   33 1
    33   36   33 1
    34   37    7 1
    35   38   37 1
    36   39   22 1
    37   40   39 1
    38   41   39 1
    39   42   39 1
    40   43   18 ar
    41   44   43 1
    42   45   30 1
    43   46   45 1
    44   47   45 1
    45   48   45 1
    46    6   25 1
    47   16   20 1
    48   16   37 1
    49   25   37 1
    50   31   43 ar
@<TRIPOS>SUBSTRUCTURE
     1 RES1 1

@<TRIPOS>CRYSIN
   8.2020   13.6920   16.3700  90.0000  90.0000  90.0000  19 1

