# MOL2 file generated by ConQuest
# Please check atom types

@<TRIPOS>MOLECULE
TOCGAT
    37    38     1
SMALL
NO_CHARGES
****
Generated from CSD

@<TRIPOS>ATOM
      1 N1        -0.0685    0.3093   17.8417 N.3       1 RES1    0.0000
      2 O1        -0.3029    1.7755   17.7948 O.3       1 RES1    0.0000
      3 H1        -0.7985    1.9594   17.1425 H         1 RES1    0.0000
      4 O2        -0.3298   -1.6057   21.4467 O.3       1 RES1    0.0000
      5 C1         0.1713    0.3442   20.2533 C.3       1 RES1    0.0000
      6 H2        -0.1863    1.2777   20.2903 H         1 RES1    0.0000
      7 O3         1.0902    0.1167   21.3478 O.3       1 RES1    0.0000
      8 C2         0.8433    0.1046   18.9511 C.3       1 RES1    0.0000
      9 H3         1.1386   -0.8506   18.9314 H         1 RES1    0.0000
     10 C3        -0.5483    0.0435   15.4203 C.ar      1 RES1    0.0000
     11 C4         0.4877   -0.0040   16.5347 C.3       1 RES1    0.0000
     12 H4         0.8875   -0.9092   16.5643 H         1 RES1    0.0000
     13 H5         1.2108    0.6398   16.3296 H         1 RES1    0.0000
     14 C5        -0.9522   -0.6747   20.5967 C.3       1 RES1    0.0000
     15 H6        -1.7072   -0.2274   21.0538 H         1 RES1    0.0000
     16 H7        -1.2891   -1.1164   19.7764 H         1 RES1    0.0000
     17 C6        -0.4761    0.9860   14.4221 C.ar      1 RES1    0.0000
     18 H8         0.2224    1.6294   14.4345 H         1 RES1    0.0000
     19 C7        -2.6218   -0.7298   14.4370 C.ar      1 RES1    0.0000
     20 H9        -3.3856   -1.2943   14.4715 H         1 RES1    0.0000
     21 C8         2.0592    0.9592   18.8325 C.1       1 RES1    0.0000
     22 C9         0.5905   -0.8455   22.2694 C.3       1 RES1    0.0000
     23 C10       -2.5253    0.1506   13.3967 C.ar      1 RES1    0.0000
     24 H10       -3.1848    0.1718   12.7123 H         1 RES1    0.0000
     25 C11       -1.4386    1.0103   13.3646 C.ar      1 RES1    0.0000
     26 H11       -1.3335    1.6163   12.6407 H         1 RES1    0.0000
     27 N2         2.9487    1.7072   18.6991 N.1       1 RES1    0.0000
     28 C12       -1.6889   -0.8531   15.4401 C.ar      1 RES1    0.0000
     29 H12       -1.7882   -1.5046   16.1245 H         1 RES1    0.0000
     30 C13        1.7146   -1.7411   22.6722 C.3       1 RES1    0.0000
     31 H13        1.3869   -2.4113   23.3072 H         1 RES1    0.0000
     32 H14        2.4208   -1.2089   23.0922 H         1 RES1    0.0000
     33 H15        2.0738   -2.1909   21.8790 H         1 RES1    0.0000
     34 C14       -0.0705   -0.1910   23.3937 C.3       1 RES1    0.0000
     35 H16       -0.4071   -0.8698   24.0163 H         1 RES1    0.0000
     36 H17       -0.8185    0.3497   23.0650 H         1 RES1    0.0000
     37 H18        0.5711    0.3871   23.8582 H         1 RES1    0.0000
@<TRIPOS>BOND
     1    1    2 1
     2    2    3 1
     3    4   14 1
     4    5    6 1
     5    7    5 1
     6    8    1 1
     7    9    8 1
     8   10   11 1
     9   11    1 1
    10   12   11 1
    11   13   11 1
    12   14    5 1
    13   15   14 1
    14   16   14 1
    15   17   10 ar
    16   18   17 1
    17   19   20 1
    18   21    8 1
    19   22    4 1
    20   23   19 ar
    21   24   23 1
    22   25   17 ar
    23   26   25 1
    24   27   21 3
    25   28   10 ar
    26   29   28 1
    27   30   22 1
    28   31   30 1
    29   32   30 1
    30   33   30 1
    31   34   22 1
    32   35   34 1
    33   36   34 1
    34   37   34 1
    35    5    8 1
    36    7   22 1
    37   19   28 ar
    38   23   25 ar
@<TRIPOS>SUBSTRUCTURE
     1 RES1 1

@<TRIPOS>CRYSIN
   5.9240    5.0540   24.7300  90.0000  92.4100  90.0000   4 1

