# MOL2 file generated by ConQuest
# Please check atom types

@<TRIPOS>MOLECULE
TOCGOH
    53    54     1
SMALL
NO_CHARGES
****
Generated from CSD

@<TRIPOS>ATOM
      1 O1         0.2094    1.9961   17.1072 O.3       1 RES1    0.0000
      2 O2        -1.6304    0.8924   17.8550 O.2       1 RES1    0.0000
      3 N1         0.1213   -0.2101   16.8903 N.am      1 RES1    0.0000
      4 O3         1.4830   -1.6526   15.7861 O.3       1 RES1    0.0000
      5 N2        -0.6678   -1.3961   19.4688 N.3       1 RES1    0.0000
      6 O4        -2.1086   -1.3369   19.3942 O.3       1 RES1    0.0000
      7 H1        -2.3432   -0.5791   19.1178 H         1 RES1    0.0000
      8 C1         1.3347   -0.2391   16.0034 C.3       1 RES1    0.0000
      9 C2        -0.5860   -0.9435   21.8844 C.ar      1 RES1    0.0000
     10 C3        -0.5330    0.9040   17.3339 C.2       1 RES1    0.0000
     11 C4        -0.8296   -3.5639   18.3265 C.1       1 RES1    0.0000
     12 C5        -0.2013   -2.2119   18.3514 C.3       1 RES1    0.0000
     13 H2         0.7882   -2.3268   18.4389 H         1 RES1    0.0000
     14 N3        -1.3671   -4.5782   18.2902 N.1       1 RES1    0.0000
     15 C6        -0.1941    0.3748   21.7192 C.ar      1 RES1    0.0000
     16 H3         0.1995    0.6476   20.8992 H         1 RES1    0.0000
     17 C7        -0.3523   -1.9601   20.7913 C.3       1 RES1    0.0000
     18 H4         0.5950   -2.2502   20.8081 H         1 RES1    0.0000
     19 H5        -0.9186   -2.7550   20.9543 H         1 RES1    0.0000
     20 C8        -0.2795    3.3550   17.4830 C.3       1 RES1    0.0000
     21 C9        -0.4925   -1.5261   16.9923 C.3       1 RES1    0.0000
     22 H6        -1.4785   -1.4669   16.8343 H         1 RES1    0.0000
     23 C10       -0.9518    0.9145   23.9441 C.ar      1 RES1    0.0000
     24 H7        -1.0723    1.5458   24.6437 H         1 RES1    0.0000
     25 C11       -1.5594    3.6544   16.7458 C.3       1 RES1    0.0000
     26 H8        -2.2704    3.0637   17.0726 H         1 RES1    0.0000
     27 H9        -1.4264    3.5070   15.7863 H         1 RES1    0.0000
     28 H10       -1.8147    4.5875   16.9006 H         1 RES1    0.0000
     29 C12        1.0795    0.4770   14.6700 C.3       1 RES1    0.0000
     30 H11        0.9806    1.4390   14.8306 H         1 RES1    0.0000
     31 H12        0.2607    0.1265   14.2629 H         1 RES1    0.0000
     32 H13        1.8362    0.3226   14.0679 H         1 RES1    0.0000
     33 C13       -1.3518   -0.3841   24.1180 C.ar      1 RES1    0.0000
     34 H14       -1.7527   -0.6499   24.9380 H         1 RES1    0.0000
     35 C14        0.1941   -2.2514   15.8302 C.3       1 RES1    0.0000
     36 H15        0.2598   -3.2239   16.0061 H         1 RES1    0.0000
     37 H16       -0.2948   -2.1086   14.9816 H         1 RES1    0.0000
     38 C15       -1.1738   -1.3206   23.0954 C.ar      1 RES1    0.0000
     39 H17       -1.4552   -2.2189   23.2239 H         1 RES1    0.0000
     40 C16        2.5841    0.2391   16.6942 C.3       1 RES1    0.0000
     41 H18        2.5175    1.2023   16.8605 H         1 RES1    0.0000
     42 H19        3.3615    0.0569   16.1265 H         1 RES1    0.0000
     43 H20        2.6856   -0.2321   17.5486 H         1 RES1    0.0000
     44 C17       -0.4179    3.4270   18.9974 C.3       1 RES1    0.0000
     45 H21        0.4449    3.2227   19.4141 H         1 RES1    0.0000
     46 H22       -1.0866    2.7759   19.2956 H         1 RES1    0.0000
     47 H23       -0.7011    4.3287   19.2574 H         1 RES1    0.0000
     48 C18       -0.3694    1.3090   22.7457 C.ar      1 RES1    0.0000
     49 H24       -0.0917    2.2096   22.6214 H         1 RES1    0.0000
     50 C19        0.8494    4.2463   17.0134 C.3       1 RES1    0.0000
     51 H25        1.6655    4.0269   17.5103 H         1 RES1    0.0000
     52 H26        0.6130    5.1840   17.1701 H         1 RES1    0.0000
     53 H27        1.0022    4.1035   16.0558 H         1 RES1    0.0000
@<TRIPOS>BOND
     1    1   10 1
     2    2   10 2
     3    3    8 1
     4    4    8 1
     5    5    6 1
     6    6    7 1
     7    8   29 1
     8    9   15 ar
     9   10    3 1
    10   11   12 1
    11   12    5 1
    12   13   12 1
    13   14   11 3
    14   15   16 1
    15   17    5 1
    16   18   17 1
    17   19   17 1
    18   20    1 1
    19   21    3 1
    20   22   21 1
    21   23   24 1
    22   25   20 1
    23   26   25 1
    24   27   25 1
    25   28   25 1
    26   29   30 1
    27   31   29 1
    28   32   29 1
    29   33   23 ar
    30   34   33 1
    31   35    4 1
    32   36   35 1
    33   37   35 1
    34   38    9 ar
    35   39   38 1
    36   40    8 1
    37   41   40 1
    38   42   40 1
    39   43   40 1
    40   44   20 1
    41   45   44 1
    42   46   44 1
    43   47   44 1
    44   48   15 ar
    45   49   48 1
    46   50   20 1
    47   51   50 1
    48   52   50 1
    49   53   50 1
    50    9   17 1
    51   12   21 1
    52   21   35 1
    53   23   48 ar
    54   33   38 ar
@<TRIPOS>SUBSTRUCTURE
     1 RES1 1

@<TRIPOS>CRYSIN
   8.9880   11.6050   19.1140  90.0000  90.0000  90.0000  19 1

