# MOL2 file generated by ConQuest
# Please check atom types

@<TRIPOS>MOLECULE
TODCEW
    16    16     1
SMALL
NO_CHARGES
****
Generated from CSD

@<TRIPOS>ATOM
      1 O1         7.1760    5.2024    3.0679 O.2       1 RES1    0.0000
      2 O2         5.3110    5.7794    2.1235 O.2       1 RES1    0.0000
      3 N1         5.9568    5.1559    2.9560 N.pl3     1 RES1    0.0000
      4 N2         6.3633    1.9167    7.8904 N.1       1 RES1    0.0000
      5 N3         2.5965    0.9983    7.1593 N.1       1 RES1    0.0000
      6 C1         5.2085    4.2887    3.8856 C.ar      1 RES1    0.0000
      7 C2         3.8641    4.0589    3.6390 C.ar      1 RES1    0.0000
      8 C3         3.1696    3.2143    4.4953 C.ar      1 RES1    0.0000
      9 C4         3.8274    2.6397    5.5807 C.ar      1 RES1    0.0000
     10 C5         5.1852    2.9156    5.8181 C.ar      1 RES1    0.0000
     11 C6         5.8927    3.7426    4.9538 C.ar      1 RES1    0.0000
     12 C7         5.8492    2.3430    6.9599 C.1       1 RES1    0.0000
     13 C8         3.1284    1.7381    6.4645 C.1       1 RES1    0.0000
     14 H1         3.4347    4.4415    2.8677 H         1 RES1    0.0000
     15 H2         2.2448    3.0521    4.3512 H         1 RES1    0.0000
     16 H3         6.8103    3.9142    5.0897 H         1 RES1    0.0000
@<TRIPOS>BOND
     1    1    3 2
     2    2    3 2
     3    3    6 1
     4    4   12 3
     5    5   13 3
     6    6    7 ar
     7    7    8 ar
     8    8    9 ar
     9    9   10 ar
    10   10   11 ar
    11   11    6 ar
    12   12   10 1
    13   13    9 1
    14   14    7 1
    15   15    8 1
    16   16   11 1
@<TRIPOS>SUBSTRUCTURE
     1 RES1 1

@<TRIPOS>CRYSIN
  12.8642    9.2013   13.2578  90.0000  90.0000  90.0000  61 1

