# MOL2 file generated by ConQuest
# Please check atom types

@<TRIPOS>MOLECULE
TOGZAS
    45    47     1
SMALL
NO_CHARGES
****
Generated from CSD

@<TRIPOS>ATOM
      1 O1         9.8356    5.5817    5.3701 O.2       1 RES1    0.0000
      2 O2        10.8954    6.9583    6.6745 O.2       1 RES1    0.0000
      3 O3        15.3046    8.7291    5.1035 O.2       1 RES1    0.0000
      4 O4        16.0315    8.0503    3.1724 O.2       1 RES1    0.0000
      5 N1        13.0048    5.3940    2.8439 N.pl3     1 RES1    0.0000
      6 N2        10.8089    6.2995    5.6285 N.pl3     1 RES1    0.0000
      7 N3        15.1951    8.0462    4.0828 N.pl3     1 RES1    0.0000
      8 N4        13.1785    1.5298   -1.2694 N.3       1 RES1    0.0000
      9 C1        11.8773    3.8366    1.3033 C.ar      1 RES1    0.0000
     10 C2        12.3337    8.8696    4.8232 C.ar      1 RES1    0.0000
     11 C3        13.0502    4.3951    1.8036 C.ar      1 RES1    0.0000
     12 C4        13.1316    2.4813   -0.2740 C.ar      1 RES1    0.0000
     13 C5        14.0195    6.3068    2.9915 C.2       1 RES1    0.0000
     14 C6        14.0246    7.2222    3.9754 C.2       1 RES1    0.0000
     15 C7        11.9697    5.4526    3.7491 C.2       1 RES1    0.0000
     16 C8        11.9184    2.9000    0.2975 C.ar      1 RES1    0.0000
     17 C9        12.4925    9.8114    5.8233 C.ar      1 RES1    0.0000
     18 C10       14.3010    3.0518    0.2487 C.ar      1 RES1    0.0000
     19 C11       11.9148    6.3785    4.7101 C.2       1 RES1    0.0000
     20 C12       14.4117    1.2913   -1.9811 C.3       1 RES1    0.0000
     21 C13       11.6582    9.2195    3.6589 C.ar      1 RES1    0.0000
     22 C14       12.9246    7.4610    4.9755 C.3       1 RES1    0.0000
     23 C15       11.1510   10.5008    3.5084 C.ar      1 RES1    0.0000
     24 C16       14.2603    3.9741    1.2757 C.ar      1 RES1    0.0000
     25 C17       11.9904   11.0879    5.6647 C.ar      1 RES1    0.0000
     26 C18       11.9620    1.0804   -1.9214 C.3       1 RES1    0.0000
     27 C19       11.3136   11.4346    4.5021 C.ar      1 RES1    0.0000
     28 H1        11.0385    4.1053    1.6600 H         1 RES1    0.0000
     29 H2        14.7435    6.2907    2.3763 H         1 RES1    0.0000
     30 H3        11.2709    4.8133    3.6882 H         1 RES1    0.0000
     31 H4        11.1043    2.5258   -0.0195 H         1 RES1    0.0000
     32 H5        12.9487    9.5790    6.6228 H         1 RES1    0.0000
     33 H6        15.1425    2.7981   -0.1132 H         1 RES1    0.0000
     34 H7        15.1169    1.0553   -1.3429 H         1 RES1    0.0000
     35 H8        14.6696    2.1014   -2.4688 H         1 RES1    0.0000
     36 H9        14.2867    0.5560   -2.6152 H         1 RES1    0.0000
     37 H10       11.5436    8.5805    2.9656 H         1 RES1    0.0000
     38 H11       13.2886    7.3527    5.9002 H         1 RES1    0.0000
     39 H12       10.6879   10.7341    2.7123 H         1 RES1    0.0000
     40 H13       15.0713    4.3231    1.6244 H         1 RES1    0.0000
     41 H14       12.1078   11.7326    6.3534 H         1 RES1    0.0000
     42 H15       11.2910    0.8601   -1.2430 H         1 RES1    0.0000
     43 H16       12.1548    0.2859   -2.4613 H         1 RES1    0.0000
     44 H17       11.6188    1.7928   -2.5004 H         1 RES1    0.0000
     45 H18       10.9659   12.3113    4.3953 H         1 RES1    0.0000
@<TRIPOS>BOND
     1    1    6 2
     2    2    6 2
     3    3    7 2
     4    4    7 2
     5    5   11 1
     6    6   19 1
     7    7   14 1
     8    8   12 1
     9    9   11 ar
    10   10   17 ar
    11   11   24 ar
    12   12   16 ar
    13   13    5 1
    14   14   13 2
    15   15    5 1
    16   16    9 ar
    17   17   25 ar
    18   18   12 ar
    19   19   15 2
    20   20    8 1
    21   21   10 ar
    22   22   10 1
    23   23   21 ar
    24   24   18 ar
    25   25   27 ar
    26   26    8 1
    27   27   23 ar
    28   28    9 1
    29   29   13 1
    30   30   15 1
    31   31   16 1
    32   32   17 1
    33   33   18 1
    34   34   20 1
    35   35   20 1
    36   36   20 1
    37   37   21 1
    38   38   22 1
    39   39   23 1
    40   40   24 1
    41   41   25 1
    42   42   26 1
    43   43   26 1
    44   44   26 1
    45   45   27 1
    46   14   22 1
    47   19   22 1
@<TRIPOS>SUBSTRUCTURE
     1 RES1 1

@<TRIPOS>CRYSIN
  13.4337   22.6936    5.7440  90.0000  90.0000  90.0000  33 1

