# MOL2 file generated by ConQuest
# Please check atom types

@<TRIPOS>MOLECULE
TOHWIW
    22    22     1
SMALL
NO_CHARGES
****
Generated from CSD

@<TRIPOS>ATOM
      1 O1         1.6632   -1.3145   17.7409 O.2       1 RES1    0.0000
      2 O2         0.8126    0.6132   18.3894 O.2       1 RES1    0.0000
      3 N1         2.2796    0.5430   16.7271 N.3       1 RES1    0.0000
      4 N2         1.5474   -0.0727   17.6532 N.pl3     1 RES1    0.0000
      5 C1         2.1586    1.9894   16.4841 C.3       1 RES1    0.0000
      6 C2         3.3946    2.2004   15.6201 C.3       1 RES1    0.0000
      7 C3         3.5329    0.8905   14.8292 C.3       1 RES1    0.0000
      8 C4         3.2009   -0.1827   15.8430 C.3       1 RES1    0.0000
      9 C5         0.8577    2.3265   15.7955 C.3       1 RES1    0.0000
     10 C6         4.4157   -0.7187   16.5901 C.3       1 RES1    0.0000
     11 H1         2.2377    2.4719   17.2988 H         1 RES1    0.0000
     12 H2         3.2723    2.9371   15.0319 H         1 RES1    0.0000
     13 H3         4.1615    2.3510   16.1590 H         1 RES1    0.0000
     14 H4         2.9223    0.8692   14.1021 H         1 RES1    0.0000
     15 H5         4.4182    0.7849   14.5040 H         1 RES1    0.0000
     16 H6         2.7428   -0.8982   15.4173 H         1 RES1    0.0000
     17 H7         0.8094    3.2646   15.6512 H         1 RES1    0.0000
     18 H8         0.8152    1.8749   14.9607 H         1 RES1    0.0000
     19 H9         0.1306    2.0524   16.3417 H         1 RES1    0.0000
     20 H10        4.1293   -1.3209   17.2678 H         1 RES1    0.0000
     21 H11        4.9857   -1.1748   15.9818 H         1 RES1    0.0000
     22 H12        4.8873    0.0032   16.9865 H         1 RES1    0.0000
@<TRIPOS>BOND
     1    1    4 2
     2    2    4 2
     3    3    4 1
     4    5    3 1
     5    6    5 1
     6    7    6 1
     7    8    3 1
     8    9    5 1
     9   10    8 1
    10   11    5 1
    11   12    6 1
    12   13    6 1
    13   14    7 1
    14   15    7 1
    15   16    8 1
    16   17    9 1
    17   18    9 1
    18   19    9 1
    19   20   10 1
    20   21   10 1
    21   22   10 1
    22    7    8 1
@<TRIPOS>SUBSTRUCTURE
     1 RES1 1

@<TRIPOS>CRYSIN
   6.4340    6.4340   18.2670  90.0000  90.0000  90.0000  76 1

