# MOL2 file generated by ConQuest
# Please check atom types

@<TRIPOS>MOLECULE
TOHYUK
    16    20     1
SMALL
NO_CHARGES
****
Generated from CSD

@<TRIPOS>ATOM
      1 C1         0.0432   -0.0579    9.4424 C.3       1 RES1    0.0000
      2 N1        -0.1321   -0.2118    8.0421 N.pl3     1 RES1    0.0000
      3 N2        -0.4323    0.8482    7.2943 N.pl3     1 RES1    0.0000
      4 O1        -0.6969    0.6644    6.1100 O.2       1 RES1    0.0000
      5 O2        -0.3970    1.9558    7.8426 O.2       1 RES1    0.0000
      6 C2        -1.0406    0.4012   10.4788 C.3       1 RES1    0.0000
      7 C3         1.1207    0.8137   10.1522 C.3       1 RES1    0.0000
      8 C4         0.4156   -1.2690   10.3403 C.3       1 RES1    0.0000
      9 C3B       -0.6664   -0.8137   11.3796 C.3       1 RES1    0.0000
     10 C1B        0.4110    0.0579   12.0894 C.3       1 RES1    0.0000
     11 N1B        0.5863    0.2118   13.4897 N.pl3     1 RES1    0.0000
     12 N2B        0.8866   -0.8482   14.2375 N.pl3     1 RES1    0.0000
     13 O1B        1.1511   -0.6644   15.4218 O.2       1 RES1    0.0000
     14 O2B        0.8512   -1.9558   13.6892 O.2       1 RES1    0.0000
     15 C2B        1.4949   -0.4012   11.0530 C.3       1 RES1    0.0000
     16 C4B        0.0387    1.2690   11.1915 C.3       1 RES1    0.0000
@<TRIPOS>BOND
     1    1    2 1
     2    2    3 1
     3    3    4 2
     4    5    3 2
     5    6    1 1
     6    7    1 1
     7    8    1 1
     8    9    6 1
     9   10    9 1
    10   11   10 1
    11   12   11 1
    12   13   12 2
    13   14   12 2
    14   15    7 1
    15   16    6 1
    16    7   16 1
    17    8   15 1
    18    8    9 1
    19   10   15 1
    20   10   16 1
@<TRIPOS>SUBSTRUCTURE
     1 RES1 1

@<TRIPOS>CRYSIN
   6.5451    9.3309    7.4589  90.0000 105.7950  90.0000  14 2

