# MOL2 file generated by ConQuest
# Please check atom types

@<TRIPOS>MOLECULE
TOHZEV
    40    44     1
SMALL
NO_CHARGES
****
Generated from CSD

@<TRIPOS>ATOM
      1 C1         2.7897    4.2727    6.5874 C.3       1 RES1    0.0000
      2 C2         1.5238    3.7221    7.3956 C.3       1 RES1    0.0000
      3 C3         3.3898    2.8343    6.5737 C.3       1 RES1    0.0000
      4 C4         3.4893    4.5645    7.9420 C.3       1 RES1    0.0000
      5 N1         2.8647    5.2497    5.5207 N.am      1 RES1    0.0000
      6 N2         1.9360    5.0740    4.4753 N.pl3     1 RES1    0.0000
      7 O1         1.9899    5.8079    3.5218 O.2       1 RES1    0.0000
      8 O2         1.1679    4.1491    4.5962 O.2       1 RES1    0.0000
      9 C5         4.1400    5.7558    5.1288 C.2       1 RES1    0.0000
     10 O3         5.0690    5.0527    5.7487 O.3       1 RES1    0.0000
     11 C6         6.4519    5.4145    5.5038 C.3       1 RES1    0.0000
     12 O4         4.3074    6.6799    4.3942 O.2       1 RES1    0.0000
     13 N3         0.1188    3.9761    7.2456 N.am      1 RES1    0.0000
     14 N4        -0.2483    5.2944    7.5930 N.pl3     1 RES1    0.0000
     15 O5        -1.4202    5.5072    7.8119 O.2       1 RES1    0.0000
     16 O6         0.6681    6.0888    7.6910 O.2       1 RES1    0.0000
     17 C7        -0.7563    3.3465    6.3043 C.2       1 RES1    0.0000
     18 O7        -0.4005    2.0880    6.1849 O.3       1 RES1    0.0000
     19 C8        -1.1253    1.3272    5.1916 C.3       1 RES1    0.0000
     20 O8        -1.6318    3.8978    5.7288 O.2       1 RES1    0.0000
     21 C3B        2.2688    4.0317    8.7317 C.3       1 RES1    0.0000
     22 C1B        2.8689    2.5933    8.7179 C.3       1 RES1    0.0000
     23 C2B        4.1348    3.1439    7.9098 C.3       1 RES1    0.0000
     24 N3B        5.5398    2.8899    8.0598 N.am      1 RES1    0.0000
     25 N4B        5.9069    1.5716    7.7124 N.pl3     1 RES1    0.0000
     26 O5B        7.0788    1.3588    7.4935 O.2       1 RES1    0.0000
     27 O6B        4.9905    0.7772    7.6144 O.2       1 RES1    0.0000
     28 C7B        6.4149    3.5195    9.0011 C.2       1 RES1    0.0000
     29 O7B        6.0591    4.7780    9.1205 O.3       1 RES1    0.0000
     30 C8B        6.7839    5.5388   10.1138 C.3       1 RES1    0.0000
     31 O8B        7.2904    2.9682    9.5766 O.2       1 RES1    0.0000
     32 C4B        2.1693    2.3015    7.3634 C.3       1 RES1    0.0000
     33 N1B        2.7939    1.6163    9.7847 N.am      1 RES1    0.0000
     34 N2B        3.7226    1.7920   10.8301 N.pl3     1 RES1    0.0000
     35 O1B        3.6687    1.0581   11.7836 O.2       1 RES1    0.0000
     36 O2B        4.4907    2.7169   10.7092 O.2       1 RES1    0.0000
     37 C5B        1.5186    1.1102   10.1766 C.2       1 RES1    0.0000
     38 O3B        0.5896    1.8133    9.5567 O.3       1 RES1    0.0000
     39 C6B       -0.7933    1.4515    9.8016 C.3       1 RES1    0.0000
     40 O4B        1.3512    0.1861   10.9112 O.2       1 RES1    0.0000
@<TRIPOS>BOND
     1    1    2 1
     2    2   13 1
     3    3    1 1
     4    4    1 1
     5    5    1 1
     6    6    5 1
     7    7    6 2
     8    8    6 2
     9    9    5 1
    10   10    9 1
    11   11   10 1
    12   12    9 2
    13   13   14 1
    14   14   15 2
    15   16   14 2
    16   17   13 1
    17   18   17 1
    18   19   18 1
    19   20   17 2
    20   21    2 1
    21   22   21 1
    22   23    3 1
    23   24   23 1
    24   25   24 1
    25   26   25 2
    26   27   25 2
    27   28   24 1
    28   29   28 1
    29   30   29 1
    30   31   28 2
    31   32    2 1
    32   33   22 1
    33   34   33 1
    34   35   34 2
    35   36   34 2
    36   37   33 1
    37   38   37 1
    38   39   38 1
    39   40   37 2
    40    3   32 1
    41    4   23 1
    42    4   21 1
    43   22   23 1
    44   22   32 1
@<TRIPOS>SUBSTRUCTURE
     1 RES1 1

@<TRIPOS>CRYSIN
  10.8660    6.8660   16.1670  90.0000 108.7900  90.0000  14 1

