# MOL2 file generated by ConQuest
# Please check atom types

@<TRIPOS>MOLECULE
TOKFOO
    53    49     2
SMALL
NO_CHARGES
****
Generated from CSD

@<TRIPOS>ATOM
      1 C1         1.6513    1.9774    1.6896 C.ar      1 RES1    0.0000
      2 C2         1.8728    3.0220    2.6087 C.ar      1 RES1    0.0000
      3 C3         1.4474    4.3030    2.3265 C.ar      1 RES1    0.0000
      4 C4         0.7622    4.5538    1.1269 C.ar      1 RES1    0.0000
      5 C5         0.5130    3.5794    0.2294 C.ar      1 RES1    0.0000
      6 C6         0.9814    2.2625    0.4785 C.ar      1 RES1    0.0000
      7 C7         0.7745    1.2395   -0.4719 C.ar      1 RES1    0.0000
      8 C8         1.2344   -0.0272   -0.2211 C.ar      1 RES1    0.0000
      9 C9         1.9066   -0.3281    0.9768 C.ar      1 RES1    0.0000
     10 C10        2.1027    0.6477    1.9206 C.ar      1 RES1    0.0000
     11 C11        2.6926    0.2594    3.2258 C.2       1 RES1    0.0000
     12 C12        1.7620   -0.3081    4.2950 C.3       1 RES1    0.0000
     13 C13        0.8991    0.4084    4.9880 C.3       1 RES1    0.0000
     14 C14        1.6243   -1.6974    4.2092 Du        2 SUP2    0.0000
     15 C15        4.9299    0.9242    2.5526 C.3       1 RES1    0.0000
     16 C16        5.6060    2.1465    3.1713 C.3       1 RES1    0.0000
     17 C17        5.9436   -0.1705    2.1846 C.3       1 RES1    0.0000
     18 C18        5.3429   -1.3082    1.4108 C.ar      1 RES1    0.0000
     19 C19        5.2745   -1.2409    0.0165 C.ar      1 RES1    0.0000
     20 C20        4.6369   -2.3012   -0.6848 C.ar      1 RES1    0.0000
     21 C21        4.1301   -3.3473    0.0297 C.ar      1 RES1    0.0000
     22 C22        4.2139   -3.4289    1.3596 C.ar      1 RES1    0.0000
     23 C23        4.8000   -2.4101    2.0592 C.ar      1 RES1    0.0000
     24 O1         4.4531    0.0072    4.6464 O.2       1 RES1    0.0000
     25 N1         3.9563    0.3754    3.5079 N.pl3     1 RES1    0.0000
     26 H1         2.3611    2.8228    3.5475 H         1 RES1    0.0000
     27 H2         1.6459    5.1011    3.0195 H         1 RES1    0.0000
     28 H3         0.4230    5.5597    0.9240 H         1 RES1    0.0000
     29 H4        -0.0231    3.7972   -0.6765 H         1 RES1    0.0000
     30 H5         0.2538    1.4472   -1.3860 H         1 RES1    0.0000
     31 H6         1.0767   -0.8024   -0.9570 H         1 RES1    0.0000
     32 H7         2.2612   -1.3326    1.1550 H         1 RES1    0.0000
     33 H8         2.4073   -0.7738    5.0160 H         1 RES1    0.0000
     34 H9         1.1767   -1.0603    3.7950 H         1 RES1    0.0000
     35 H10        0.7845    0.1433    4.1745 Du        2 SUP2    0.0000
     36 H11        2.2381   -0.0573    5.2635 Du        2 SUP2    0.0000
     37 H12        0.3692   -0.2436    5.6760 H         1 RES1    0.0000
     38 H13        0.1923    0.9457    4.3230 H         1 RES1    0.0000
     39 H14        1.4228    1.1750    5.5440 H         1 RES1    0.0000
     40 H15        0.9614   -2.0347    4.9830 Du        2 SUP2    0.0000
     41 H16        2.5919   -2.1637    4.9830 Du        2 SUP2    0.0000
     42 H17        1.2152   -1.9631    3.2505 Du        2 SUP2    0.0000
     43 H18        4.4377    1.2466    1.6500 H         1 RES1    0.0000
     44 H19        6.3297    2.5506    2.4750 H         1 RES1    0.0000
     45 H20        6.1067    1.8628    4.0920 H         1 RES1    0.0000
     46 H21        4.8607    2.8945    3.3825 H         1 RES1    0.0000
     47 H22        6.3758   -0.5588    3.0855 H         1 RES1    0.0000
     48 H23        6.7219    0.2723    1.5840 H         1 RES1    0.0000
     49 H24        5.6913   -0.4012   -0.5115 H         1 RES1    0.0000
     50 H25        4.5608   -2.2783   -1.7655 H         1 RES1    0.0000
     51 H26        3.6378   -4.1411   -0.5115 H         1 RES1    0.0000
     52 H27        3.8224   -4.2844    1.8810 H         1 RES1    0.0000
     53 H28        4.8530   -2.4646    3.1350 H         1 RES1    0.0000
@<TRIPOS>BOND
     1    1    2 ar
     2    2    3 ar
     3    3    4 ar
     4    4    5 ar
     5    5    6 ar
     6    6    1 ar
     7    7    6 ar
     8    8    7 ar
     9    9    8 ar
    10   10    1 ar
    11   11   10 1
    12   12   11 1
    13   13   12 1
    14   15   16 1
    15   16   44 1
    16   17   15 1
    17   18   17 1
    18   19   18 ar
    19   20   19 ar
    20   21   20 ar
    21   22   21 ar
    22   23   18 ar
    23   24   25 1
    24   25   11 2
    25   26    2 1
    26   27    3 1
    27   28    4 1
    28   29    5 1
    29   30    7 1
    30   31    8 1
    31   32    9 1
    32   33   12 1
    33   34   12 1
    34   37   13 1
    35   38   13 1
    36   39   13 1
    37   43   15 1
    38   45   16 1
    39   46   16 1
    40   47   17 1
    41   48   17 1
    42   49   19 1
    43   50   20 1
    44   51   21 1
    45   52   22 1
    46   53   23 1
    47    9   10 ar
    48   15   25 1
    49   22   23 ar
@<TRIPOS>SUBSTRUCTURE
     1 RES1 1
     2 SUP2 14

@<TRIPOS>CRYSIN
   7.6910   14.3290   16.5000  90.0000  90.0000  90.0000  19 1

