# MOL2 file generated by ConQuest
# Please check atom types

@<TRIPOS>MOLECULE
TOLCUU
    37    39     1
SMALL
NO_CHARGES
****
Generated from CSD

@<TRIPOS>ATOM
      1 N1        -1.3548    4.1906    6.0795 N.pl3     1 RES1    0.0000
      2 N2        -2.2756    3.4094    6.7381 N.2       1 RES1    0.0000
      3 N3        -3.1009    6.7236    1.3643 N.pl3     1 RES1    0.0000
      4 O1         2.4214    5.3311    4.2770 O.2       1 RES1    0.0000
      5 O2         1.0113    3.5790    4.2186 O.3       1 RES1    0.0000
      6 O3        -2.6637    7.8344    1.0957 O.2       1 RES1    0.0000
      7 O4        -3.9149    6.1345    0.6614 O.2       1 RES1    0.0000
      8 C1        -1.6076    2.8673    7.7485 C.2       1 RES1    0.0000
      9 C2        -0.2527    3.2696    7.7431 C.2       1 RES1    0.0000
     10 H1         0.4222    3.0092    8.3591 H         1 RES1    0.0000
     11 C3        -0.1098    4.1110    6.6697 C.2       1 RES1    0.0000
     12 C4        -1.7680    4.8412    4.8906 C.ar      1 RES1    0.0000
     13 C5        -2.8100    4.2739    4.1524 C.ar      1 RES1    0.0000
     14 H2        -3.2179    3.4672    4.4447 H         1 RES1    0.0000
     15 C6        -3.2451    4.8927    2.9930 C.ar      1 RES1    0.0000
     16 H3        -3.9570    4.5205    2.4862 H         1 RES1    0.0000
     17 C7        -2.6280    6.0596    2.5844 C.ar      1 RES1    0.0000
     18 C8        -1.6034    6.6468    3.3064 C.ar      1 RES1    0.0000
     19 H4        -1.2019    7.4543    3.0074 H         1 RES1    0.0000
     20 C9        -1.1733    6.0351    4.4738 C.ar      1 RES1    0.0000
     21 H5        -0.4770    6.4256    4.9887 H         1 RES1    0.0000
     22 C10       -2.2899    1.9439    8.7098 C.3       1 RES1    0.0000
     23 H6        -2.6222    2.4566    9.4762 H         1 RES1    0.0000
     24 H7        -1.6531    1.2677    9.0213 H         1 RES1    0.0000
     25 H8        -3.0414    1.5023    8.2617 H         1 RES1    0.0000
     26 C11        1.0991    4.8360    6.2061 C.3       1 RES1    0.0000
     27 C12        2.2204    5.0584    7.2271 C.3       1 RES1    0.0000
     28 H9         2.0815    4.7143    8.1453 H         1 RES1    0.0000
     29 H10        3.1540    5.0111    6.9027 H         1 RES1    0.0000
     30 C13        1.3929    6.2171    6.7903 C.3       1 RES1    0.0000
     31 H11        1.8160    6.8869    6.1968 H         1 RES1    0.0000
     32 H12        0.7445    6.5892    7.4394 H         1 RES1    0.0000
     33 C14        1.5900    4.6331    4.8110 C.2       1 RES1    0.0000
     34 C15        1.4034    3.3441    2.8457 C.3       1 RES1    0.0000
     35 H13        1.2689    4.1619    2.3224 H         1 RES1    0.0000
     36 H14        0.8581    2.6219    2.4689 H         1 RES1    0.0000
     37 H15        2.3491    3.0890    2.8155 H         1 RES1    0.0000
@<TRIPOS>BOND
     1    1    2 1
     2    2    8 2
     3    3    6 2
     4    4   33 2
     5    5   33 1
     6    7    3 2
     7    8    9 1
     8    9   10 1
     9   11    1 1
    10   12    1 1
    11   13   12 ar
    12   14   13 1
    13   15   13 ar
    14   16   15 1
    15   17    3 1
    16   18   17 ar
    17   19   18 1
    18   20   12 ar
    19   21   20 1
    20   22    8 1
    21   23   22 1
    22   24   22 1
    23   25   22 1
    24   26   11 1
    25   27   26 1
    26   28   27 1
    27   29   27 1
    28   30   26 1
    29   31   30 1
    30   32   30 1
    31   33   26 1
    32   34    5 1
    33   35   34 1
    34   36   34 1
    35   37   34 1
    36    9   11 2
    37   15   17 ar
    38   18   20 ar
    39   27   30 1
@<TRIPOS>SUBSTRUCTURE
     1 RES1 1

@<TRIPOS>CRYSIN
   8.5148    9.4180   10.3767 112.0230 103.8970  98.8460   2 1

