# MOL2 file generated by ConQuest
# Please check atom types

@<TRIPOS>MOLECULE
TOLHOR
    35    36     1
SMALL
NO_CHARGES
****
Generated from CSD

@<TRIPOS>ATOM
      1 C1         9.1738    2.0806    1.8018 C.3       1 RES1    0.0000
      2 H1         8.7325    1.8911    2.6564 H         1 RES1    0.0000
      3 C2        10.1893    3.2644    1.9424 C.3       1 RES1    0.0000
      4 H2        10.3011    3.5204    2.8710 H         1 RES1    0.0000
      5 H3        11.0535    3.0282    1.5717 H         1 RES1    0.0000
      6 C3         8.2403    3.9660    0.8235 C.3       1 RES1    0.0000
      7 C4         7.2757    4.5459    1.7987 C.3       1 RES1    0.0000
      8 H4         6.3818    4.3125    1.5412 H         1 RES1    0.0000
      9 H5         7.3662    5.5020    1.8087 H         1 RES1    0.0000
     10 H6         7.4581    4.1979    2.6745 H         1 RES1    0.0000
     11 C5         7.9928    4.4158   -0.6139 C.3       1 RES1    0.0000
     12 H7         7.0946    4.1895   -0.8695 H         1 RES1    0.0000
     13 H8         8.6123    3.9745   -1.1992 H         1 RES1    0.0000
     14 H9         8.1144    5.3662   -0.6779 H         1 RES1    0.0000
     15 C6         9.8018    0.7991    1.2048 C.3       1 RES1    0.0000
     16 H10        9.9602    0.8769    0.2407 H         1 RES1    0.0000
     17 C7        10.8117   -0.1414    1.8927 C.3       1 RES1    0.0000
     18 C8         9.3251   -0.5742    1.5985 C.3       1 RES1    0.0000
     19 C9        11.9432   -0.7256    1.1270 C.3       1 RES1    0.0000
     20 H11       12.4679   -1.2814    1.7067 H         1 RES1    0.0000
     21 H12       12.4920   -0.0184    0.7781 H         1 RES1    0.0000
     22 H13       11.6009   -1.2517    0.4018 H         1 RES1    0.0000
     23 C10        9.1597   -1.6223    0.5137 C.3       1 RES1    0.0000
     24 H14        9.7848   -1.4512   -0.1947 H         1 RES1    0.0000
     25 H15        8.2658   -1.5841    0.1667 H         1 RES1    0.0000
     26 H16        9.3237   -2.4936    0.8820 H         1 RES1    0.0000
     27 C11        8.3817   -0.7751    2.7410 C.3       1 RES1    0.0000
     28 H17        8.1936   -1.7114    2.8399 H         1 RES1    0.0000
     29 H18        7.5656   -0.3013    2.5681 H         1 RES1    0.0000
     30 H19        8.7820   -0.4413    3.5477 H         1 RES1    0.0000
     31 N1        11.1172    0.0537    3.3294 N.pl3     1 RES1    0.0000
     32 O1         9.5783    4.3068    1.1942 O.3       1 RES1    0.0000
     33 O2         8.2346    2.5091    0.8260 O.3       1 RES1    0.0000
     34 O3        11.8965   -0.7185    3.8282 O.2       1 RES1    0.0000
     35 O4        10.6108    0.9929    3.9346 O.2       1 RES1    0.0000
@<TRIPOS>BOND
     1    1    2 1
     2    3    1 1
     3    4    3 1
     4    5    3 1
     5    6    7 1
     6    7    8 1
     7    9    7 1
     8   10    7 1
     9   11    6 1
    10   12   11 1
    11   13   11 1
    12   14   11 1
    13   15    1 1
    14   16   15 1
    15   17   15 1
    16   18   15 1
    17   19   17 1
    18   20   19 1
    19   21   19 1
    20   22   19 1
    21   23   18 1
    22   24   23 1
    23   25   23 1
    24   26   23 1
    25   27   18 1
    26   28   27 1
    27   29   27 1
    28   30   27 1
    29   31   17 1
    30   32    3 1
    31   33    1 1
    32   34   31 2
    33   35   31 2
    34    6   32 1
    35    6   33 1
    36   17   18 1
@<TRIPOS>SUBSTRUCTURE
     1 RES1 1

@<TRIPOS>CRYSIN
  14.1440   14.1440    6.2197  90.0000  90.0000  90.0000  76 1

