# MOL2 file generated by ConQuest
# Please check atom types

@<TRIPOS>MOLECULE
TOLKEK03
    24    24     1
SMALL
NO_CHARGES
****
Generated from CSD

@<TRIPOS>ATOM
      1 O1         0.3866    7.8018    0.3842 O.2       1 RES1    0.0000
      2 O2         1.0715    4.6772    3.6775 O.2       1 RES1    0.0000
      3 N1         0.7729    7.2670    1.4763 N.3       1 RES1    0.0000
      4 N2         1.1332    5.7671    3.0242 N.pl3     1 RES1    0.0000
      5 C1         0.5834    6.0052    1.8406 C.2       1 RES1    0.0000
      6 C2         1.9979    6.9231    3.4587 C.3       1 RES1    0.0000
      7 C3         1.3898    8.0710    2.5988 C.3       1 RES1    0.0000
      8 C4         1.8871    7.1140    4.9521 C.3       1 RES1    0.0000
      9 H1         0.9625    7.1980    5.1963 H         1 RES1    0.0000
     10 H2         2.3589    7.9099    5.2084 H         1 RES1    0.0000
     11 H3         2.2703    6.3572    5.4012 H         1 RES1    0.0000
     12 C5         3.4207    6.5538    3.0648 C.3       1 RES1    0.0000
     13 H4         3.6831    5.7545    3.5272 H         1 RES1    0.0000
     14 H5         4.0146    7.2693    3.3024 H         1 RES1    0.0000
     15 H6         3.4616    6.4043    2.1176 H         1 RES1    0.0000
     16 C6         0.2428    8.7990    3.2769 C.3       1 RES1    0.0000
     17 H7         0.5820    9.3097    4.0163 H         1 RES1    0.0000
     18 H8        -0.3979    8.1595    3.5963 H         1 RES1    0.0000
     19 H9        -0.1781    9.3879    2.6472 H         1 RES1    0.0000
     20 C7         2.3897    9.0601    2.0521 C.3       1 RES1    0.0000
     21 H10        3.0622    8.5908    1.5515 H         1 RES1    0.0000
     22 H11        2.8026    9.5317    2.7788 H         1 RES1    0.0000
     23 H12        1.9405    9.6847    1.4788 H         1 RES1    0.0000
     24 H13        0.1317    5.3944    1.2909 H         1 RES1    0.0000
@<TRIPOS>BOND
     1    1    3 1
     2    2    4 1
     3    3    5 1
     4    4    5 2
     5    5   24 1
     6    6    4 1
     7    7    3 1
     8    8    6 1
     9    9    8 1
    10   10    8 1
    11   11    8 1
    12   12    6 1
    13   13   12 1
    14   14   12 1
    15   15   12 1
    16   16    7 1
    17   17   16 1
    18   18   16 1
    19   19   16 1
    20   20    7 1
    21   21   20 1
    22   22   20 1
    23   23   20 1
    24    6    7 1
@<TRIPOS>SUBSTRUCTURE
     1 RES1 1

@<TRIPOS>CRYSIN
  11.7410   11.5020    6.2510  90.0000 104.1800  90.0000 231 1

