# MOL2 file generated by ConQuest
# Please check atom types

@<TRIPOS>MOLECULE
TOLXUO
    49    52     1
SMALL
NO_CHARGES
****
Generated from CSD

@<TRIPOS>ATOM
      1 O1         8.6220    4.9170    0.4682 O.3       1 RES1    0.0000
      2 O2        11.1942    6.4407    1.0947 O.3       1 RES1    0.0000
      3 H1        11.5912    6.9760    1.6953 H         1 RES1    0.0000
      4 O3         8.8868    2.6618    2.0423 O.3       1 RES1    0.0000
      5 H2         8.2247    2.6057    1.5483 H         1 RES1    0.0000
      6 O4        12.7744    2.3377    3.5636 O.3       1 RES1    0.0000
      7 O5         2.9586    5.7141    1.6426 O.2       1 RES1    0.0000
      8 O6         6.6644    8.1756    0.8724 O.2       1 RES1    0.0000
      9 N1        11.7677    2.0184    2.6205 N.2       1 RES1    0.0000
     10 N2         6.9467    6.0267    1.6527 N.am      1 RES1    0.0000
     11 N3         4.8406    6.9245    1.3619 N.am      1 RES1    0.0000
     12 H3         4.3346    7.6194    1.1721 H         1 RES1    0.0000
     13 C1        11.1930    3.0922    2.2118 C.2       1 RES1    0.0000
     14 C2        11.5344    4.4982    2.5722 C.3       1 RES1    0.0000
     15 H4        12.4729    4.7032    2.3286 H         1 RES1    0.0000
     16 H5        11.4169    4.6491    3.5433 H         1 RES1    0.0000
     17 C3        10.5681    5.3663    1.7717 C.3       1 RES1    0.0000
     18 C4         9.3212    5.8460    2.5026 C.3       1 RES1    0.0000
     19 H6         8.9896    5.1673    3.1425 H         1 RES1    0.0000
     20 H7         9.4845    6.6972    2.9820 H         1 RES1    0.0000
     21 C5         8.3621    6.0334    1.3361 C.3       1 RES1    0.0000
     22 H8         8.5885    6.8819    0.8566 H         1 RES1    0.0000
     23 C6         9.9634    4.4359    0.6950 C.3       1 RES1    0.0000
     24 H9        10.4972    4.4948   -0.1493 H         1 RES1    0.0000
     25 C7        10.0248    3.0001    1.2631 C.3       1 RES1    0.0000
     26 H10       10.1896    2.3269    0.5423 H         1 RES1    0.0000
     27 C8        13.5443    1.1726    3.8476 C.3       1 RES1    0.0000
     28 H11       14.4039    1.4541    4.2518 H         1 RES1    0.0000
     29 H12       13.7524    0.7172    2.9932 H         1 RES1    0.0000
     30 C9        12.8809    0.1766    4.7739 C.ar      1 RES1    0.0000
     31 C10       13.5693   -0.9973    5.0545 C.ar      1 RES1    0.0000
     32 H13       14.4330   -1.1388    4.6874 H         1 RES1    0.0000
     33 C11       13.0025   -1.9541    5.8629 C.ar      1 RES1    0.0000
     34 H14       13.4684   -2.7613    6.0448 H         1 RES1    0.0000
     35 C12       11.7481   -1.7342    6.4108 C.ar      1 RES1    0.0000
     36 H15       11.3580   -2.3905    6.9778 H         1 RES1    0.0000
     37 C13       11.0692   -0.5846    6.1436 C.ar      1 RES1    0.0000
     38 H16       10.2053   -0.4472    6.5141 H         1 RES1    0.0000
     39 C14       11.6391    0.3938    5.3251 C.ar      1 RES1    0.0000
     40 H17       11.1716    1.2024    5.1500 H         1 RES1    0.0000
     41 C15        6.3518    4.8859    2.1455 C.2       1 RES1    0.0000
     42 H18        6.9163    4.1815    2.4419 H         1 RES1    0.0000
     43 C16        5.0288    4.7052    2.2342 C.2       1 RES1    0.0000
     44 C17        4.1761    5.7682    1.7301 C.2       1 RES1    0.0000
     45 C18        6.1904    7.1153    1.2597 C.2       1 RES1    0.0000
     46 C19        4.3744    3.4609    2.7013 C.3       1 RES1    0.0000
     47 H19        3.8512    3.0719    1.9693 H         1 RES1    0.0000
     48 H20        3.7807    3.6666    3.4535 H         1 RES1    0.0000
     49 H21        5.0579    2.8208    2.9910 H         1 RES1    0.0000
@<TRIPOS>BOND
     1    1   21 1
     2    2    3 1
     3    4    5 1
     4    6    9 1
     5    7   44 2
     6    8   45 2
     7    9   13 2
     8   10   21 1
     9   11   12 1
    10   13   14 1
    11   14   15 1
    12   16   14 1
    13   17    2 1
    14   18   17 1
    15   19   18 1
    16   20   18 1
    17   21   18 1
    18   22   21 1
    19   23    1 1
    20   24   23 1
    21   25    4 1
    22   26   25 1
    23   27    6 1
    24   28   27 1
    25   29   27 1
    26   30   27 1
    27   31   30 ar
    28   32   31 1
    29   33   31 ar
    30   34   33 1
    31   35   33 ar
    32   36   35 1
    33   37   35 ar
    34   38   37 1
    35   39   30 ar
    36   40   39 1
    37   41   10 1
    38   42   41 1
    39   43   41 2
    40   44   11 1
    41   45   10 1
    42   46   43 1
    43   47   46 1
    44   48   46 1
    45   49   46 1
    46   11   45 1
    47   13   25 1
    48   14   17 1
    49   17   23 1
    50   23   25 1
    51   37   39 ar
    52   43   44 1
@<TRIPOS>SUBSTRUCTURE
     1 RES1 1

@<TRIPOS>CRYSIN
  11.7411    6.7662   12.1812  90.0000 112.8250  90.0000   4 1

