# MOL2 file generated by ConQuest
# Please check atom types

@<TRIPOS>MOLECULE
TOMCOP
    22    24     1
SMALL
NO_CHARGES
****
Generated from CSD

@<TRIPOS>ATOM
      1 C1         1.7144    4.4128    0.9182 C.ar      1 RES1    0.0000
      2 C2         2.8502    5.0226    0.4172 C.ar      1 RES1    0.0000
      3 H1         2.8502    5.9385    0.2553 H         1 RES1    0.0000
      4 C3         3.9891    4.2763    0.1552 C.ar      1 RES1    0.0000
      5 H2         4.7491    4.6980   -0.1751 H         1 RES1    0.0000
      6 C4         4.0053    2.9172    0.3789 C.ar      1 RES1    0.0000
      7 H3         4.7705    2.4213    0.1957 H         1 RES1    0.0000
      8 C5         2.8789    2.3024    0.8770 C.ar      1 RES1    0.0000
      9 H4         2.8951    1.3850    1.0271 H         1 RES1    0.0000
     10 C6         1.7017    3.0198    1.1662 C.ar      1 RES1    0.0000
     11 C7         0.5601    2.2541    1.6084 C.2       1 RES1    0.0000
     12 H5         0.6531    1.3302    1.5797 H         1 RES1    0.0000
     13 C8        -0.6194    2.7134    2.0565 C.2       1 RES1    0.0000
     14 C9        -1.7953    1.9046    2.3758 C.2       1 RES1    0.0000
     15 C10       -1.0377    4.0556    2.3280 C.2       1 RES1    0.0000
     16 C11       -0.1431    5.2441    2.2375 C.3       1 RES1    0.0000
     17 H6        -0.6765    6.0531    2.2787 H         1 RES1    0.0000
     18 H7         0.4679    5.2485    2.9909 H         1 RES1    0.0000
     19 N1        -2.2564    4.1413    2.7238 N.2       1 RES1    0.0000
     20 O1         0.6047    5.2254    1.0168 O.3       1 RES1    0.0000
     21 O2        -2.7794    2.7917    2.7496 O.3       1 RES1    0.0000
     22 O3        -2.0168    0.7274    2.3250 O.2       1 RES1    0.0000
@<TRIPOS>BOND
     1    1    2 ar
     2    2    3 1
     3    4    2 ar
     4    5    4 1
     5    6    4 ar
     6    7    6 1
     7    8    6 ar
     8    9    8 1
     9   10    1 ar
    10   11   10 1
    11   12   11 1
    12   13   11 2
    13   14   13 1
    14   15   13 1
    15   16   15 1
    16   17   16 1
    17   18   16 1
    18   19   15 2
    19   20    1 1
    20   21   14 1
    21   22   14 2
    22    8   10 ar
    23   16   20 1
    24   19   21 1
@<TRIPOS>SUBSTRUCTURE
     1 RES1 1

@<TRIPOS>CRYSIN
  19.4953   24.9100    7.3577  90.0000  90.0000  90.0000  43 1

