# MOL2 file generated by ConQuest
# Please check atom types

@<TRIPOS>MOLECULE
TOMXID
    34    34     1
SMALL
NO_CHARGES
****
Generated from CSD

@<TRIPOS>ATOM
      1 O1         2.4588    7.4666   20.9554 O.2       1 RES1    0.0000
      2 N1         2.4493    8.4486   20.2201 N.pl3     1 RES1    0.0000
      3 O2         5.3112    7.3054   16.9527 O.2       1 RES1    0.0000
      4 C1         3.0078    6.7007   16.8325 C.3       1 RES1    0.0000
      5 H1         2.3730    7.3347   16.4363 H         1 RES1    0.0000
      6 C2         2.9141    6.8320   18.3567 C.3       1 RES1    0.0000
      7 H2         3.7810    6.6197   18.7613 H         1 RES1    0.0000
      8 O3         2.3685    9.6041   20.6113 O.2       1 RES1    0.0000
      9 O4         2.5709    4.6551   15.5397 O.2       1 RES1    0.0000
     10 C3         4.5032    6.8711   14.7444 C.3       1 RES1    0.0000
     11 H3         3.7221    7.2818   14.3410 H         1 RES1    0.0000
     12 H4         4.4959    5.9307   14.5060 H         1 RES1    0.0000
     13 C4         2.5020    8.2411   18.7344 C.3       1 RES1    0.0000
     14 H5         3.1322    8.8696   18.3498 H         1 RES1    0.0000
     15 H6         1.6284    8.4275   18.3581 H         1 RES1    0.0000
     16 C5         5.7609    7.4268   12.6209 C.3       1 RES1    0.0000
     17 H7         4.8739    7.6876   12.2959 H         1 RES1    0.0000
     18 C6         5.7503    7.5129   14.1505 C.3       1 RES1    0.0000
     19 H8         6.5376    7.0680   14.5018 H         1 RES1    0.0000
     20 H9         5.7895    8.4441   14.4183 H         1 RES1    0.0000
     21 O5         1.8857    4.8044   17.6454 O.3       1 RES1    0.0000
     22 C7         4.3900    6.9879   16.2380 C.2       1 RES1    0.0000
     23 C8         2.4952    5.2923   16.5560 C.2       1 RES1    0.0000
     24 C9         1.8880    5.7625   18.7379 C.3       1 RES1    0.0000
     25 H10        2.1392    5.3309   19.5698 H         1 RES1    0.0000
     26 H11        1.0088    6.1579   18.8470 H         1 RES1    0.0000
     27 C10        6.0374    6.0137   12.1515 C.3       1 RES1    0.0000
     28 H12        5.3841    5.4180   12.5256 H         1 RES1    0.0000
     29 H13        6.9144    5.7470   12.4358 H         1 RES1    0.0000
     30 H14        5.9880    5.9795   11.1929 H         1 RES1    0.0000
     31 C11        6.7820    8.3845   12.0291 C.3       1 RES1    0.0000
     32 H15        6.5914    9.2774   12.3251 H         1 RES1    0.0000
     33 H16        6.7372    8.3476   11.0717 H         1 RES1    0.0000
     34 H17        7.6618    8.1328   12.3188 H         1 RES1    0.0000
@<TRIPOS>BOND
     1    1    2 2
     2    2    8 2
     3    3   22 2
     4    4    5 1
     5    6    4 1
     6    7    6 1
     7    9   23 2
     8   10   11 1
     9   12   10 1
    10   13    2 1
    11   14   13 1
    12   15   13 1
    13   16   17 1
    14   18   10 1
    15   19   18 1
    16   20   18 1
    17   21   23 1
    18   22    4 1
    19   23    4 1
    20   24    6 1
    21   25   24 1
    22   26   24 1
    23   27   16 1
    24   28   27 1
    25   29   27 1
    26   30   27 1
    27   31   16 1
    28   32   31 1
    29   33   31 1
    30   34   31 1
    31    6   13 1
    32   10   22 1
    33   16   18 1
    34   21   24 1
@<TRIPOS>SUBSTRUCTURE
     1 RES1 1

@<TRIPOS>CRYSIN
   5.6073   10.3774   20.8900  90.0000  90.0000  90.0000  19 1

