# MOL2 file generated by ConQuest
# Please check atom types

@<TRIPOS>MOLECULE
TOPYUU
    37    38     1
SMALL
NO_CHARGES
****
Generated from CSD

@<TRIPOS>ATOM
      1 O1         1.8466    5.3184    5.7761 O.2       1 RES1    0.0000
      2 O2         3.3236    3.4187    7.7960 O.2       1 RES1    0.0000
      3 O3         5.0612    5.4130    5.5664 O.2       1 RES1    0.0000
      4 O4         6.5260   11.8262    7.5856 O.2       1 RES1    0.0000
      5 O5         6.3686   11.5033    9.7000 O.2       1 RES1    0.0000
      6 N1         2.8275    4.7090    3.8258 N.am      1 RES1    0.0000
      7 H1         3.0518    4.9959    3.0248 H         1 RES1    0.0000
      8 N2         4.3665    5.9022    7.6847 N.am      1 RES1    0.0000
      9 H2         3.9469    5.5641    8.3810 H         1 RES1    0.0000
     10 N3         6.2742   11.1161    8.5414 N.pl3     1 RES1    0.0000
     11 C1         3.2447    3.3992    4.1674 C.ar      1 RES1    0.0000
     12 C2         3.5229    2.9594    5.4703 C.ar      1 RES1    0.0000
     13 C3         3.7924    1.5977    5.6628 C.ar      1 RES1    0.0000
     14 H3         3.9326    1.2765    6.5459 H         1 RES1    0.0000
     15 C4         3.8619    0.7115    4.6127 C.ar      1 RES1    0.0000
     16 H4         4.0348   -0.2092    4.7721 H         1 RES1    0.0000
     17 C5         3.6753    1.1762    3.3192 C.ar      1 RES1    0.0000
     18 H5         3.7740    0.5854    2.5823 H         1 RES1    0.0000
     19 C6         3.3444    2.5033    3.1050 C.ar      1 RES1    0.0000
     20 H6         3.1834    2.8074    2.2191 H         1 RES1    0.0000
     21 C7         2.1233    5.5641    4.5957 C.2       1 RES1    0.0000
     22 C8         1.7202    6.8535    3.9409 C.3       1 RES1    0.0000
     23 H7         0.7988    7.0734    4.1928 H         1 RES1    0.0000
     24 H8         1.7781    6.7565    2.9673 H         1 RES1    0.0000
     25 H9         2.3199    7.5704    4.2344 H         1 RES1    0.0000
     26 C9         3.6485    3.8068    6.6931 C.2       1 RES1    0.0000
     27 C10        4.4194    5.1404    6.5780 C.2       1 RES1    0.0000
     28 C11        4.9205    7.1963    7.8366 C.ar      1 RES1    0.0000
     29 C12        5.1423    7.6416    9.1377 C.ar      1 RES1    0.0000
     30 H10        4.9794    7.0562    9.8679 H         1 RES1    0.0000
     31 C13        5.5954    8.9191    9.3773 C.ar      1 RES1    0.0000
     32 H11        5.7458    9.2253   10.2642 H         1 RES1    0.0000
     33 C14        5.8269    9.7493    8.2923 C.ar      1 RES1    0.0000
     34 C15        5.6620    9.3180    6.9959 C.ar      1 RES1    0.0000
     35 H12        5.8619    9.8980    6.2704 H         1 RES1    0.0000
     36 C16        5.2019    8.0318    6.7554 C.ar      1 RES1    0.0000
     37 H13        5.0815    7.7224    5.8647 H         1 RES1    0.0000
@<TRIPOS>BOND
     1    1   21 2
     2    2   26 2
     3    3   27 2
     4    4   10 2
     5    5   10 2
     6    6    7 1
     7    8    9 1
     8   10   33 1
     9   11    6 1
    10   12   11 ar
    11   13   12 ar
    12   14   13 1
    13   15   13 ar
    14   16   15 1
    15   17   15 ar
    16   18   17 1
    17   19   11 ar
    18   20   19 1
    19   21    6 1
    20   22   21 1
    21   23   22 1
    22   24   22 1
    23   25   22 1
    24   26   12 1
    25   27    8 1
    26   28    8 1
    27   29   28 ar
    28   30   29 1
    29   31   29 ar
    30   32   31 1
    31   33   31 ar
    32   34   33 ar
    33   35   34 1
    34   36   28 ar
    35   37   36 1
    36   17   19 ar
    37   26   27 1
    38   34   36 ar
@<TRIPOS>SUBSTRUCTURE
     1 RES1 1

@<TRIPOS>CRYSIN
   7.3289   10.7810   10.0984  90.0000 110.8860  90.0000   7 1

