# MOL2 file generated by ConQuest
# Please check atom types

@<TRIPOS>MOLECULE
TOQMUH01
    15    15     1
SMALL
USER_CHARGES
****
Generated from CSD

@<TRIPOS>ATOM
      1 O1         7.1574   -0.7080    2.5794 O.2       1 RES1    0.0000
      2 O2         5.5331    0.1567    1.4479 O.2       1 RES1   -1.0000
      3 N1         4.9160    0.2553    5.7951 N.pl3     1 RES1    1.0000
      4 N2         5.3389    0.1898    3.6067 N.2       1 RES1    0.0000
      5 N3         6.0585   -0.1372    2.5290 N.pl3     1 RES1    0.0000
      6 C1         5.8203   -0.1026    4.8446 C.ar      1 RES1    0.0000
      7 C2         7.0235   -0.6705    5.3039 C.ar      1 RES1    0.0000
      8 C3         7.2241   -0.8404    6.6483 C.ar      1 RES1    0.0000
      9 C4         6.2551   -0.4667    7.5854 C.ar      1 RES1    0.0000
     10 C5         5.1070    0.0846    7.1136 C.ar      1 RES1    0.0000
     11 H1         7.6925   -0.9298    4.6825 H         1 RES1    0.0000
     12 H2         8.0335   -1.2270    6.9580 H         1 RES1    0.0000
     13 H3         6.3929   -0.5929    8.5165 H         1 RES1    0.0000
     14 H4         4.4295    0.3542    7.7254 H         1 RES1    0.0000
     15 H5         4.1786    0.7356    5.4483 H         1 RES1    0.0000
@<TRIPOS>BOND
     1    1    5 2
     2    2    5 1
     3    3    6 ar
     4    4    5 2
     5    6    4 1
     6    7    6 ar
     7    8    7 ar
     8    9    8 ar
     9   10    3 ar
    10   11    7 1
    11   12    8 1
    12   13    9 1
    13   14   10 1
    14   15    3 1
    15    9   10 ar
@<TRIPOS>SUBSTRUCTURE
     1 RES1 1

