# MOL2 file generated by ConQuest
# Please check atom types

@<TRIPOS>MOLECULE
TORMUJ
    50    52     1
SMALL
NO_CHARGES
****
Generated from CSD

@<TRIPOS>ATOM
      1 N1         0.6361    4.6351    4.7167 N.pl3     1 RES1    0.0000
      2 N2        -3.1810    5.8213    1.9850 N.1       1 RES1    0.0000
      3 N3        -3.8953    8.4486    5.1835 N.1       1 RES1    0.0000
      4 N4         1.7712    9.7865    2.0734 N.1       1 RES1    0.0000
      5 N5        -0.3980    6.6337    0.2295 N.1       1 RES1    0.0000
      6 O1         1.6297    4.9382    5.3468 O.2       1 RES1    0.0000
      7 O2         0.1447    3.5323    4.7216 O.2       1 RES1    0.0000
      8 C1         0.9366    6.7311    3.4119 C.3       1 RES1    0.0000
      9 H1         1.2510    7.2146    4.2038 H         1 RES1    0.0000
     10 C2        -0.0746    5.6930    3.8928 C.3       1 RES1    0.0000
     11 H2        -0.4590    5.2554    3.1036 H         1 RES1    0.0000
     12 C3        -1.2300    6.2430    4.7436 C.3       1 RES1    0.0000
     13 H3        -1.8369    5.4962    4.9251 H         1 RES1    0.0000
     14 C4        -2.0016    7.2568    3.8295 C.3       1 RES1    0.0000
     15 C5        -1.0605    8.3689    3.2755 C.3       1 RES1    0.0000
     16 H4        -0.6786    8.7943    4.0711 H         1 RES1    0.0000
     17 C6         0.1656    7.7702    2.5150 C.3       1 RES1    0.0000
     18 C7        -2.6795    6.4744    2.7573 C.1       1 RES1    0.0000
     19 C8        -3.0783    7.9220    4.6122 C.1       1 RES1    0.0000
     20 C9         1.0832    8.9133    2.2376 C.1       1 RES1    0.0000
     21 C10       -0.1708    7.1481    1.2149 C.1       1 RES1    0.0000
     22 C11       -1.7773    9.4839    2.5454 C.ar      1 RES1    0.0000
     23 C12       -2.4498    9.3115    1.3570 C.ar      1 RES1    0.0000
     24 H5        -2.4643    8.4767    0.9461 H         1 RES1    0.0000
     25 C13       -3.1104   10.3890    0.7693 C.ar      1 RES1    0.0000
     26 H6        -3.5746   10.2700   -0.0278 H         1 RES1    0.0000
     27 C14       -3.0758   11.6221    1.3622 C.ar      1 RES1    0.0000
     28 H7        -3.4950   12.3444    0.9525 H         1 RES1    0.0000
     29 C15       -2.4347   11.7945    2.5431 C.ar      1 RES1    0.0000
     30 H8        -2.4414   12.6255    2.9602 H         1 RES1    0.0000
     31 C16       -1.7732   10.7385    3.1214 C.ar      1 RES1    0.0000
     32 H9        -1.3135   10.8715    3.9191 H         1 RES1    0.0000
     33 C17        2.1565    6.1305    2.7462 C.ar      1 RES1    0.0000
     34 C18        3.3906    6.6815    2.9915 C.ar      1 RES1    0.0000
     35 H10        3.4591    7.4367    3.5296 H         1 RES1    0.0000
     36 C19        4.5180    6.1305    2.4527 C.ar      1 RES1    0.0000
     37 H11        5.3431    6.5250    2.6220 H         1 RES1    0.0000
     38 C20        4.4602    5.0174    1.6719 C.ar      1 RES1    0.0000
     39 H12        5.2378    4.6361    1.3335 H         1 RES1    0.0000
     40 C21        3.2377    4.4665    1.3939 C.ar      1 RES1    0.0000
     41 H13        3.1827    3.7216    0.8391 H         1 RES1    0.0000
     42 C22        2.0840    5.0090    1.9317 C.ar      1 RES1    0.0000
     43 H14        1.2590    4.6211    1.7466 H         1 RES1    0.0000
     44 C23       -0.8255    6.8407    6.1062 C.3       1 RES1    0.0000
     45 H15        0.1244    6.7030    6.2437 H         1 RES1    0.0000
     46 H16       -0.9886    7.7964    6.0960 H         1 RES1    0.0000
     47 C24       -1.5845    6.2242    7.2486 C.3       1 RES1    0.0000
     48 H17       -2.5227    6.3929    7.1384 H         1 RES1    0.0000
     49 H18       -1.2856    6.6093    8.0759 H         1 RES1    0.0000
     50 H19       -1.4289    5.2770    7.2625 H         1 RES1    0.0000
@<TRIPOS>BOND
     1    1    6 2
     2    2   18 3
     3    3   19 3
     4    4   20 3
     5    5   21 3
     6    7    1 2
     7    8    9 1
     8   10    1 1
     9   11   10 1
    10   12   10 1
    11   13   12 1
    12   14   12 1
    13   15   14 1
    14   16   15 1
    15   17    8 1
    16   18   14 1
    17   19   14 1
    18   20   17 1
    19   21   17 1
    20   22   15 1
    21   23   22 ar
    22   24   23 1
    23   25   23 ar
    24   26   25 1
    25   27   25 ar
    26   28   27 1
    27   29   27 ar
    28   30   29 1
    29   31   22 ar
    30   32   31 1
    31   33    8 1
    32   34   33 ar
    33   35   34 1
    34   36   34 ar
    35   37   36 1
    36   38   36 ar
    37   39   38 1
    38   40   38 ar
    39   41   40 1
    40   42   33 ar
    41   43   42 1
    42   44   12 1
    43   45   44 1
    44   46   44 1
    45   47   44 1
    46   48   47 1
    47   49   47 1
    48   50   47 1
    49    8   10 1
    50   15   17 1
    51   29   31 ar
    52   40   42 ar
@<TRIPOS>SUBSTRUCTURE
     1 RES1 1

@<TRIPOS>CRYSIN
  11.0206    9.3696   21.9015  90.0000 102.2310  90.0000 231 1

