# MOL2 file generated by ConQuest
# Please check atom types

@<TRIPOS>MOLECULE
TOSDAG
    47    51     1
SMALL
NO_CHARGES
****
Generated from CSD

@<TRIPOS>ATOM
      1 O1         3.7170    0.6878   13.2334 O.3       1 RES1    0.0000
      2 O2         7.1209    0.0197   12.0662 O.3       1 RES1    0.0000
      3 N1         4.0263    0.1548   14.5604 N.3       1 RES1    0.0000
      4 C1         4.0215   -0.3242   12.2677 C.3       1 RES1    0.0000
      5 C2         5.1230   -1.1439   12.8982 C.3       1 RES1    0.0000
      6 C3         4.4342    0.3325   10.9737 C.3       1 RES1    0.0000
      7 C4         5.2900   -0.5424   14.2982 C.3       1 RES1    0.0000
      8 C5         2.9201   -0.7273   14.9721 C.3       1 RES1    0.0000
      9 C6         1.6128   -0.0249   14.8731 C.3       1 RES1    0.0000
     10 C7         3.1772   -1.2042   16.3685 C.ar      1 RES1    0.0000
     11 C8         2.8224   -2.5559   16.7125 C.ar      1 RES1    0.0000
     12 C9         3.0007   -2.9830   18.0134 C.ar      1 RES1    0.0000
     13 C10        3.5567   -2.2058   18.9635 C.ar      1 RES1    0.0000
     14 C11        3.8859   -0.8572   18.6474 C.ar      1 RES1    0.0000
     15 C12        3.7066   -0.4218   17.3516 C.ar      1 RES1    0.0000
     16 C13        6.4189    0.4353   14.3433 C.ar      1 RES1    0.0000
     17 C14        6.6475    1.1710   15.4931 C.ar      1 RES1    0.0000
     18 C15        7.6636    2.1383   15.5592 C.ar      1 RES1    0.0000
     19 C16        8.4596    2.3575   14.4458 C.ar      1 RES1    0.0000
     20 C17        8.2584    1.6084   13.2873 C.ar      1 RES1    0.0000
     21 C18        7.2490    0.6452   13.2664 C.ar      1 RES1    0.0000
     22 C19        6.3904   -1.2271   12.0923 C.3       1 RES1    0.0000
     23 C20        6.1163   -1.5159   10.6107 C.3       1 RES1    0.0000
     24 C21        4.9996   -0.6857   10.0098 C.3       1 RES1    0.0000
     25 H1         3.1212   -0.6234   11.9672 H         1 RES1    0.0000
     26 H2         4.9238   -1.8494   13.0094 H         1 RES1    0.0000
     27 H3         5.1325    0.8935   11.1335 H         1 RES1    0.0000
     28 H4         3.6051    0.7377   10.5430 H         1 RES1    0.0000
     29 H5         5.2937   -0.9974   15.1284 H         1 RES1    0.0000
     30 H6         2.9599   -1.2156   14.4510 H         1 RES1    0.0000
     31 H7         1.4705    0.2909   13.9126 H         1 RES1    0.0000
     32 H8         0.9392   -0.5818   15.1631 H         1 RES1    0.0000
     33 H9         1.5559    0.6650   15.4584 H         1 RES1    0.0000
     34 H10        2.1535   -3.0858   15.9100 H         1 RES1    0.0000
     35 H11        2.7038   -3.8443   18.2374 H         1 RES1    0.0000
     36 H12        3.5102   -2.5040   20.0091 H         1 RES1    0.0000
     37 H13        4.2122   -0.2597   19.3143 H         1 RES1    0.0000
     38 H14        4.0794    0.2286   17.0911 H         1 RES1    0.0000
     39 H15        6.1001    1.0182   16.2748 H         1 RES1    0.0000
     40 H16        7.8268    2.4624   16.3616 H         1 RES1    0.0000
     41 H17        9.2878    2.9092   14.4336 H         1 RES1    0.0000
     42 H18        8.8798    1.7040   12.4362 H         1 RES1    0.0000
     43 H19        7.0394   -1.8079   12.4188 H         1 RES1    0.0000
     44 H20        5.8535   -2.3897   10.4735 H         1 RES1    0.0000
     45 H21        6.9445   -1.3611    9.9698 H         1 RES1    0.0000
     46 H22        4.2502   -1.1117    9.7787 H         1 RES1    0.0000
     47 H23        5.3317   -0.2494    9.1361 H         1 RES1    0.0000
@<TRIPOS>BOND
     1    1    3 1
     2    2   21 1
     3    3    7 1
     4    4    1 1
     5    5    4 1
     6    6    4 1
     7    7    5 1
     8    8    3 1
     9    9    8 1
    10   10    8 1
    11   11   10 ar
    12   12   11 ar
    13   13   12 ar
    14   14   13 ar
    15   15   10 ar
    16   16    7 1
    17   17   16 ar
    18   18   17 ar
    19   19   18 ar
    20   20   19 ar
    21   21   16 ar
    22   22    2 1
    23   23   22 1
    24   24    6 1
    25   25    4 1
    26   26    5 1
    27   27    6 1
    28   28    6 1
    29   29    7 1
    30   30    8 1
    31   31    9 1
    32   32    9 1
    33   33    9 1
    34   34   11 1
    35   35   12 1
    36   36   13 1
    37   37   14 1
    38   38   15 1
    39   39   17 1
    40   40   18 1
    41   41   19 1
    42   42   20 1
    43   43   22 1
    44   44   23 1
    45   45   23 1
    46   46   24 1
    47   47   24 1
    48    5   22 1
    49   14   15 ar
    50   20   21 ar
    51   23   24 1
@<TRIPOS>SUBSTRUCTURE
     1 RES1 1

@<TRIPOS>CRYSIN
   9.4870   10.3900   17.3690  90.0000  90.0000  90.0000  19 1

