# MOL2 file generated by ConQuest
# Please check atom types

@<TRIPOS>MOLECULE
TOTDEL
    25    26     1
SMALL
NO_CHARGES
****
Generated from CSD

@<TRIPOS>ATOM
      1 O1         0.2525   -0.1674    7.3644 O.3       1 RES1    0.0000
      2 O2         0.6226    2.0025    5.8956 O.2       1 RES1    0.0000
      3 N1         1.5480    0.3673    7.2913 N.3       1 RES1    0.0000
      4 N2         1.4224    1.7760    6.8115 N.pl3     1 RES1    0.0000
      5 N3         2.2189    2.5774    7.3632 N.2       1 RES1    0.0000
      6 C1         4.3317    1.3899    7.7809 C.3       1 RES1    0.0000
      7 C2         4.9728    0.2602    8.5688 C.3       1 RES1    0.0000
      8 C3         4.0633   -0.9493    8.5993 C.3       1 RES1    0.0000
      9 C4         2.7404   -0.6106    9.2472 C.3       1 RES1    0.0000
     10 C5         2.0634    0.6022    8.6456 C.3       1 RES1    0.0000
     11 C6         2.9755    1.7890    8.3569 C.3       1 RES1    0.0000
     12 C7         0.0484   -1.0700    6.2683 C.3       1 RES1    0.0000
     13 H1         4.1901    1.0577    6.8517 H         1 RES1    0.0000
     14 H2         4.8748    2.1440    7.7748 H         1 RES1    0.0000
     15 H3         5.7877    0.0149    8.1876 H         1 RES1    0.0000
     16 H4         5.2333    0.5704    9.4652 H         1 RES1    0.0000
     17 H5         3.9205   -1.2316    7.7310 H         1 RES1    0.0000
     18 H6         4.4726   -1.6748    9.0962 H         1 RES1    0.0000
     19 H7         2.1338   -1.3484    9.2265 H         1 RES1    0.0000
     20 H8         2.8860   -0.4581   10.1874 H         1 RES1    0.0000
     21 H9         1.3296    0.8819    9.1839 H         1 RES1    0.0000
     22 H10        3.0698    2.3231    9.1108 H         1 RES1    0.0000
     23 H11       -0.8234   -1.4470    6.4266 H         1 RES1    0.0000
     24 H12        0.6985   -1.7553    6.2756 H         1 RES1    0.0000
     25 H13        0.0497   -0.5568    5.4085 H         1 RES1    0.0000
@<TRIPOS>BOND
     1    1    3 1
     2    2    4 2
     3    3    4 1
     4    4    5 2
     5    5   11 1
     6    6    7 1
     7    7    8 1
     8    8    9 1
     9    9   10 1
    10   10    3 1
    11   11    6 1
    12   12    1 1
    13   13    6 1
    14   14    6 1
    15   15    7 1
    16   16    7 1
    17   17    8 1
    18   18    8 1
    19   19    9 1
    20   20    9 1
    21   21   10 1
    22   22   11 1
    23   23   12 1
    24   24   12 1
    25   25   12 1
    26   10   11 1
@<TRIPOS>SUBSTRUCTURE
     1 RES1 1

@<TRIPOS>CRYSIN
  10.8990    6.4890   12.5060  90.0000 103.1400  90.0000 231 1

