# MOL2 file generated by ConQuest
# Please check atom types

@<TRIPOS>MOLECULE
TOTKAQ
    55    57     1
SMALL
NO_CHARGES
****
Generated from CSD

@<TRIPOS>ATOM
      1 N1         7.7307    8.0563    5.5956 N.3       1 RES1    0.0000
      2 O1         8.3775    7.6105    4.3598 O.3       1 RES1    0.0000
      3 O2         6.4263    8.9384    1.8038 O.2       1 RES1    0.0000
      4 C1         5.6287    7.0668    4.9277 C.3       1 RES1    0.0000
      5 H1         5.3948    7.9837    4.7663 H         1 RES1    0.0000
      6 H2         4.8606    6.5923    5.2531 H         1 RES1    0.0000
      7 H3         5.9295    6.6638    4.1086 H         1 RES1    0.0000
      8 C2         7.2877    5.5613    6.0037 C.3       1 RES1    0.0000
      9 H4         7.7753    5.3843    5.1969 H         1 RES1    0.0000
     10 H5         6.5527    4.9482    6.0753 H         1 RES1    0.0000
     11 H6         7.8691    5.4536    6.7590 H         1 RES1    0.0000
     12 C3         6.7522    7.0014    5.9721 C.3       1 RES1    0.0000
     13 C4         6.1750    7.4016    7.3254 C.3       1 RES1    0.0000
     14 H7         5.6495    8.2097    7.2176 H         1 RES1    0.0000
     15 H8         5.5801    6.7011    7.6352 H         1 RES1    0.0000
     16 C5         7.2371    7.6425    8.3730 C.3       1 RES1    0.0000
     17 H9         6.8248    7.9133    9.2081 H         1 RES1    0.0000
     18 H10        7.7416    6.8290    8.5288 H         1 RES1    0.0000
     19 C6         8.1486    8.7247    7.8760 C.3       1 RES1    0.0000
     20 H11        8.8310    8.8921    8.5439 H         1 RES1    0.0000
     21 H12        7.6355    9.5414    7.7672 H         1 RES1    0.0000
     22 C7         8.8292    8.3877    6.5491 C.3       1 RES1    0.0000
     23 C8         9.8997    7.3109    6.7360 C.3       1 RES1    0.0000
     24 H13        9.5267    6.5699    7.2220 H         1 RES1    0.0000
     25 H14       10.6389    7.6756    7.2285 H         1 RES1    0.0000
     26 H15       10.2041    7.0092    5.8762 H         1 RES1    0.0000
     27 C9         9.5008    9.6502    6.0324 C.3       1 RES1    0.0000
     28 H16       10.0089    9.4423    5.2445 H         1 RES1    0.0000
     29 H17       10.0867    9.9999    6.7070 H         1 RES1    0.0000
     30 H18        8.8312   10.3038    5.8178 H         1 RES1    0.0000
     31 C10        8.1905    8.5589    3.3048 C.3       1 RES1    0.0000
     32 H19        7.8609    9.3932    3.6975 H         1 RES1    0.0000
     33 C11        9.5112    8.8547    2.5952 C.ar      1 RES1    0.0000
     34 C12       10.6610    8.1462    2.8533 C.ar      1 RES1    0.0000
     35 H20       10.6457    7.4623    3.4833 H         1 RES1    0.0000
     36 C13       11.8372    8.4368    2.1906 C.ar      1 RES1    0.0000
     37 H21       12.6094    7.9549    2.3821 H         1 RES1    0.0000
     38 C14       11.8683    9.4252    1.2575 C.ar      1 RES1    0.0000
     39 H22       12.6628    9.6171    0.8113 H         1 RES1    0.0000
     40 C15       10.7398   10.1374    0.9719 C.ar      1 RES1    0.0000
     41 H23       10.7620   10.8081    0.3267 H         1 RES1    0.0000
     42 C16        9.5608    9.8580    1.6452 C.ar      1 RES1    0.0000
     43 H24        8.7952   10.3507    1.4561 H         1 RES1    0.0000
     44 C17        7.1927    8.1011    2.2508 C.2       1 RES1    0.0000
     45 C18        7.2104    6.7132    1.7016 C.ar      1 RES1    0.0000
     46 C19        8.1075    5.7430    2.1041 C.ar      1 RES1    0.0000
     47 H25        8.7286    5.9377    2.7672 H         1 RES1    0.0000
     48 C20        8.0902    4.4908    1.5325 C.ar      1 RES1    0.0000
     49 H26        8.6992    3.8437    1.8066 H         1 RES1    0.0000
     50 C21        7.1686    4.1987    0.5526 C.ar      1 RES1    0.0000
     51 H27        7.1556    3.3543    0.1644 H         1 RES1    0.0000
     52 C22        6.2749    5.1487    0.1510 C.ar      1 RES1    0.0000
     53 H28        5.6528    4.9482   -0.5106 H         1 RES1    0.0000
     54 C23        6.2895    6.3897    0.7151 C.ar      1 RES1    0.0000
     55 H29        5.6742    7.0273    0.4349 H         1 RES1    0.0000
@<TRIPOS>BOND
     1    1    2 1
     2    2   31 1
     3    3   44 2
     4    4    5 1
     5    6    4 1
     6    7    4 1
     7    8    9 1
     8   10    8 1
     9   11    8 1
    10   12    1 1
    11   13   12 1
    12   14   13 1
    13   15   13 1
    14   16   13 1
    15   17   16 1
    16   18   16 1
    17   19   16 1
    18   20   19 1
    19   21   19 1
    20   22    1 1
    21   23   22 1
    22   24   23 1
    23   25   23 1
    24   26   23 1
    25   27   22 1
    26   28   27 1
    27   29   27 1
    28   30   27 1
    29   31   32 1
    30   33   31 1
    31   34   33 ar
    32   35   34 1
    33   36   34 ar
    34   37   36 1
    35   38   36 ar
    36   39   38 1
    37   40   38 ar
    38   41   40 1
    39   42   33 ar
    40   43   42 1
    41   44   31 1
    42   45   44 1
    43   46   45 ar
    44   47   46 1
    45   48   46 ar
    46   49   48 1
    47   50   48 ar
    48   51   50 1
    49   52   50 ar
    50   53   52 1
    51   54   45 ar
    52   55   54 1
    53    4   12 1
    54    8   12 1
    55   19   22 1
    56   40   42 ar
    57   52   54 ar
@<TRIPOS>SUBSTRUCTURE
     1 RES1 1

@<TRIPOS>CRYSIN
   8.7080   10.6620   21.7660  90.0000  96.2740  90.0000 231 1

