# MOL2 file generated by ConQuest
# Please check atom types

@<TRIPOS>MOLECULE
TOTWIK
    40    35     2
SMALL
NO_CHARGES
****
Generated from CSD

@<TRIPOS>ATOM
      1 O1        -3.2735    4.5506    3.4913 O.3       1 RES1    0.0000
      2 O2         6.6501    9.1005   -1.2304 O.2       1 RES1    0.0000
      3 O3         5.0388    8.0231   -2.1759 O.2       1 RES1    0.0000
      4 O4         2.5364    8.7422    3.4499 O.3       1 RES1    0.0000
      5 O5        -2.7625    4.5885    1.3240 O.2       1 RES1    0.0000
      6 N1         5.5531    8.5724   -1.1986 N.pl3     1 RES1    0.0000
      7 N2        -1.2642    6.4976    5.3219 N.1       1 RES1    0.0000
      8 C1         5.2838    9.3188    1.1170 C.ar      1 RES1    0.0000
      9 H1         6.0974    9.7657    1.0583 H         1 RES1    0.0000
     10 C2         4.8005    8.5936    0.0465 C.ar      1 RES1    0.0000
     11 C3         3.6053    7.9122    0.1237 C.ar      1 RES1    0.0000
     12 H2         3.3077    7.4279   -0.6127 H         1 RES1    0.0000
     13 C4         2.8372    7.9341    1.2772 C.ar      1 RES1    0.0000
     14 C5         1.5993    7.1616    1.2789 C.2       1 RES1    0.0000
     15 H3         1.4002    6.7546    0.4663 H         1 RES1    0.0000
     16 C6         0.7022    6.9354    2.2415 C.2       1 RES1    0.0000
     17 H4         0.8231    7.3103    3.0842 H         1 RES1    0.0000
     18 C7        -0.4528    6.1150    1.9821 C.2       1 RES1    0.0000
     19 H5        -0.5547    5.7993    1.1129 H         1 RES1    0.0000
     20 C8        -1.3970    5.7596    2.8665 C.2       1 RES1    0.0000
     21 C9        -2.5379    4.9081    2.4518 C.2       1 RES1    0.0000
     22 C10       -4.3953    3.6516    3.2076 C.3       1 RES1    0.0000
     23 H6        -4.5835    3.2794    2.3765 H         1 RES1    0.0000
     24 C11        3.3234    8.7013    2.3604 C.ar      1 RES1    0.0000
     25 C12        2.8714    9.6449    4.5116 C.3       1 RES1    0.0000
     26 H7         2.9527   10.5346    4.1610 H         1 RES1    0.0000
     27 H8         3.7058    9.3794    4.9058 H         1 RES1    0.0000
     28 H9         2.1815    9.6248    5.1778 H         1 RES1    0.0000
     29 C13        4.5437    9.3676    2.2650 C.ar      1 RES1    0.0000
     30 H10        4.8589    9.8523    2.9935 H         1 RES1    0.0000
     31 C14       -1.3273    6.1689    4.2320 C.1       1 RES1    0.0000
     32 C15       -5.1300    3.4400    4.3489 C.3       1 RES1    0.0000
     33 H11       -4.5414    3.2022    5.0686 H         1 RES1    0.0000
     34 H12       -5.7564    2.7277    4.1992 H         1 RES1    0.0000
     35 H13       -5.6066    4.2413    4.5771 H         1 RES1    0.0000
     36 H14       -4.9743    3.7164    2.4824 Du        2 SUP2    0.0000
     37 C16       -4.4480    2.6999    4.1916 Du        2 SUP2    0.0000
     38 H15       -3.6023    2.2494    4.2462 Du        2 SUP2    0.0000
     39 H16       -5.1365    2.0644    3.9852 Du        2 SUP2    0.0000
     40 H17       -4.6416    3.1202    5.0336 Du        2 SUP2    0.0000
@<TRIPOS>BOND
     1    1   21 1
     2    2    6 2
     3    3    6 2
     4    4   24 1
     5    5   21 2
     6    6   10 1
     7    7   31 3
     8    8    9 1
     9   10    8 ar
    10   11   10 ar
    11   12   11 1
    12   13   11 ar
    13   14   13 1
    14   15   14 1
    15   16   14 2
    16   17   16 1
    17   18   16 1
    18   19   18 1
    19   20   18 2
    20   21   20 1
    21   22    1 1
    22   23   22 1
    23   24   13 ar
    24   25    4 1
    25   26   25 1
    26   27   25 1
    27   28   25 1
    28   29    8 ar
    29   30   29 1
    30   31   20 1
    31   32   22 1
    32   33   32 1
    33   34   32 1
    34   35   32 1
    35   24   29 ar
@<TRIPOS>SUBSTRUCTURE
     1 RES1 1
     2 SUP2 36

@<TRIPOS>CRYSIN
   6.6884   10.5756   12.0943 105.3070 105.1680 104.5660   2 1

