# MOL2 file generated by ConQuest
# Please check atom types

@<TRIPOS>MOLECULE
TOTWOQ
    36    39     1
SMALL
NO_CHARGES
****
Generated from CSD

@<TRIPOS>ATOM
      1 O1         9.6531    5.1467    5.8468 O.2       1 RES1    0.0000
      2 O2         5.8585    7.5821    6.3105 O.2       1 RES1    0.0000
      3 N1         7.7327    6.3472    6.1021 N.am      1 RES1    0.0000
      4 O3        13.2821    5.6754    9.1298 O.2       1 RES1    0.0000
      5 O4        12.9436    6.7361   10.9711 O.2       1 RES1    0.0000
      6 N2        12.5969    6.3782    9.8535 N.pl3     1 RES1    0.0000
      7 N3         8.3108    7.4226    3.5538 N.ar      1 RES1    0.0000
      8 C1         6.9572    7.3079    6.7471 C.2       1 RES1    0.0000
      9 C2         8.7938    7.5502    8.4272 C.ar      1 RES1    0.0000
     10 C3         9.5406    6.5714    7.7312 C.ar      1 RES1    0.0000
     11 C4         9.0148    5.9626    6.4894 C.2       1 RES1    0.0000
     12 C5         7.2083    6.6921    3.7039 C.ar      1 RES1    0.0000
     13 C6         9.3180    8.1435    9.6108 C.ar      1 RES1    0.0000
     14 C7         7.5225    7.9478    7.9549 C.ar      1 RES1    0.0000
     15 C8        11.2599    6.7836    9.3745 C.ar      1 RES1    0.0000
     16 C9        10.7756    6.2006    8.2012 C.ar      1 RES1    0.0000
     17 H1        11.2828    5.5702    7.7446 H         1 RES1    0.0000
     18 C10        8.5432    9.1249   10.2740 C.ar      1 RES1    0.0000
     19 H2         8.8736    9.5251   11.0454 H         1 RES1    0.0000
     20 C11        6.8148    8.9033    8.6457 C.ar      1 RES1    0.0000
     21 H3         5.9781    9.1612    8.3327 H         1 RES1    0.0000
     22 C12       10.5807    7.7253   10.0685 C.ar      1 RES1    0.0000
     23 H4        10.9441    8.0927   10.8415 H         1 RES1    0.0000
     24 C13        7.3206    9.4932    9.7997 C.ar      1 RES1    0.0000
     25 H5         6.8231   10.1400   10.2471 H         1 RES1    0.0000
     26 C14        7.1607    5.7565    4.8833 C.3       1 RES1    0.0000
     27 H6         6.2377    5.5107    5.0540 H         1 RES1    0.0000
     28 H7         7.6482    4.9467    4.6651 H         1 RES1    0.0000
     29 C15        6.1635    6.7482    2.8013 C.ar      1 RES1    0.0000
     30 H8         5.4011    6.2316    2.9293 H         1 RES1    0.0000
     31 C16        8.3706    8.2160    2.4756 C.ar      1 RES1    0.0000
     32 H9         9.1376    8.7291    2.3586 H         1 RES1    0.0000
     33 C17        7.3963    8.3238    1.5492 C.ar      1 RES1    0.0000
     34 H10        7.4932    8.8912    0.8189 H         1 RES1    0.0000
     35 C18        6.2697    7.5830    1.7105 C.ar      1 RES1    0.0000
     36 H11        5.5780    7.6391    1.0908 H         1 RES1    0.0000
@<TRIPOS>BOND
     1    1   11 2
     2    2    8 2
     3    3    8 1
     4    4    6 2
     5    5    6 2
     6    6   15 1
     7    7   12 ar
     8    8   14 1
     9    9   10 ar
    10   10   11 1
    11   11    3 1
    12   12   26 1
    13   13    9 ar
    14   14    9 ar
    15   15   16 ar
    16   16   10 ar
    17   17   16 1
    18   18   13 ar
    19   19   18 1
    20   20   14 ar
    21   21   20 1
    22   22   13 ar
    23   23   22 1
    24   24   18 ar
    25   25   24 1
    26   26    3 1
    27   27   26 1
    28   28   26 1
    29   29   12 ar
    30   30   29 1
    31   31    7 ar
    32   32   31 1
    33   33   31 ar
    34   34   33 1
    35   35   29 ar
    36   36   35 1
    37   15   22 ar
    38   20   24 ar
    39   33   35 ar
@<TRIPOS>SUBSTRUCTURE
     1 RES1 1

@<TRIPOS>CRYSIN
  11.0481    8.6239   15.8686  90.0000  94.9860  90.0000  14 1

