# MOL2 file generated by ConQuest
# Please check atom types

@<TRIPOS>MOLECULE
TOVMAU
    63    45     2
SMALL
NO_CHARGES
****
Generated from CSD

@<TRIPOS>ATOM
      1 O1         4.3806    0.8093   10.8894 O.2       1 RES1    0.0000
      2 O2         2.6492    4.6422    5.4764 O.3       1 RES1    0.0000
      3 O3         4.3436    2.5852   12.1276 O.2       1 RES1    0.0000
      4 O4         5.8079    5.6897    3.5565 O.2       1 RES1    0.0000
      5 O5         1.9371    6.2974    6.8170 O.2       1 RES1    0.0000
      6 N1         4.1670    2.0119   11.0593 N.pl3     1 RES1    0.0000
      7 C1         3.6657    2.7995    9.9221 C.ar      1 RES1    0.0000
      8 C2         3.0741    4.0249   10.1719 C.ar      1 RES1    0.0000
      9 H1         2.9591    4.3405   11.0601 H         1 RES1    0.0000
     10 C3         2.6571    4.7707    9.0965 C.ar      1 RES1    0.0000
     11 H2         2.2311    5.6074    9.2423 H         1 RES1    0.0000
     12 C4         2.8527    4.3151    7.7944 C.ar      1 RES1    0.0000
     13 C5         2.4236    5.1866    6.6758 C.2       1 RES1    0.0000
     14 C6         2.2287    5.4163    4.3357 C.3       1 RES1    0.0000
     15 H3         2.7028    6.2856    4.3328 H         1 RES1    0.0000
     16 H4         1.2575    5.5966    4.3982 H         1 RES1    0.0000
     17 C7         2.5274    4.6672    3.0392 C.3       1 RES1    0.0000
     18 C8         4.0276    4.0270    2.9540 C.3       1 RES1    0.0000
     19 C9         4.5131    3.8262    1.5372 C.3       1 RES1    0.0000
     20 H5         5.5045    3.7822    1.5372 H         1 RES1    0.0000
     21 H6         4.1733    2.9623    1.1947 H         1 RES1    0.0000
     22 C10        4.0620    4.9545    0.6008 C.3       1 RES1    0.0000
     23 H7         4.3162    4.7140   -0.3253 H         1 RES1    0.0000
     24 H8         4.5568    5.7775    0.8401 H         1 RES1    0.0000
     25 C11        2.1446    5.6586    1.9865 C.3       1 RES1    0.0000
     26 H9         1.1612    5.7635    1.9882 H         1 RES1    0.0000
     27 H10        2.5440    6.5347    2.2120 H         1 RES1    0.0000
     28 C12        2.5847    5.2618    0.6249 C.3       1 RES1    0.0000
     29 H11        2.3906    5.9962   -0.0103 H         1 RES1    0.0000
     30 H12        2.0776    4.4626    0.3340 H         1 RES1    0.0000
     31 C13        3.9000    2.6079    3.5943 C.3       1 RES1    0.0000
     32 H13        4.4870    1.9565    3.1347 H         1 RES1    0.0000
     33 H14        4.1314    2.6297    4.5566 H         1 RES1    0.0000
     34 C14        2.4670    2.2681    3.3964 C.2       1 RES1    0.0000
     35 H15        2.1228    1.3850    3.4601 H         1 RES1    0.0000
     36 C15        1.6977    3.3584    3.1158 C.2       1 RES1    0.0000
     37 H16        0.7577    3.3205    2.9815 H         1 RES1    0.0000
     38 C16        5.0101    4.8724    3.7062 C.2       1 RES1    0.0000
     39 H17        4.9547    4.6613    4.6306 H         1 RES1    0.0000
     40 C17        3.4284    3.0678    7.5820 C.ar      1 RES1    0.0000
     41 H18        3.5356    2.7435    6.6946 H         1 RES1    0.0000
     42 C18        3.8453    2.2968    8.6476 C.ar      1 RES1    0.0000
     43 H19        4.2432    1.4451    8.5090 H         1 RES1    0.0000
     44 C19        4.0224    4.9391    2.5288 Du        2 SUP2    0.0000
     45 C20        4.3545    3.9751    1.4133 Du        2 SUP2    0.0000
     46 H20        3.8259    4.2236    0.6128 Du        2 SUP2    0.0000
     47 H21        5.3115    4.0758    1.1826 Du        2 SUP2    0.0000
     48 C21        4.0766    2.4961    1.7524 Du        2 SUP2    0.0000
     49 H22        4.5354    2.2405    2.5907 Du        2 SUP2    0.0000
     50 H23        4.3964    1.9070    1.0225 Du        2 SUP2    0.0000
     51 C22        2.1165    3.2380    3.0297 Du        2 SUP2    0.0000
     52 H24        2.4299    2.8250    3.8749 Du        2 SUP2    0.0000
     53 H25        1.1276    3.2039    3.0400 Du        2 SUP2    0.0000
     54 C23        2.5858    2.3792    1.9091 Du        2 SUP2    0.0000
     55 H26        2.1400    2.6575    1.0707 Du        2 SUP2    0.0000
     56 H27        2.3435    1.4361    2.0881 Du        2 SUP2    0.0000
     57 C24        3.9700    6.3641    1.8746 Du        2 SUP2    0.0000
     58 H28        4.1058    7.0737    2.5511 Du        2 SUP2    0.0000
     59 H29        4.6536    6.4577    1.1637 Du        2 SUP2    0.0000
     60 C25        2.5886    6.4183    1.3031 Du        2 SUP2    0.0000
     61 H30        2.2921    7.0326    0.6421 Du        2 SUP2    0.0000
     62 C26        1.8178    5.4472    1.8798 Du        2 SUP2    0.0000
     63 H31        0.9306    5.2638    1.6009 Du        2 SUP2    0.0000
@<TRIPOS>BOND
     1    1    6 2
     2    2   13 1
     3    3    6 2
     4    4   38 2
     5    5   13 2
     6    6    7 1
     7    7    8 ar
     8    8    9 1
     9   10    8 ar
    10   11   10 1
    11   12   10 ar
    12   13   12 1
    13   14    2 1
    14   15   14 1
    15   16   14 1
    16   17   14 1
    17   18   17 1
    18   19   18 1
    19   20   19 1
    20   21   19 1
    21   22   19 1
    22   23   22 1
    23   24   22 1
    24   25   17 1
    25   26   25 1
    26   27   25 1
    27   28   22 1
    28   29   28 1
    29   30   28 1
    30   31   18 1
    31   32   31 1
    32   33   31 1
    33   34   31 1
    34   35   34 1
    35   36   17 1
    36   37   36 1
    37   38   18 1
    38   39   38 1
    39   40   12 ar
    40   41   40 1
    41   42    7 ar
    42   43   42 1
    43   25   28 1
    44   34   36 2
    45   40   42 ar
@<TRIPOS>SUBSTRUCTURE
     1 RES1 1
     2 SUP2 44

@<TRIPOS>CRYSIN
   6.9281    7.1143   17.3825  97.0530  90.9790 110.7350   2 1

