# MOL2 file generated by ConQuest
# Please check atom types

@<TRIPOS>MOLECULE
TOWSIJ
    77    83     1
SMALL
NO_CHARGES
****
Generated from CSD

@<TRIPOS>ATOM
      1 N1         4.5931    3.0229   10.2700 N.am      1 RES1    0.0000
      2 N2         6.4428    7.5109   15.6874 N.3       1 RES1    0.0000
      3 N3         4.9869    5.9037   15.1909 N.2       1 RES1    0.0000
      4 N4         9.0408    4.8614   11.7606 N.am      1 RES1    0.0000
      5 N5         6.2584    3.2589   19.1595 N.pl3     1 RES1    0.0000
      6 O1         4.4115    1.3207   11.7910 O.2       1 RES1    0.0000
      7 O2         4.9519    5.0562    9.2837 O.2       1 RES1    0.0000
      8 O3         7.1154    3.1438   20.0529 O.2       1 RES1    0.0000
      9 O4         5.3523    2.4794   19.0085 O.2       1 RES1    0.0000
     10 O5        10.3818    6.6762   12.2145 O.2       1 RES1    0.0000
     11 O6         7.2165    3.4980   11.4056 O.2       1 RES1    0.0000
     12 C1         5.2106   -0.2254    5.6091 C.3       1 RES1    0.0000
     13 H1         5.3590   -1.1305    5.8928 H         1 RES1    0.0000
     14 H2         5.9648    0.0751    5.0952 H         1 RES1    0.0000
     15 H3         4.4189   -0.1855    5.0657 H         1 RES1    0.0000
     16 C2         5.0381    0.6574    6.8126 C.ar      1 RES1    0.0000
     17 C3         3.8825    1.1892    7.1602 C.ar      1 RES1    0.0000
     18 H4         3.1485    1.0436    6.6094 H         1 RES1    0.0000
     19 C4         3.7010    1.9546    8.3023 C.ar      1 RES1    0.0000
     20 H5         2.8570    2.2857    8.5104 H         1 RES1    0.0000
     21 C5         4.7317    2.2152    9.0988 C.ar      1 RES1    0.0000
     22 C6         5.9107    1.7292    8.7554 C.ar      1 RES1    0.0000
     23 H6         6.6509    1.9030    9.2896 H         1 RES1    0.0000
     24 C7         6.0603    0.9626    7.6060 C.ar      1 RES1    0.0000
     25 H7         6.9067    0.6504    7.3849 H         1 RES1    0.0000
     26 C8         4.5002    2.4993   11.5626 C.2       1 RES1    0.0000
     27 C9         4.5296    3.6357   12.5339 C.3       1 RES1    0.0000
     28 H8         5.3052    3.5688   13.1120 H         1 RES1    0.0000
     29 H9         3.7308    3.6345   13.0843 H         1 RES1    0.0000
     30 C10        4.5988    4.9059   11.6902 C.3       1 RES1    0.0000
     31 H10        3.7180    5.3309   11.7396 H         1 RES1    0.0000
     32 C11        4.7621    4.3811   10.2634 C.2       1 RES1    0.0000
     33 C12        5.6123    5.9495   12.0760 C.2       1 RES1    0.0000
     34 C13        5.0267    7.2866   12.3851 C.ar      1 RES1    0.0000
     35 C14        4.4682    8.0215   11.3601 C.ar      1 RES1    0.0000
     36 H11        4.4445    7.6517   10.5054 H         1 RES1    0.0000
     37 C15        3.9562    9.2589   11.5462 C.ar      1 RES1    0.0000
     38 H12        3.5980    9.7308   10.8296 H         1 RES1    0.0000
     39 C16        3.9632    9.8177   12.8025 C.ar      1 RES1    0.0000
     40 H13        3.6151   10.6711   12.9333 H         1 RES1    0.0000
     41 C17        4.4812    9.1239   13.8598 C.ar      1 RES1    0.0000
     42 H14        4.4843    9.5066   14.7090 H         1 RES1    0.0000
     43 C18        5.0067    7.8372   13.6721 C.ar      1 RES1    0.0000
     44 C19        5.4754    7.0695   14.8389 C.2       1 RES1    0.0000
     45 C20        5.6663    5.5668   16.3474 C.ar      1 RES1    0.0000
     46 C21        6.5869    6.5670   16.6687 C.ar      1 RES1    0.0000
     47 C22        7.4076    6.4825   17.7662 C.ar      1 RES1    0.0000
     48 H15        8.0191    7.1540   17.9622 H         1 RES1    0.0000
     49 C23        7.2914    5.3743   18.5599 C.ar      1 RES1    0.0000
     50 H16        7.8400    5.2804   19.3050 H         1 RES1    0.0000
     51 C24        6.3747    4.4070   18.2628 C.ar      1 RES1    0.0000
     52 C25        5.5304    4.4610   17.1769 C.ar      1 RES1    0.0000
     53 H17        4.9042    3.7942   17.0080 H         1 RES1    0.0000
     54 C26        7.1868    8.7482   15.6338 C.3       1 RES1    0.0000
     55 H18        8.1093    8.5745   15.8327 H         1 RES1    0.0000
     56 H19        6.8303    9.3633   16.2785 H         1 RES1    0.0000
     57 H20        7.1144    9.1262   14.7551 H         1 RES1    0.0000
     58 C27        6.9422    5.8180   12.0544 C.2       1 RES1    0.0000
     59 C28        7.9631    6.8652   12.3317 C.3       1 RES1    0.0000
     60 H21        7.8943    7.1775   13.2483 H         1 RES1    0.0000
     61 H22        7.8503    7.6212   11.7341 H         1 RES1    0.0000
     62 C29        9.2786    6.2008   12.0986 C.2       1 RES1    0.0000
     63 C30        7.6691    4.5760   11.6982 C.2       1 RES1    0.0000
     64 C31       10.0596    3.8752   11.5677 C.ar      1 RES1    0.0000
     65 C32       11.1289    3.8036   12.4403 C.ar      1 RES1    0.0000
     66 H23       11.2101    4.4246   13.1285 H         1 RES1    0.0000
     67 C33       12.0677    2.8210   12.2941 C.ar      1 RES1    0.0000
     68 H24       12.7842    2.7916   12.8872 H         1 RES1    0.0000
     69 C34       11.9960    1.8900   11.3178 C.ar      1 RES1    0.0000
     70 C35       10.9306    1.9663   10.4501 C.ar      1 RES1    0.0000
     71 H25       10.8605    1.3430    9.7630 H         1 RES1    0.0000
     72 C36        9.9592    2.9407   10.5728 C.ar      1 RES1    0.0000
     73 H26        9.2406    2.9619    9.9823 H         1 RES1    0.0000
     74 C37       13.0450    0.8112   11.1778 C.3       1 RES1    0.0000
     75 H27       13.8034    1.1622   10.7062 H         1 RES1    0.0000
     76 H28       12.6794    0.0704   10.6896 H         1 RES1    0.0000
     77 H29       13.3193    0.5165   12.0491 H         1 RES1    0.0000
@<TRIPOS>BOND
     1    1   21 1
     2    2   44 1
     3    3   44 2
     4    4   62 1
     5    5    8 2
     6    6   26 2
     7    7   32 2
     8    9    5 2
     9   10   62 2
    10   11   63 2
    11   12   13 1
    12   14   12 1
    13   15   12 1
    14   16   12 1
    15   17   16 ar
    16   18   17 1
    17   19   17 ar
    18   20   19 1
    19   21   19 ar
    20   22   21 ar
    21   23   22 1
    22   24   16 ar
    23   25   24 1
    24   26    1 1
    25   27   26 1
    26   28   27 1
    27   29   27 1
    28   30   27 1
    29   31   30 1
    30   32    1 1
    31   33   30 1
    32   34   33 1
    33   35   34 ar
    34   36   35 1
    35   37   35 ar
    36   38   37 1
    37   39   37 ar
    38   40   39 1
    39   41   39 ar
    40   42   41 1
    41   43   34 ar
    42   44   43 1
    43   45    3 1
    44   46    2 1
    45   47   46 ar
    46   48   47 1
    47   49   47 ar
    48   50   49 1
    49   51    5 1
    50   52   45 ar
    51   53   52 1
    52   54    2 1
    53   55   54 1
    54   56   54 1
    55   57   54 1
    56   58   33 2
    57   59   58 1
    58   60   59 1
    59   61   59 1
    60   62   59 1
    61   63    4 1
    62   64    4 1
    63   65   64 ar
    64   66   65 1
    65   67   65 ar
    66   68   67 1
    67   69   67 ar
    68   70   69 ar
    69   71   70 1
    70   72   64 ar
    71   73   72 1
    72   74   69 1
    73   75   74 1
    74   76   74 1
    75   77   74 1
    76   22   24 ar
    77   30   32 1
    78   41   43 ar
    79   45   46 ar
    80   49   51 ar
    81   51   52 ar
    82   58   63 1
    83   70   72 ar
@<TRIPOS>SUBSTRUCTURE
     1 RES1 1

