# MOL2 file generated by ConQuest
# Please check atom types

@<TRIPOS>MOLECULE
TOXDUH
    40    42     1
SMALL
NO_CHARGES
****
Generated from CSD

@<TRIPOS>ATOM
      1 O1         5.1850    4.9438   18.9265 O.2       1 RES1    0.0000
      2 N1         6.3274    7.3193   21.1306 N.2       1 RES1    0.0000
      3 C1         5.5647    5.9467   19.4525 C.2       1 RES1    0.0000
      4 O2         5.7378    6.0376   20.8064 O.3       1 RES1    0.0000
      5 C2         5.9533    7.2813   18.8171 C.3       1 RES1    0.0000
      6 O3         8.9831    5.8330   16.1587 O.2       1 RES1    0.0000
      7 C3         6.4683    7.9933   20.0438 C.2       1 RES1    0.0000
      8 C4         7.1102    9.3128   20.0779 C.ar      1 RES1    0.0000
      9 C5         7.7716    9.7248   21.2400 C.ar      1 RES1    0.0000
     10 H1         7.7662    9.1680   22.0097 H         1 RES1    0.0000
     11 C6         8.4313   10.9351   21.2747 C.ar      1 RES1    0.0000
     12 H2         8.8861   11.2042   22.0629 H         1 RES1    0.0000
     13 C7         8.4323   11.7632   20.1570 C.ar      1 RES1    0.0000
     14 H3         8.8870   12.5963   20.1830 H         1 RES1    0.0000
     15 C8         7.7695   11.3708   19.0077 C.ar      1 RES1    0.0000
     16 H4         7.7670   11.9397   18.2476 H         1 RES1    0.0000
     17 C9         7.1060   10.1466   18.9584 C.ar      1 RES1    0.0000
     18 H5         6.6529    9.8804   18.1666 H         1 RES1    0.0000
     19 C10        7.0348    6.9982   17.7593 C.3       1 RES1    0.0000
     20 H6         6.6713    6.3740   17.0817 H         1 RES1    0.0000
     21 H7         7.2677    7.8433   17.2991 H         1 RES1    0.0000
     22 C11        8.2915    6.3986   18.3646 C.3       1 RES1    0.0000
     23 H8         8.7607    7.0989   18.8849 H         1 RES1    0.0000
     24 H9         8.0305    5.6811   18.9957 H         1 RES1    0.0000
     25 C12        9.2491    5.8260   17.3432 C.2       1 RES1    0.0000
     26 C13       10.5135    5.2271   17.8697 C.3       1 RES1    0.0000
     27 H10       10.3867    4.2650   18.0089 H         1 RES1    0.0000
     28 H11       10.7463    5.6527   18.7208 H         1 RES1    0.0000
     29 H12       11.2365    5.3705   17.2245 H         1 RES1    0.0000
     30 C14        4.6725    7.9363   18.2862 C.ar      1 RES1    0.0000
     31 C15        3.7298    8.4325   19.1846 C.ar      1 RES1    0.0000
     32 H13        3.8960    8.3703   20.1169 H         1 RES1    0.0000
     33 C16        2.5557    9.0138   18.7402 C.ar      1 RES1    0.0000
     34 H14        1.9330    9.3623   19.3666 H         1 RES1    0.0000
     35 C17        2.2860    9.0880   17.3794 C.ar      1 RES1    0.0000
     36 H15        1.4821    9.4883   17.0689 H         1 RES1    0.0000
     37 C18        3.2070    8.5698   16.4804 C.ar      1 RES1    0.0000
     38 H16        3.0237    8.6037   15.5491 H         1 RES1    0.0000
     39 C19        4.3900    8.0040   16.9235 C.ar      1 RES1    0.0000
     40 H17        5.0135    7.6596   16.2952 H         1 RES1    0.0000
@<TRIPOS>BOND
     1    1    3 2
     2    2    4 1
     3    3    4 1
     4    5    3 1
     5    6   25 2
     6    7    2 2
     7    8    7 1
     8    9    8 ar
     9   10    9 1
    10   11    9 ar
    11   12   11 1
    12   13   11 ar
    13   14   13 1
    14   15   13 ar
    15   16   15 1
    16   17    8 ar
    17   18   17 1
    18   19    5 1
    19   20   19 1
    20   21   19 1
    21   22   19 1
    22   23   22 1
    23   24   22 1
    24   25   22 1
    25   26   25 1
    26   27   26 1
    27   28   26 1
    28   29   26 1
    29   30    5 1
    30   31   30 ar
    31   32   31 1
    32   33   31 ar
    33   34   33 1
    34   35   33 ar
    35   36   35 1
    36   37   35 ar
    37   38   37 1
    38   39   30 ar
    39   40   39 1
    40    5    7 1
    41   15   17 ar
    42   37   39 ar
@<TRIPOS>SUBSTRUCTURE
     1 RES1 1

@<TRIPOS>CRYSIN
   8.3642    8.8725   21.3148  90.0000  90.0000  90.0000  19 1

