# MOL2 file generated by ConQuest
# Please check atom types

@<TRIPOS>MOLECULE
TOXDOB
    36    37     1
SMALL
NO_CHARGES
****
Generated from CSD

@<TRIPOS>ATOM
      1 O1         4.9247    3.1330    8.0057 O.2       1 RES1    0.0000
      2 C1         4.4158    3.2599    6.9266 C.2       1 RES1    0.0000
      3 N1         3.3188    2.6544    4.9926 N.2       1 RES1    0.0000
      4 O2         3.9454    2.1888    6.2281 O.3       1 RES1    0.0000
      5 C2         4.1837    4.5110    6.1099 C.3       1 RES1    0.0000
      6 O3         1.9536    6.8867    8.8810 O.2       1 RES1    0.0000
      7 C3         3.4374    3.9199    4.9499 C.2       1 RES1    0.0000
      8 C4         2.8415    4.6952    3.8306 C.3       1 RES1    0.0000
      9 H1         2.4831    4.0774    3.1602 H         1 RES1    0.0000
     10 H2         3.5304    5.2585    3.4201 H         1 RES1    0.0000
     11 H3         2.1181    5.2605    4.1740 H         1 RES1    0.0000
     12 C5         3.3746    5.5445    6.9090 C.3       1 RES1    0.0000
     13 H4         3.8904    5.7945    7.7160 H         1 RES1    0.0000
     14 H5         3.2698    6.3596    6.3561 H         1 RES1    0.0000
     15 C6         1.9947    5.0709    7.3423 C.3       1 RES1    0.0000
     16 H6         1.4207    4.9754    6.5413 H         1 RES1    0.0000
     17 H7         2.0780    4.1784    7.7632 H         1 RES1    0.0000
     18 C7         1.3282    6.0137    8.3156 C.2       1 RES1    0.0000
     19 C8        -0.1369    5.8189    8.5439 C.3       1 RES1    0.0000
     20 H8        -0.3767    6.1546    9.4334 H         1 RES1    0.0000
     21 H9        -0.3525    4.8644    8.4862 H         1 RES1    0.0000
     22 H10       -0.6414    6.3096    7.8623 H         1 RES1    0.0000
     23 C9         5.5445    5.1260    5.6888 C.3       1 RES1    0.0000
     24 H11        5.3671    5.9245    5.1310 H         1 RES1    0.0000
     25 H12        6.0152    5.4315    6.5040 H         1 RES1    0.0000
     26 C10        6.4686    4.2052    4.9224 C.ar      1 RES1    0.0000
     27 C11        6.5434    4.2802    3.5277 C.ar      1 RES1    0.0000
     28 H13        6.0035    4.9074    3.0611 H         1 RES1    0.0000
     29 C12        7.3994    3.4461    2.8195 C.ar      1 RES1    0.0000
     30 H14        7.4392    3.5043    1.8717 H         1 RES1    0.0000
     31 C13        8.1944    2.5306    3.4877 C.ar      1 RES1    0.0000
     32 H15        8.7797    1.9612    3.0010 H         1 RES1    0.0000
     33 C14        8.1321    2.4488    4.8727 C.ar      1 RES1    0.0000
     34 H16        8.6762    1.8222    5.3357 H         1 RES1    0.0000
     35 C15        7.2779    3.2790    5.5804 C.ar      1 RES1    0.0000
     36 H17        7.2429    3.2163    6.5283 H         1 RES1    0.0000
@<TRIPOS>BOND
     1    1    2 2
     2    2    4 1
     3    3    4 1
     4    5    2 1
     5    6   18 2
     6    7    3 2
     7    8    7 1
     8    9    8 1
     9   10    8 1
    10   11    8 1
    11   12    5 1
    12   13   12 1
    13   14   12 1
    14   15   12 1
    15   16   15 1
    16   17   15 1
    17   18   15 1
    18   19   18 1
    19   20   19 1
    20   21   19 1
    21   22   19 1
    22   23    5 1
    23   24   23 1
    24   25   23 1
    25   26   23 1
    26   27   26 ar
    27   28   27 1
    28   29   27 ar
    29   30   29 1
    30   31   29 ar
    31   32   31 1
    32   33   31 ar
    33   34   33 1
    34   35   26 ar
    35   36   35 1
    36    5    7 1
    37   33   35 ar
@<TRIPOS>SUBSTRUCTURE
     1 RES1 1

@<TRIPOS>CRYSIN
   8.3521   10.0009   16.2477  90.0000  90.0000  90.0000  19 1

