# MOL2 file generated by ConQuest
# Please check atom types

@<TRIPOS>MOLECULE
TOYYAH
    31    32     1
SMALL
NO_CHARGES
****
Generated from CSD

@<TRIPOS>ATOM
      1 C1         2.5780    8.4786    3.2263 C.ar      1 RES1    0.0000
      2 C2         2.9356    7.4630    4.0538 C.ar      1 RES1    0.0000
      3 C3         3.2488    6.2257    3.5265 C.ar      1 RES1    0.0000
      4 C4         3.1952    6.1179    2.1483 C.ar      1 RES1    0.0000
      5 C5         2.8461    7.1912    1.3729 C.ar      1 RES1    0.0000
      6 C6         2.8338    7.0425   -0.1335 C.3       1 RES1    0.0000
      7 C7         2.2175    8.1628   -0.9173 C.ar      1 RES1    0.0000
      8 C8         1.0725    7.9078   -1.6829 C.ar      1 RES1    0.0000
      9 C9         0.4833    8.8733   -2.4629 C.ar      1 RES1    0.0000
     10 C10        1.0065   10.1394   -2.4614 C.ar      1 RES1    0.0000
     11 C11        2.0971   10.4734   -1.6980 C.ar      1 RES1    0.0000
     12 C12        2.6874    9.4775   -0.9625 C.ar      1 RES1    0.0000
     13 C13        3.6170    5.0750    4.4113 C.3       1 RES1    0.0000
     14 N1         2.5105    8.3738    1.8851 N.ar      1 RES1    0.0000
     15 N2         3.8845    9.8707   -0.2089 N.pl3     1 RES1    0.0000
     16 N3         0.3857   11.1808   -3.2851 N.pl3     1 RES1    0.0000
     17 O1         3.8716   10.9592    0.3530 O.2       1 RES1    0.0000
     18 O2         4.8337    9.1101   -0.1931 O.2       1 RES1    0.0000
     19 O3         0.7021   12.3346   -3.0829 O.2       1 RES1    0.0000
     20 O4        -0.3800   10.8271   -4.1616 O.2       1 RES1    0.0000
     21 H1         2.3617    9.2953    3.5333 H         1 RES1    0.0000
     22 H2         3.0483    7.6497    4.9725 H         1 RES1    0.0000
     23 H3         3.3794    5.2526    1.7455 H         1 RES1    0.0000
     24 H4         3.7806    7.0151   -0.4088 H         1 RES1    0.0000
     25 H5         2.4228    6.2257   -0.3779 H         1 RES1    0.0000
     26 H6         0.7407    6.9924   -1.6784 H         1 RES1    0.0000
     27 H7        -0.2806    8.7109   -2.9562 H         1 RES1    0.0000
     28 H8         2.4926   11.3797   -1.6920 H         1 RES1    0.0000
     29 H9         2.8410    4.7759    5.0465 H         1 RES1    0.0000
     30 H10        4.3983    5.0462    4.6293 H         1 RES1    0.0000
     31 H11        3.7775    4.2780    3.9052 H         1 RES1    0.0000
@<TRIPOS>BOND
     1    1    2 ar
     2    2    3 ar
     3    3    4 ar
     4    4    5 ar
     5    5    6 1
     6    6    7 1
     7    7    8 ar
     8    8    9 ar
     9    9   10 ar
    10   10   11 ar
    11   11   12 ar
    12   12    7 ar
    13   13    3 1
    14   14    1 ar
    15   15   12 1
    16   16   10 1
    17   17   15 2
    18   18   15 2
    19   19   16 2
    20   20   16 2
    21   21    1 1
    22   22    2 1
    23   23    4 1
    24   24    6 1
    25   25    6 1
    26   26    8 1
    27   27    9 1
    28   28   11 1
    29   29   13 1
    30   30   13 1
    31   31   13 1
    32    5   14 ar
@<TRIPOS>SUBSTRUCTURE
     1 RES1 1

@<TRIPOS>CRYSIN
  11.2100   15.1810    7.7340  90.0000 102.7500  90.0000  14 1

