# MOL2 file generated by ConQuest
# Please check atom types

@<TRIPOS>MOLECULE
TOZYUE
    41    43     1
SMALL
NO_CHARGES
****
Generated from CSD

@<TRIPOS>ATOM
      1 O1        -0.3052    4.3494    2.8109 O.3       1 RES1    0.0000
      2 O2        -0.2381    4.9349    0.1074 O.3       1 RES1    0.0000
      3 O3         1.8187    1.6129   -0.4175 O.2       1 RES1    0.0000
      4 O4         1.8387    3.6471   -0.8459 O.2       1 RES1    0.0000
      5 O5        -0.3612    1.7044    2.5879 O.2       1 RES1    0.0000
      6 N1         1.2450    2.6355   -0.5997 N.pl3     1 RES1    0.0000
      7 O6         1.0516    0.8585    3.8662 O.2       1 RES1    0.0000
      8 C1         3.7910    3.7655    2.9388 C.ar      1 RES1    0.0000
      9 H1         4.7093    3.6219    2.9592 H         1 RES1    0.0000
     10 C2         2.9334    2.7350    3.1618 C.ar      1 RES1    0.0000
     11 H2         3.2650    1.8922    3.3712 H         1 RES1    0.0000
     12 C3         1.5650    2.9401    3.0775 C.ar      1 RES1    0.0000
     13 C4         1.0485    4.1963    2.8150 C.ar      1 RES1    0.0000
     14 C5        -0.8285    5.5425    2.3513 C.ar      1 RES1    0.0000
     15 C6        -0.8544    5.8108    0.9941 C.ar      1 RES1    0.0000
     16 C7        -0.9143    3.7592   -0.1591 C.ar      1 RES1    0.0000
     17 C8        -0.2157    2.6482   -0.5399 C.ar      1 RES1    0.0000
     18 C9        -0.8564    1.4409   -0.8159 C.ar      1 RES1    0.0000
     19 H3        -0.3694    0.6865   -1.0580 H         1 RES1    0.0000
     20 C10       -2.2338    1.3967   -0.7208 C.ar      1 RES1    0.0000
     21 H4        -2.6854    0.6060   -0.9125 H         1 RES1    0.0000
     22 C11       -2.9220    2.4856   -0.3522 C.ar      1 RES1    0.0000
     23 H5        -3.8484    2.4367   -0.2869 H         1 RES1    0.0000
     24 C12       -2.2949    3.6740   -0.0721 C.ar      1 RES1    0.0000
     25 H6        -2.7941    4.4173    0.1768 H         1 RES1    0.0000
     26 N2         0.7204    1.7817    3.2420 N.pl3     1 RES1    0.0000
     27 C13        3.2910    5.0280    2.6817 C.ar      1 RES1    0.0000
     28 H7         3.8795    5.7335    2.5321 H         1 RES1    0.0000
     29 C14        1.9277    5.2553    2.6423 C.ar      1 RES1    0.0000
     30 H8         1.6016    6.1138    2.5009 H         1 RES1    0.0000
     31 C15       -1.4105    6.4231    3.2393 C.ar      1 RES1    0.0000
     32 H9        -1.4066    6.2322    4.1504 H         1 RES1    0.0000
     33 C16       -1.9970    7.5799    2.7824 C.ar      1 RES1    0.0000
     34 H10       -2.3800    8.1717    3.3889 H         1 RES1    0.0000
     35 C17       -2.0209    7.8671    1.4483 C.ar      1 RES1    0.0000
     36 C18       -1.4443    6.9834    0.5385 C.ar      1 RES1    0.0000
     37 H11       -1.4535    7.1790   -0.3699 H         1 RES1    0.0000
     38 C19       -2.7163    9.1155    0.9261 C.3       1 RES1    0.0000
     39 H12       -3.3093    9.4563    1.5979 H         1 RES1    0.0000
     40 H13       -3.2186    8.8961    0.1374 H         1 RES1    0.0000
     41 H14       -2.0585    9.7814    0.7112 H         1 RES1    0.0000
@<TRIPOS>BOND
     1    1   13 1
     2    2   15 1
     3    3    6 2
     4    4    6 2
     5    5   26 2
     6    6   17 1
     7    7   26 2
     8    8    9 1
     9   10    8 ar
    10   11   10 1
    11   12   10 ar
    12   13   12 ar
    13   14    1 1
    14   15   14 ar
    15   16    2 1
    16   17   16 ar
    17   18   17 ar
    18   19   18 1
    19   20   18 ar
    20   21   20 1
    21   22   20 ar
    22   23   22 1
    23   24   16 ar
    24   25   24 1
    25   26   12 1
    26   27    8 ar
    27   28   27 1
    28   29   13 ar
    29   30   29 1
    30   31   14 ar
    31   32   31 1
    32   33   31 ar
    33   34   33 1
    34   35   33 ar
    35   36   15 ar
    36   37   36 1
    37   38   35 1
    38   39   38 1
    39   40   38 1
    40   41   38 1
    41   22   24 ar
    42   27   29 ar
    43   35   36 ar
@<TRIPOS>SUBSTRUCTURE
     1 RES1 1

@<TRIPOS>CRYSIN
   8.1781   15.7816   13.7018  90.0000  97.0200  90.0000 231 1

