# MOL2 file generated by ConQuest
# Please check atom types

@<TRIPOS>MOLECULE
TPIFCB
    60    61     1
SMALL
NO_CHARGES
****
Generated from CSD

@<TRIPOS>ATOM
      1 O1         3.2533    2.3153    4.9257 O.2       1 RES1    0.0000
      2 O2         1.1102    1.6568    4.8889 O.3       1 RES1    0.0000
      3 O3         2.3566    1.1300    3.2390 O.3       1 RES1    0.0000
      4 O4        -1.0648    2.8079    9.7584 O.2       1 RES1    0.0000
      5 O5         6.1888    0.6146   -0.6243 O.2       1 RES1    0.0000
      6 N1        -0.5426    2.5332    8.6155 N.3       1 RES1    0.0000
      7 N2         5.2784    0.7593    0.2794 N.3       1 RES1    0.0000
      8 C1         2.3452    1.7560    4.4037 C.2       1 RES1    0.0000
      9 C2         0.8400    2.2633    6.1951 C.3       1 RES1    0.0000
     10 C3         1.0648    1.2438    7.2679 C.3       1 RES1    0.0000
     11 C4         0.7447    1.7869    8.6649 C.3       1 RES1    0.0000
     12 C5        -1.0602    3.3396    7.4657 C.3       1 RES1    0.0000
     13 C6        -0.5925    2.6844    6.1480 C.3       1 RES1    0.0000
     14 C7         0.5562    0.6276    9.6572 C.3       1 RES1    0.0000
     15 C8         1.8548    2.7185    9.1846 C.3       1 RES1    0.0000
     16 C9        -2.5495    3.3949    7.5243 C.3       1 RES1    0.0000
     17 C10       -0.4245    4.7818    7.5933 C.3       1 RES1    0.0000
     18 C11        3.6620    0.9853    2.5859 C.3       1 RES1    0.0000
     19 C12        3.5053   -0.1886    1.6661 C.3       1 RES1    0.0000
     20 C13        4.7631   -0.4959    0.8692 C.3       1 RES1    0.0000
     21 C14        5.2103    2.0925    0.9049 C.3       1 RES1    0.0000
     22 C15        3.9344    2.1966    1.7408 C.3       1 RES1    0.0000
     23 C16        5.8574   -1.1349    1.7557 C.3       1 RES1    0.0000
     24 C17        4.4248   -1.4601   -0.2610 C.3       1 RES1    0.0000
     25 C18        6.4704    2.3380    1.7764 C.3       1 RES1    0.0000
     26 C19        5.1808    3.1445   -0.2173 C.3       1 RES1    0.0000
     27 H2         1.4076    2.9754    6.2549 H         1 RES1    0.0000
     28 H3         0.3405    0.4878    7.0828 H         1 RES1    0.0000
     29 H31        2.0887    0.9918    7.2782 H         1 RES1    0.0000
     30 H6        -1.1124    1.8698    6.0709 H         1 RES1    0.0000
     31 H61       -0.7038    3.2843    5.3581 H         1 RES1    0.0000
     32 H7         0.0454    0.0488    9.2674 H         1 RES1    0.0000
     33 H71        0.4541    0.8942   10.5667 H         1 RES1    0.0000
     34 H72        1.4757    0.2601    9.5548 H         1 RES1    0.0000
     35 H8         1.4530    3.0567   10.0837 H         1 RES1    0.0000
     36 H81        2.5881    2.1787    9.0949 H         1 RES1    0.0000
     37 H82        1.9752    3.4632    8.6005 H         1 RES1    0.0000
     38 H9        -2.7471    3.7721    8.3935 H         1 RES1    0.0000
     39 H91       -2.9060    2.5039    7.4392 H         1 RES1    0.0000
     40 H92       -2.6108    3.9672    6.8758 H         1 RES1    0.0000
     41 H10        0.4995    4.6826    7.5197 H         1 RES1    0.0000
     42 H101      -0.7719    5.2842    6.8183 H         1 RES1    0.0000
     43 H102      -0.8627    5.1378    8.4280 H         1 RES1    0.0000
     44 H11        4.4952    1.0081    3.2539 H         1 RES1    0.0000
     45 H12        2.7698    0.0163    1.0463 H         1 RES1    0.0000
     46 H121       3.3146   -0.9105    2.1731 H         1 RES1    0.0000
     47 H15        3.2238    2.3738    1.0578 H         1 RES1    0.0000
     48 H151       3.9957    2.9266    2.3226 H         1 RES1    0.0000
     49 H16        5.4033   -1.9999    1.7937 H         1 RES1    0.0000
     50 H161       6.7201   -1.2194    1.1613 H         1 RES1    0.0000
     51 H162       6.0163   -0.5365    2.4721 H         1 RES1    0.0000
     52 H17        3.8595   -0.9755   -0.8049 H         1 RES1    0.0000
     53 H171       5.1990   -1.6909   -0.6784 H         1 RES1    0.0000
     54 H172       3.9730   -2.2275    0.1495 H         1 RES1    0.0000
     55 H18        7.1060    2.0812    1.2303 H         1 RES1    0.0000
     56 H181       6.3795    3.2193    2.0466 H         1 RES1    0.0000
     57 H182       6.5385    1.5609    2.4836 H         1 RES1    0.0000
     58 H19        5.1763    3.9672    0.3449 H         1 RES1    0.0000
     59 H191       6.0844    3.0404   -0.6209 H         1 RES1    0.0000
     60 H192       4.4952    2.8941   -0.8394 H         1 RES1    0.0000
@<TRIPOS>BOND
     1    1    8 2
     2    2    8 1
     3    3    8 1
     4    4    6 1
     5    5    7 1
     6    6   11 1
     7    7   20 1
     8    9    2 1
     9   10    9 1
    10   11   10 1
    11   12    6 1
    12   13    9 1
    13   14   11 1
    14   15   11 1
    15   16   12 1
    16   17   12 1
    17   18    3 1
    18   19   18 1
    19   20   19 1
    20   21    7 1
    21   22   18 1
    22   23   20 1
    23   24   20 1
    24   25   21 1
    25   26   21 1
    26   27    9 1
    27   28   10 1
    28   29   10 1
    29   30   13 1
    30   31   13 1
    31   32   14 1
    32   33   14 1
    33   34   14 1
    34   35   15 1
    35   36   15 1
    36   37   15 1
    37   38   16 1
    38   39   16 1
    39   40   16 1
    40   41   17 1
    41   42   17 1
    42   43   17 1
    43   44   18 1
    44   45   19 1
    45   46   19 1
    46   47   22 1
    47   48   22 1
    48   49   23 1
    49   50   23 1
    50   51   23 1
    51   52   24 1
    52   53   24 1
    53   54   24 1
    54   55   25 1
    55   56   25 1
    56   57   25 1
    57   58   26 1
    58   59   26 1
    59   60   26 1
    60   12   13 1
    61   21   22 1
@<TRIPOS>SUBSTRUCTURE
     1 RES1 1

@<TRIPOS>CRYSIN
  22.7030   16.2590   11.4980  90.0000  90.0000  90.0000  61 1

