# MOL2 file generated by ConQuest
# Please check atom types

@<TRIPOS>MOLECULE
TUBFEB
    40    40     1
SMALL
NO_CHARGES
****
Generated from CSD

@<TRIPOS>ATOM
      1 O1         0.1576    4.0997    8.9325 O.3       1 RES1    0.0000
      2 O2        -2.2825    2.2181    6.0917 O.2       1 RES1    0.0000
      3 O3         1.5159    3.8029   11.9416 O.2       1 RES1    0.0000
      4 O4         2.1528    5.7129   11.2194 O.2       1 RES1    0.0000
      5 N1         1.3011    4.8765   11.4192 N.pl3     1 RES1    0.0000
      6 N2        -0.8400    3.9709    6.1840 N.am      1 RES1    0.0000
      7 C1        -0.0790    5.1937   10.9962 C.3       1 RES1    0.0000
      8 C2        -0.6498    4.1147   10.1163 C.3       1 RES1    0.0000
      9 C3         0.0649    2.8740    8.1858 C.3       1 RES1    0.0000
     10 C4         0.2871    3.2199    6.7134 C.3       1 RES1    0.0000
     11 C5        -2.0203    3.4121    5.9351 C.2       1 RES1    0.0000
     12 C6        -2.1189    4.3797    9.7949 C.3       1 RES1    0.0000
     13 C7        -2.3854    5.7192    9.1370 C.3       1 RES1    0.0000
     14 C8         1.5620    3.9907    6.4633 C.3       1 RES1    0.0000
     15 C9         1.0138    1.8238    8.6883 C.ar      1 RES1    0.0000
     16 C10        2.2528    2.1220    9.2118 C.ar      1 RES1    0.0000
     17 C11        3.1133    1.1212    9.6126 C.ar      1 RES1    0.0000
     18 C12        2.7393   -0.2021    9.5215 C.ar      1 RES1    0.0000
     19 C13        1.5133   -0.5166    9.0260 C.ar      1 RES1    0.0000
     20 C14        0.6288    0.4851    8.6240 C.ar      1 RES1    0.0000
     21 H1         0.4139    2.3197    6.2647 H         1 RES1    0.0000
     22 H2        -0.9124    2.4697    8.2746 H         1 RES1    0.0000
     23 H3        -0.5746    3.1821   10.5498 H         1 RES1    0.0000
     24 H4        -2.7677    4.0221    5.5565 H         1 RES1    0.0000
     25 H5        -0.3526    0.2336    8.2688 H         1 RES1    0.0000
     26 H6         1.2155   -1.5138    8.9395 H         1 RES1    0.0000
     27 H7         3.3863   -0.9254    9.7961 H         1 RES1    0.0000
     28 H8         4.0361    1.3638   10.0789 H         1 RES1    0.0000
     29 H9         2.5513    3.1121    9.2270 H         1 RES1    0.0000
     30 H10       -2.4649    3.6754    9.1779 H         1 RES1    0.0000
     31 H11       -2.6403    4.3689   10.6468 H         1 RES1    0.0000
     32 H12       -0.1329    6.0660   10.4575 H         1 RES1    0.0000
     33 H13       -0.7227    5.3158   11.7826 H         1 RES1    0.0000
     34 H14       -1.0213    4.7022    6.9004 H         1 RES1    0.0000
     35 H15        1.5698    4.8900    6.9588 H         1 RES1    0.0000
     36 H16        2.4022    3.4948    6.7964 H         1 RES1    0.0000
     37 H17        1.8210    4.2557    5.4934 H         1 RES1    0.0000
     38 H18       -2.0226    6.4505    9.7376 H         1 RES1    0.0000
     39 H19       -1.8472    5.7569    8.2688 H         1 RES1    0.0000
     40 H20       -3.3210    5.9366    8.9173 H         1 RES1    0.0000
@<TRIPOS>BOND
     1    1    8 1
     2    2   11 2
     3    3    5 2
     4    4    5 2
     5    5    7 1
     6    6   10 1
     7    7    8 1
     8    8   12 1
     9    9    1 1
    10   10    9 1
    11   11    6 1
    12   12   13 1
    13   13   38 1
    14   14   10 1
    15   15    9 1
    16   16   15 ar
    17   17   16 ar
    18   18   17 ar
    19   19   18 ar
    20   20   15 ar
    21   21   10 1
    22   22    9 1
    23   23    8 1
    24   24   11 1
    25   25   20 1
    26   26   19 1
    27   27   18 1
    28   28   17 1
    29   29   16 1
    30   30   12 1
    31   31   12 1
    32   32    7 1
    33   33    7 1
    34   34    6 1
    35   35   14 1
    36   36   14 1
    37   37   14 1
    38   39   13 1
    39   40   13 1
    40   19   20 ar
@<TRIPOS>SUBSTRUCTURE
     1 RES1 1

@<TRIPOS>CRYSIN
   7.3920    8.9840   12.2020  90.0000 106.7280  90.0000   4 1

