# MOL2 file generated by ConQuest
# Please check atom types

@<TRIPOS>MOLECULE
TUCJOS
    20    21     1
SMALL
NO_CHARGES
****
Generated from CSD

@<TRIPOS>ATOM
      1 N1        -1.9284    4.9884    8.7034 N.am      1 RES1    0.0000
      2 H1        -2.2996    5.3527    9.4221 H         1 RES1    0.0000
      3 N2        -1.6394    5.0584    6.3953 N.am      1 RES1    0.0000
      4 H2        -1.7683    5.5368    5.5839 H         1 RES1    0.0000
      5 N3         0.7213    0.0653    8.9302 N.pl3     1 RES1    0.0000
      6 O1        -2.8158    6.6727    7.4790 O.2       1 RES1    0.0000
      7 O2        -0.4532    3.4985    5.2719 O.2       1 RES1    0.0000
      8 O3         1.0072   -0.4849    7.8698 O.2       1 RES1    0.0000
      9 O4         0.9479   -0.4296   10.0246 O.2       1 RES1    0.0000
     10 C1        -2.1755    5.6274    7.5326 C.2       1 RES1    0.0000
     11 C2        -0.9201    3.8947    6.3350 C.2       1 RES1    0.0000
     12 C3        -0.7696    3.1939    7.6107 C.ar      1 RES1    0.0000
     13 C4        -0.1191    1.9643    7.6602 C.ar      1 RES1    0.0000
     14 H3         0.1998    1.5506    6.8675 H         1 RES1    0.0000
     15 C5         0.0499    1.3640    8.8842 C.ar      1 RES1    0.0000
     16 C6        -0.3870    1.9497   10.0714 C.ar      1 RES1    0.0000
     17 H4        -0.2321    1.5190   10.9039 H         1 RES1    0.0000
     18 C7        -1.0450    3.1584   10.0249 C.ar      1 RES1    0.0000
     19 H5        -1.3527    3.5674   10.8255 H         1 RES1    0.0000
     20 C8        -1.2580    3.7835    8.7842 C.ar      1 RES1    0.0000
@<TRIPOS>BOND
     1    1    2 1
     2    3    4 1
     3    5    8 2
     4    6   10 2
     5    7   11 2
     6    9    5 2
     7   10    1 1
     8   11    3 1
     9   12   11 1
    10   13   12 ar
    11   14   13 1
    12   15    5 1
    13   16   15 ar
    14   17   16 1
    15   18   16 ar
    16   19   18 1
    17   20    1 1
    18    3   10 1
    19   12   20 ar
    20   13   15 ar
    21   18   20 ar
@<TRIPOS>SUBSTRUCTURE
     1 RES1 1

@<TRIPOS>CRYSIN
  10.9071    6.5758   12.4614  90.0000 112.3820  90.0000  14 1

