# MOL2 file generated by ConQuest
# Please check atom types

@<TRIPOS>MOLECULE
TUCNUC
    71    74     1
SMALL
NO_CHARGES
****
Generated from CSD

@<TRIPOS>ATOM
      1 N1        -2.6189    4.1753    4.7731 N.3       1 RES1    0.0000
      2 O1        -1.5113    5.0192    4.3626 O.3       1 RES1    0.0000
      3 O2        -2.6804    3.1806    3.7679 O.3       1 RES1    0.0000
      4 O3        -3.7471    7.9714    3.5068 O.3       1 RES1    0.0000
      5 O4        -2.4963    6.7606    2.0923 O.2       1 RES1    0.0000
      6 O5        -6.0662    6.3956    2.1501 O.3       1 RES1    0.0000
      7 O6        -6.3099    6.4919    4.3760 O.2       1 RES1    0.0000
      8 O7        -5.4355    4.3175   11.0413 O.3       1 RES1    0.0000
      9 C1        -3.8583    5.0066    4.8116 C.3       1 RES1    0.0000
     10 C2        -3.6066    6.0760    5.9393 C.3       1 RES1    0.0000
     11 H1        -4.2227    6.8360    5.7333 H         1 RES1    0.0000
     12 C3        -2.1743    6.6815    5.9324 C.3       1 RES1    0.0000
     13 H2        -2.1563    7.4418    5.2981 H         1 RES1    0.0000
     14 H3        -1.9785    7.0396    6.8341 H         1 RES1    0.0000
     15 C4        -1.0725    5.7056    5.5501 C.3       1 RES1    0.0000
     16 H4        -0.9120    5.0535    6.2914 H         1 RES1    0.0000
     17 C5        -2.8242    3.7316    2.4302 C.3       1 RES1    0.0000
     18 H5        -2.0502    4.3328    2.2301 H         1 RES1    0.0000
     19 C6        -4.1244    4.5193    2.3249 C.3       1 RES1    0.0000
     20 H6        -4.8899    3.8991    2.4257 H         1 RES1    0.0000
     21 H7        -4.1834    4.9317    1.4272 H         1 RES1    0.0000
     22 C7        -4.2208    5.6292    3.4033 C.3       1 RES1    0.0000
     23 C8        -4.0066    5.5840    7.3235 C.ar      1 RES1    0.0000
     24 C9        -5.2138    6.0292    7.8630 C.ar      1 RES1    0.0000
     25 H8        -5.7500    6.6337    7.3637 H         1 RES1    0.0000
     26 C10       -5.6494    5.6108    9.1099 C.ar      1 RES1    0.0000
     27 H9        -6.4708    5.9348    9.4605 H         1 RES1    0.0000
     28 C11       -4.8816    4.7138    9.8485 C.ar      1 RES1    0.0000
     29 C12       -3.6669    4.2739    9.3449 C.ar      1 RES1    0.0000
     30 H10       -3.1272    3.6792    9.8529 H         1 RES1    0.0000
     31 C13       -3.2401    4.7081    8.0902 C.ar      1 RES1    0.0000
     32 H11       -2.4078    4.4003    7.7510 H         1 RES1    0.0000
     33 C14        0.2276    6.3902    5.1537 C.3       1 RES1    0.0000
     34 H12        0.0755    6.9057    4.3229 H         1 RES1    0.0000
     35 H13        0.9047    5.6962    4.9562 H         1 RES1    0.0000
     36 C15        0.7856    7.3311    6.2203 C.3       1 RES1    0.0000
     37 H14        1.6055    7.7594    5.8692 H         1 RES1    0.0000
     38 H15        0.1232    8.0467    6.3912 H         1 RES1    0.0000
     39 C16        1.1167    6.6484    7.5351 C.3       1 RES1    0.0000
     40 H16        1.4632    7.3104    8.1693 H         1 RES1    0.0000
     41 H17        1.7933    5.9569    7.3819 H         1 RES1    0.0000
     42 H18        0.3066    6.2376    7.9025 H         1 RES1    0.0000
     43 C17       -2.8004    2.5518    1.4954 C.ar      1 RES1    0.0000
     44 C18       -3.5534    1.4125    1.7625 C.ar      1 RES1    0.0000
     45 H19       -4.0815    1.3698    2.5513 H         1 RES1    0.0000
     46 C19       -3.5377    0.3386    0.8840 C.ar      1 RES1    0.0000
     47 H20       -4.0459   -0.4401    1.0801 H         1 RES1    0.0000
     48 C20       -2.7829    0.3961   -0.2779 C.ar      1 RES1    0.0000
     49 H21       -2.7763   -0.3385   -0.8794 H         1 RES1    0.0000
     50 C21       -2.0422    1.5271   -0.5551 C.ar      1 RES1    0.0000
     51 H22       -1.5308    1.5739   -1.3546 H         1 RES1    0.0000
     52 C22       -2.0410    2.5980    0.3297 C.ar      1 RES1    0.0000
     53 H23       -1.5181    3.3680    0.1373 H         1 RES1    0.0000
     54 C23       -3.3500    6.8218    2.9307 C.2       1 RES1    0.0000
     55 C24       -3.0450    9.1641    3.0729 C.3       1 RES1    0.0000
     56 H24       -3.4891    9.9562    3.4410 H         1 RES1    0.0000
     57 H25       -3.0538    9.2099    2.0941 H         1 RES1    0.0000
     58 H26       -2.1185    9.1312    3.3905 H         1 RES1    0.0000
     59 C25       -5.6505    6.2083    3.4166 C.2       1 RES1    0.0000
     60 C26       -7.3826    6.9767    2.0178 C.3       1 RES1    0.0000
     61 H27       -7.5761    7.1362    1.0697 H         1 RES1    0.0000
     62 H28       -7.4153    7.8268    2.5047 H         1 RES1    0.0000
     63 H29       -8.0500    6.3619    2.3881 H         1 RES1    0.0000
     64 C27       -4.9626    4.0152    5.2274 C.3       1 RES1    0.0000
     65 H30       -5.2125    3.4626    4.4576 H         1 RES1    0.0000
     66 H31       -5.7474    4.5123    5.5403 H         1 RES1    0.0000
     67 H32       -4.6307    3.4407    5.9482 H         1 RES1    0.0000
     68 C28       -4.5740    3.6973   11.9861 C.3       1 RES1    0.0000
     69 H33       -5.0576    3.5583   12.8276 H         1 RES1    0.0000
     70 H34       -3.7967    4.2729   12.1464 H         1 RES1    0.0000
     71 H35       -4.2735    2.8331   11.6362 H         1 RES1    0.0000
@<TRIPOS>BOND
     1    1    2 1
     2    2   15 1
     3    3    1 1
     4    4   54 1
     5    5   54 2
     6    6   59 1
     7    7   59 2
     8    8   28 1
     9    9    1 1
    10   10    9 1
    11   11   10 1
    12   12   10 1
    13   13   12 1
    14   14   12 1
    15   15   12 1
    16   16   15 1
    17   17    3 1
    18   18   17 1
    19   19   17 1
    20   20   19 1
    21   21   19 1
    22   22    9 1
    23   23   10 1
    24   24   23 ar
    25   25   24 1
    26   26   24 ar
    27   27   26 1
    28   28   26 ar
    29   29   28 ar
    30   30   29 1
    31   31   23 ar
    32   32   31 1
    33   33   15 1
    34   34   33 1
    35   35   33 1
    36   36   33 1
    37   37   36 1
    38   38   36 1
    39   39   36 1
    40   40   39 1
    41   41   39 1
    42   42   39 1
    43   43   17 1
    44   44   43 ar
    45   45   44 1
    46   46   44 ar
    47   47   46 1
    48   48   46 ar
    49   49   48 1
    50   50   48 ar
    51   51   50 1
    52   52   43 ar
    53   53   52 1
    54   54   22 1
    55   55    4 1
    56   56   55 1
    57   57   55 1
    58   58   55 1
    59   59   22 1
    60   60    6 1
    61   61   60 1
    62   62   60 1
    63   63   60 1
    64   64    9 1
    65   65   64 1
    66   66   64 1
    67   67   64 1
    68   68    8 1
    69   69   68 1
    70   70   68 1
    71   71   68 1
    72   19   22 1
    73   29   31 ar
    74   50   52 ar
@<TRIPOS>SUBSTRUCTURE
     1 RES1 1

@<TRIPOS>CRYSIN
   9.9769   10.2057   13.3210 102.3380  92.7030 102.5210   2 1

