# MOL2 file generated by ConQuest
# Please check atom types

@<TRIPOS>MOLECULE
TUDXOH
    30    31     1
SMALL
NO_CHARGES
****
Generated from CSD

@<TRIPOS>ATOM
      1 O1         6.7923    8.4667    7.7296 O.2       1 RES1    0.0000
      2 O2         5.0378    8.5443    3.2909 O.2       1 RES1    0.0000
      3 O3         3.5974    7.0957    2.5883 O.2       1 RES1    0.0000
      4 O4         4.1295    8.7066    8.8964 O.2       1 RES1    0.0000
      5 O5         4.0713   10.2043   10.4591 O.2       1 RES1    0.0000
      6 N1         5.3147    8.3610    5.9865 N.am      1 RES1    0.0000
      7 N2         4.4630    7.4605    3.3679 N.pl3     1 RES1    0.0000
      8 N3         4.3219    9.8412    9.3134 N.pl3     1 RES1    0.0000
      9 C1         5.5280   10.4094    7.2260 C.ar      1 RES1    0.0000
     10 C2         4.8586   10.8405    8.3731 C.ar      1 RES1    0.0000
     11 C3         4.6484   12.1748    8.6527 C.ar      1 RES1    0.0000
     12 H1         4.1962   12.4352    9.4468 H         1 RES1    0.0000
     13 C4         5.1076   13.1282    7.7587 C.ar      1 RES1    0.0000
     14 H2         4.9781   14.0525    7.9372 H         1 RES1    0.0000
     15 C5         5.7584   12.7260    6.5993 C.ar      1 RES1    0.0000
     16 H3         6.0640   13.3801    5.9801 H         1 RES1    0.0000
     17 C6         5.9685   11.3801    6.3355 C.ar      1 RES1    0.0000
     18 H4         6.4169   11.1208    5.5390 H         1 RES1    0.0000
     19 H5         4.7081    8.8918    5.5235 H         1 RES1    0.0000
     20 C7         5.9251    8.9686    7.0250 C.2       1 RES1    0.0000
     21 C8         5.3589    6.9906    5.6679 C.ar      1 RES1    0.0000
     22 C9         4.8679    6.5283    4.4361 C.ar      1 RES1    0.0000
     23 C10        4.7423    5.1776    4.1514 C.ar      1 RES1    0.0000
     24 H6         4.3692    4.8966    3.3244 H         1 RES1    0.0000
     25 C11        5.1634    4.2460    5.0785 C.ar      1 RES1    0.0000
     26 H7         5.0991    3.3169    4.8896 H         1 RES1    0.0000
     27 C12        5.6816    4.6821    6.2905 C.ar      1 RES1    0.0000
     28 H8         5.9810    4.0437    6.9283 H         1 RES1    0.0000
     29 C13        5.7684    6.0292    6.5838 C.ar      1 RES1    0.0000
     30 H9         6.1136    6.3030    7.4250 H         1 RES1    0.0000
@<TRIPOS>BOND
     1    1   20 2
     2    2    7 2
     3    3    7 2
     4    4    8 2
     5    5    8 2
     6    6   19 1
     7    7   22 1
     8    8   10 1
     9    9   10 ar
    10   10   11 ar
    11   11   12 1
    12   13   11 ar
    13   14   13 1
    14   15   13 ar
    15   16   15 1
    16   17    9 ar
    17   18   17 1
    18   20    6 1
    19   21    6 1
    20   22   21 ar
    21   23   22 ar
    22   24   23 1
    23   25   23 ar
    24   26   25 1
    25   27   25 ar
    26   28   27 1
    27   29   21 ar
    28   30   29 1
    29    9   20 1
    30   15   17 ar
    31   27   29 ar
@<TRIPOS>SUBSTRUCTURE
     1 RES1 1

@<TRIPOS>CRYSIN
   7.7564   12.1142   12.9355  90.0000  90.0000  90.0000  19 1

