# MOL2 file generated by ConQuest
# Please check atom types

@<TRIPOS>MOLECULE
TUDXEW
    55    56     1
SMALL
NO_CHARGES
****
Generated from CSD

@<TRIPOS>ATOM
      1 C1        10.2200    7.5580    6.4682 C.3       1 RES1    0.0000
      2 H1        10.9715    8.0699    6.8335 H         1 RES1    0.0000
      3 C2         9.9665    6.3761    7.3728 C.3       1 RES1    0.0000
      4 H2         9.2119    5.8643    7.0418 H         1 RES1    0.0000
      5 H3         9.7560    6.6857    8.2671 H         1 RES1    0.0000
      6 C3        11.2153    5.4955    7.4108 C.3       1 RES1    0.0000
      7 H4        11.9367    5.9798    7.8419 H         1 RES1    0.0000
      8 H5        11.0318    4.7016    7.9354 H         1 RES1    0.0000
      9 C4        11.6459    5.0882    6.0129 C.3       1 RES1    0.0000
     10 H6        10.9786    4.4938    5.6359 H         1 RES1    0.0000
     11 H7        12.4832    4.6011    6.0677 H         1 RES1    0.0000
     12 C5        11.8238    6.2825    5.0901 C.3       1 RES1    0.0000
     13 H8        12.5309    6.8357    5.4854 H         1 RES1    0.0000
     14 C6        10.5544    7.1742    5.0177 C.3       1 RES1    0.0000
     15 C7        12.3331    5.8436    3.7200 C.3       1 RES1    0.0000
     16 H9        13.1608    5.3675    3.8230 H         1 RES1    0.0000
     17 H10       12.4745    6.6169    3.1690 H         1 RES1    0.0000
     18 H11       11.6832    5.2712    3.3064 H         1 RES1    0.0000
     19 C8         9.3628    6.4477    4.3681 C.3       1 RES1    0.0000
     20 H12        9.6059    6.1642    3.4832 H         1 RES1    0.0000
     21 H13        8.6129    7.0448    4.3184 H         1 RES1    0.0000
     22 H14        9.1277    5.6826    4.8972 H         1 RES1    0.0000
     23 C9        10.8221    8.4414    4.1774 C.3       1 RES1    0.0000
     24 H15       10.9238    8.1745    3.2509 H         1 RES1    0.0000
     25 H16       10.0388    9.0110    4.2308 H         1 RES1    0.0000
     26 C10       12.0185    9.2532    4.5640 C.2       1 RES1    0.0000
     27 H17       12.1202    9.4101    5.4744 H         1 RES1    0.0000
     28 C11       12.9535    9.7802    3.7828 C.2       1 RES1    0.0000
     29 C12       14.0688   10.6030    4.3710 C.3       1 RES1    0.0000
     30 H18       13.9417   10.6856    5.3188 H         1 RES1    0.0000
     31 H19       14.0688   11.4753    3.9706 H         1 RES1    0.0000
     32 H20       14.9101   10.1723    4.1979 H         1 RES1    0.0000
     33 C13       12.9463    9.6302    2.3382 C.2       1 RES1    0.0000
     34 H21       12.2282    9.1706    1.9678 H         1 RES1    0.0000
     35 C14       13.8599   10.0815    1.5009 C.2       1 RES1    0.0000
     36 H22       14.5971   10.5466    1.8238 H         1 RES1    0.0000
     37 H23       13.7662    9.9329    0.5875 H         1 RES1    0.0000
     38 C15        8.9140    9.3220    7.4027 C.2       1 RES1    0.0000
     39 C16        7.7947   10.2700    7.1382 C.ar      1 RES1    0.0000
     40 C17        7.4602   11.1713    8.1334 C.ar      1 RES1    0.0000
     41 H24        7.9122   11.1671    8.9460 H         1 RES1    0.0000
     42 C18        6.4426   12.0808    7.8989 C.ar      1 RES1    0.0000
     43 C19        5.7197   12.1000    6.7268 C.ar      1 RES1    0.0000
     44 H25        5.0190   12.6999    6.5953 H         1 RES1    0.0000
     45 C20        6.0811   11.1905    5.7601 C.ar      1 RES1    0.0000
     46 C21        7.1051   10.2810    5.9289 C.ar      1 RES1    0.0000
     47 H26        7.3299    9.6880    5.2486 H         1 RES1    0.0000
     48 N1         5.3511   11.1974    4.4865 N.pl3     1 RES1    0.0000
     49 N2         6.1542   13.0811    8.9306 N.pl3     1 RES1    0.0000
     50 O1         9.0469    8.4312    6.4221 O.3       1 RES1    0.0000
     51 O2         9.6114    9.3825    8.3724 O.2       1 RES1    0.0000
     52 O3         5.6530   10.3553    3.6535 O.2       1 RES1    0.0000
     53 O4         4.5122   12.0532    4.3126 O.2       1 RES1    0.0000
     54 O5         5.2176   13.8475    8.7275 O.2       1 RES1    0.0000
     55 O6         6.8739   13.1306    9.9163 O.2       1 RES1    0.0000
@<TRIPOS>BOND
     1    1    2 1
     2    3    1 1
     3    4    3 1
     4    5    3 1
     5    6    3 1
     6    7    6 1
     7    8    6 1
     8    9    6 1
     9   10    9 1
    10   11    9 1
    11   12    9 1
    12   13   12 1
    13   14    1 1
    14   15   12 1
    15   16   15 1
    16   17   15 1
    17   18   15 1
    18   19   14 1
    19   20   19 1
    20   21   19 1
    21   22   19 1
    22   23   14 1
    23   24   23 1
    24   25   23 1
    25   26   23 1
    26   27   26 1
    27   28   26 2
    28   29   28 1
    29   30   29 1
    30   31   29 1
    31   32   29 1
    32   33   28 1
    33   34   33 1
    34   35   33 2
    35   36   35 1
    36   37   35 1
    37   38   39 1
    38   39   40 ar
    39   40   41 1
    40   42   40 ar
    41   43   42 ar
    42   44   43 1
    43   45   43 ar
    44   46   39 ar
    45   47   46 1
    46   48   45 1
    47   49   42 1
    48   50    1 1
    49   51   38 2
    50   52   48 2
    51   53   48 2
    52   54   49 2
    53   55   49 2
    54   12   14 1
    55   38   50 1
    56   45   46 ar
@<TRIPOS>SUBSTRUCTURE
     1 RES1 1

@<TRIPOS>CRYSIN
  15.8880   15.8880    7.3070  90.0000  90.0000 120.0000 144 1

