# MOL2 file generated by ConQuest
# Please check atom types

@<TRIPOS>MOLECULE
TUDZUO
    57    54     2
SMALL
USER_CHARGES
****
Generated from CSD

@<TRIPOS>ATOM
      1 N1         1.1558    8.4613    7.5188 N.pl3     1 RES1    1.0000
      2 O1         0.2482    8.0479    6.8061 O.2       1 RES1   -1.0000
      3 N2         1.3121    8.2342    8.7687 N.2       1 RES1    0.0000
      4 O2         0.2834    7.3827    9.1797 O.3       1 RES1    0.0000
      5 N3         2.2037    9.3213    7.0326 N.3       1 RES1    0.0000
      6 C1         1.5917   10.1889    6.0321 C.3       1 RES1    0.0000
      7 H1         0.7874   10.6045    6.4083 H         1 RES1    0.0000
      8 H2         1.3466    9.6587    5.2464 H         1 RES1    0.0000
      9 H3         2.2282   10.8862    5.7702 H         1 RES1    0.0000
     10 C2         3.3825    8.2428    6.7983 C.3       1 RES1    0.0000
     11 C3         3.1566    7.3860    5.5891 C.3       1 RES1    0.0000
     12 C4         4.6548    9.1414    6.6590 C.3       1 RES1    0.0000
     13 C5         0.5982    6.9383   10.4864 C.3       1 RES1    0.0000
     14 H4         1.1520    7.6152   10.9721 H         1 RES1    0.0000
     15 C6        -0.6871    6.6791   11.2080 C.3       1 RES1    0.0000
     16 H5        -1.2095    5.9722   10.7297 H         1 RES1    0.0000
     17 C7        -0.3439    6.2078   12.6215 C.3       1 RES1    0.0000
     18 H6         0.0950    6.9415   13.1397 H         1 RES1    0.0000
     19 C8         0.5576    5.0018   12.5387 C.3       1 RES1    0.0000
     20 H7         0.0337    4.2039   12.2426 H         1 RES1    0.0000
     21 C9         1.7449    5.2246   11.6059 C.3       1 RES1    0.0000
     22 H8         2.3745    5.8822   12.0197 H         1 RES1    0.0000
     23 O3         1.2953    5.7237   10.3460 O.3       1 RES1    0.0000
     24 O4        -1.4530    7.8840   11.2827 O.3       1 RES1    0.0000
     25 C10       -2.7000    7.8636   10.7386 C.2       1 RES1    0.0000
     26 O5        -3.2286    6.8547   10.3521 O.2       1 RES1    0.0000
     27 C11       -3.2891    9.2421   10.6987 C.3       1 RES1    0.0000
     28 H9        -4.1814    9.2035   10.2950 H         1 RES1    0.0000
     29 H10       -2.7131    9.8280   10.1641 H         1 RES1    0.0000
     30 H11       -3.3572    9.5945   11.6101 H         1 RES1    0.0000
     31 O6        -1.5672    5.7965   13.2598 O.3       1 RES1    0.0000
     32 C12       -2.0735    6.5805   14.2442 C.2       1 RES1    0.0000
     33 O7        -1.5266    7.5852   14.6440 O.2       1 RES1    0.0000
     34 C13       -3.3718    6.0611   14.7187 C.3       1 RES1    0.0000
     35 H12       -3.7127    6.6373   15.4328 H         1 RES1    0.0000
     36 H13       -3.2531    5.1507   15.0622 H         1 RES1    0.0000
     37 H14       -4.0106    6.0493   13.9756 H         1 RES1    0.0000
     38 O8         1.1015    4.7737   13.8705 O.3       1 RES1    0.0000
     39 C14        1.0095    3.5077   14.3804 C.2       1 RES1    0.0000
     40 O9         0.4803    2.6123   13.8095 O.2       1 RES1    0.0000
     41 C15        1.6798    3.4188   15.7002 C.3       1 RES1    0.0000
     42 H15        1.5940    2.5073   16.0485 H         1 RES1    0.0000
     43 H16        1.2600    4.0475   16.3243 H         1 RES1    0.0000
     44 H17        2.6288    3.6426   15.5999 H         1 RES1    0.0000
     45 C16        2.4802    3.9436   11.3148 C.3       1 RES1    0.0000
     46 H18        3.2829    4.1278   10.7659 H         1 RES1    0.0000
     47 H19        2.7697    3.5163   12.1590 H         1 RES1    0.0000
     48 O10        1.5725    3.0728   10.5990 O.3       1 RES1    0.0000
     49 C17        1.7901    1.7565   10.6360 C.2       1 RES1    0.0000
     50 O11        2.6250    1.2810   11.3891 O.2       1 RES1    0.0000
     51 C18        0.8456    1.0143    9.7748 C.3       1 RES1    0.0000
     52 H20        1.0348    0.0546    9.8325 H         1 RES1    0.0000
     53 H21        0.9475    1.3110    8.8462 H         1 RES1    0.0000
     54 H22       -0.0720    1.1846   10.0749 H         1 RES1    0.0000
     55 C19        3.2623    8.7119    6.3219 Du        2 SUP2    0.0000
     56 C20        3.6904    7.4674    7.0825 Du        2 SUP2    0.0000
     57 C21        4.4549    9.7155    6.1408 Du        2 SUP2    0.0000
@<TRIPOS>BOND
     1    1    2 1
     2    3    1 2
     3    4    3 1
     4    5    1 1
     5    6    5 1
     6    7    6 1
     7    8    6 1
     8    9    6 1
     9   10    5 1
    10   11   10 1
    11   12   10 1
    12   13    4 1
    13   14   13 1
    14   15   13 1
    15   16   15 1
    16   17   15 1
    17   18   17 1
    18   19   17 1
    19   20   19 1
    20   21   19 1
    21   22   21 1
    22   23   13 1
    23   24   15 1
    24   25   24 1
    25   26   25 2
    26   27   25 1
    27   28   27 1
    28   29   27 1
    29   30   27 1
    30   31   17 1
    31   32   31 1
    32   33   32 2
    33   34   32 1
    34   35   34 1
    35   36   34 1
    36   37   34 1
    37   38   19 1
    38   39   38 1
    39   40   39 2
    40   41   39 1
    41   42   41 1
    42   43   41 1
    43   44   41 1
    44   45   21 1
    45   46   45 1
    46   47   45 1
    47   48   45 1
    48   49   48 1
    49   50   49 2
    50   51   49 1
    51   52   51 1
    52   53   51 1
    53   54   51 1
    54   21   23 1
@<TRIPOS>SUBSTRUCTURE
     1 RES1 1
     2 SUP2 55

@<TRIPOS>CRYSIN
   7.6597   10.7105   27.8620  90.0000  90.0000  90.0000  19 1

