# MOL2 file generated by ConQuest
# Please check atom types

@<TRIPOS>MOLECULE
TUFFAB
    21    22     1
SMALL
NO_CHARGES
****
Generated from CSD

@<TRIPOS>ATOM
      1 N1         5.9987   10.6275    5.1821 N.pl3     1 RES1    0.0000
      2 O1         5.3319   11.4147    5.8276 O.2       1 RES1    0.0000
      3 O2         7.0675   10.9340    4.6816 O.2       1 RES1    0.0000
      4 C1         2.5946    7.2535    6.0173 C.3       1 RES1    0.0000
      5 H1         2.7156    6.5531    6.6778 H         1 RES1    0.0000
      6 H2         1.9109    6.9767    5.3888 H         1 RES1    0.0000
      7 C2         2.2178    8.5486    6.6792 C.3       1 RES1    0.0000
      8 H3         2.0792    8.4066    7.6284 H         1 RES1    0.0000
      9 H4         1.3932    8.8865    6.2969 H         1 RES1    0.0000
     10 C3         3.3299    9.5448    6.4661 C.3       1 RES1    0.0000
     11 H5         2.9932   10.3505    6.0442 H         1 RES1    0.0000
     12 H6         3.7448    9.7823    7.3099 H         1 RES1    0.0000
     13 C4         4.3051    8.8470    5.5735 C.ar      1 RES1    0.0000
     14 C5         5.4946    9.2638    4.9860 C.ar      1 RES1    0.0000
     15 C6         6.2365    8.4410    4.1720 C.ar      1 RES1    0.0000
     16 H7         7.0328    8.7422    3.7968 H         1 RES1    0.0000
     17 C7         5.7845    7.1625    3.9207 C.ar      1 RES1    0.0000
     18 H8         6.2732    6.6016    3.3622 H         1 RES1    0.0000
     19 C8         4.6164    6.7113    4.4884 C.ar      1 RES1    0.0000
     20 H9         4.3210    5.8452    4.3192 H         1 RES1    0.0000
     21 C9         3.8826    7.5420    5.3081 C.ar      1 RES1    0.0000
@<TRIPOS>BOND
     1    1    2 2
     2    3    1 2
     3    4    5 1
     4    6    4 1
     5    7    4 1
     6    8    7 1
     7    9    7 1
     8   10    7 1
     9   11   10 1
    10   12   10 1
    11   13   10 1
    12   14    1 1
    13   15   14 ar
    14   16   15 1
    15   17   15 ar
    16   18   17 1
    17   19   17 ar
    18   20   19 1
    19   21    4 1
    20   13   14 ar
    21   13   21 ar
    22   19   21 ar
@<TRIPOS>SUBSTRUCTURE
     1 RES1 1

@<TRIPOS>CRYSIN
   7.3320    8.3040    8.3580  61.4300  67.6000  70.1500   2 1

