# MOL2 file generated by ConQuest
# Please check atom types

@<TRIPOS>MOLECULE
TUFKIQ
    36    38     1
SMALL
NO_CHARGES
****
Generated from CSD

@<TRIPOS>ATOM
      1 N1         9.9970    3.2787    0.9965 N.am      1 RES1    0.0000
      2 H1        10.6712    3.2223    0.4644 H         1 RES1    0.0000
      3 C1         9.2974    4.4626    1.0347 C.2       1 RES1    0.0000
      4 N2         8.0930    4.3948    1.5996 N.am      1 RES1    0.0000
      5 H2         7.7196    5.1241    1.8618 H         1 RES1    0.0000
      6 C2         7.3797    3.1354    1.7936 C.3       1 RES1    0.0000
      7 H3         6.7438    3.2585    2.5294 H         1 RES1    0.0000
      8 C3         8.4105    2.1185    2.2330 C.2       1 RES1    0.0000
      9 C4         9.6775    2.1749    1.7645 C.2       1 RES1    0.0000
     10 C5        10.8075    1.2401    1.9376 C.ar      1 RES1    0.0000
     11 C6        12.0503    1.7660    2.2570 C.ar      1 RES1    0.0000
     12 H4        12.1288    2.6745    2.4365 H         1 RES1    0.0000
     13 C7        13.1703    0.9685    2.3139 C.ar      1 RES1    0.0000
     14 H5        13.9961    1.3337    2.5352 H         1 RES1    0.0000
     15 C8        13.0543   -0.3784    2.0389 C.ar      1 RES1    0.0000
     16 H6        13.8099   -0.9200    2.0635 H         1 RES1    0.0000
     17 C9        11.8310   -0.9297    1.7277 C.ar      1 RES1    0.0000
     18 H7        11.7668   -1.8409    1.5527 H         1 RES1    0.0000
     19 C10       10.6925   -0.1377    1.6740 C.ar      1 RES1    0.0000
     20 O1         9.4938   -0.6443    1.3410 O.3       1 RES1    0.0000
     21 H8         9.5680   -1.4484    1.1957 H         1 RES1    0.0000
     22 O2         9.7866    5.5014    0.5703 O.2       1 RES1    0.0000
     23 N3         8.0103    1.1586    3.2216 N.pl3     1 RES1    0.0000
     24 O3         6.8071    1.0572    3.4517 O.2       1 RES1    0.0000
     25 O4         8.8525    0.5174    3.8335 O.2       1 RES1    0.0000
     26 C11        6.5913    2.7133    0.5542 C.ar      1 RES1    0.0000
     27 C12        6.9411    3.1226   -0.7227 C.ar      1 RES1    0.0000
     28 H9         7.6675    3.6916   -0.8388 H         1 RES1    0.0000
     29 C13        6.2242    2.6966   -1.8276 C.ar      1 RES1    0.0000
     30 H10        6.4714    2.9789   -2.6788 H         1 RES1    0.0000
     31 C14        5.1427    1.8515   -1.6642 C.ar      1 RES1    0.0000
     32 H11        4.6701    1.5463   -2.4046 H         1 RES1    0.0000
     33 C15        4.7695    1.4669   -0.4020 C.ar      1 RES1    0.0000
     34 H12        4.0316    0.9112   -0.2859 H         1 RES1    0.0000
     35 C16        5.4839    1.9000    0.6987 C.ar      1 RES1    0.0000
     36 H13        5.2156    1.6407    1.5498 H         1 RES1    0.0000
@<TRIPOS>BOND
     1    1    2 1
     2    3    1 1
     3    4    3 1
     4    5    4 1
     5    6    4 1
     6    7    6 1
     7    8    6 1
     8    9    1 1
     9   10    9 1
    10   11   10 ar
    11   12   11 1
    12   13   11 ar
    13   14   13 1
    14   15   13 ar
    15   16   15 1
    16   17   15 ar
    17   18   17 1
    18   19   10 ar
    19   20   19 1
    20   21   20 1
    21   22    3 2
    22   23    8 1
    23   24   23 2
    24   25   23 2
    25   26    6 1
    26   27   26 ar
    27   28   27 1
    28   29   27 ar
    29   30   29 1
    30   31   29 ar
    31   32   31 1
    32   33   31 ar
    33   34   33 1
    34   35   26 ar
    35   36   35 1
    36    8    9 2
    37   17   19 ar
    38   33   35 ar
@<TRIPOS>SUBSTRUCTURE
     1 RES1 1

@<TRIPOS>CRYSIN
  11.1070    8.8210   15.1110  90.0000 106.1930  90.0000  14 1

