# MOL2 file generated by ConQuest
# Please check atom types

@<TRIPOS>MOLECULE
TUGHOS
    40    42     1
SMALL
NO_CHARGES
****
Generated from CSD

@<TRIPOS>ATOM
      1 C1         4.3939   -2.0505    1.2845 C.3       1 RES1    0.0000
      2 C2         4.2720   -1.5748    2.7603 C.3       1 RES1    0.0000
      3 C3         2.8402   -1.7798    3.0037 C.2       1 RES1    0.0000
      4 C4         2.1913   -1.5256    1.8501 C.2       1 RES1    0.0000
      5 C5         3.2448   -1.1975    0.8642 C.3       1 RES1    0.0000
      6 O1         3.7545    0.1353    1.2303 O.3       1 RES1    0.0000
      7 N1         4.4130   -0.1394    2.4811 N.am      1 RES1    0.0000
      8 C6         4.5303    0.8776    3.3443 C.2       1 RES1    0.0000
      9 O2         4.9825    0.6225    4.4908 O.2       1 RES1    0.0000
     10 C7         4.0796    2.2473    2.9322 C.3       1 RES1    0.0000
     11 C8         2.6210    2.4196    3.2328 C.3       1 RES1    0.0000
     12 N2         4.8922    3.2677    3.5898 N.am      1 RES1    0.0000
     13 C9         6.1476    3.4038    3.3668 C.2       1 RES1    0.0000
     14 O3         6.7795    2.7829    2.4842 O.2       1 RES1    0.0000
     15 O4         6.7428    4.3315    4.1349 O.3       1 RES1    0.0000
     16 C10        8.0700    4.6915    3.8403 C.3       1 RES1    0.0000
     17 C11        8.1018    5.7168    2.7133 C.ar      1 RES1    0.0000
     18 C12        8.3134    5.2821    1.3735 C.ar      1 RES1    0.0000
     19 C13        8.3070    6.2089    0.3580 C.ar      1 RES1    0.0000
     20 C14        8.0588    7.4720    0.5932 C.ar      1 RES1    0.0000
     21 C15        7.8440    7.9641    1.8614 C.ar      1 RES1    0.0000
     22 C16        7.9013    7.0291    2.9454 C.ar      1 RES1    0.0000
     23 H1         4.2335   -3.0101    1.1659 H         1 RES1    0.0000
     24 H2         5.2468   -1.8044    0.8591 H         1 RES1    0.0000
     25 H3         4.8497   -1.9603    3.4568 H         1 RES1    0.0000
     26 H4         2.4339   -2.0423    3.8557 H         1 RES1    0.0000
     27 H5         1.2275   -1.5584    1.6977 H         1 RES1    0.0000
     28 H6         2.9365   -1.2795   -0.0614 H         1 RES1    0.0000
     29 H7         4.2019    2.3540    1.9636 H         1 RES1    0.0000
     30 H8         4.5027    3.8139    4.1727 H         1 RES1    0.0000
     31 H9         8.5679    3.8960    3.5693 H         1 RES1    0.0000
     32 H10        8.4838    5.0770    4.6432 H         1 RES1    0.0000
     33 H11        8.4729    4.3389    1.1761 H         1 RES1    0.0000
     34 H12        8.5010    5.9218   -0.5625 H         1 RES1    0.0000
     35 H13        8.0110    8.0872   -0.1636 H         1 RES1    0.0000
     36 H14        7.6685    8.9156    2.0250 H         1 RES1    0.0000
     37 H15        7.7832    7.3490    3.8659 H         1 RES1    0.0000
     38 H16        2.1279    1.6322    2.9045 H         1 RES1    0.0000
     39 H17        2.2809    3.2152    2.7818 H         1 RES1    0.0000
     40 H18        2.4890    2.5016    4.2034 H         1 RES1    0.0000
@<TRIPOS>BOND
     1    1    2 1
     2    2    3 1
     3    3    4 2
     4    4    5 1
     5    5    1 1
     6    6    5 1
     7    7    2 1
     8    8    7 1
     9    9    8 2
    10   10    8 1
    11   11   10 1
    12   12   10 1
    13   13   12 1
    14   14   13 2
    15   15   13 1
    16   16   15 1
    17   17   16 1
    18   18   17 ar
    19   19   18 ar
    20   20   19 ar
    21   21   20 ar
    22   22   17 ar
    23   23    1 1
    24   24    1 1
    25   25    2 1
    26   26    3 1
    27   27    4 1
    28   28    5 1
    29   29   10 1
    30   30   12 1
    31   31   16 1
    32   32   16 1
    33   33   18 1
    34   34   19 1
    35   35   20 1
    36   36   21 1
    37   37   22 1
    38   38   11 1
    39   39   11 1
    40   40   11 1
    41    6    7 1
    42   21   22 ar
@<TRIPOS>SUBSTRUCTURE
     1 RES1 1

@<TRIPOS>CRYSIN
   9.4860    8.2020   10.2660  90.0000  94.9800  90.0000   4 1

