# MOL2 file generated by ConQuest
# Please check atom types

@<TRIPOS>MOLECULE
TUGZUR
    50    54     1
SMALL
NO_CHARGES
****
Generated from CSD

@<TRIPOS>ATOM
      1 C1         3.3225    2.1498   14.6161 C.3       1 RES1    0.0000
      2 H1         2.5310    2.1155   15.1935 H         1 RES1    0.0000
      3 C2         4.5338    2.3757   15.5086 C.3       1 RES1    0.0000
      4 H2         5.3079    2.6027   14.9526 H         1 RES1    0.0000
      5 C3         4.8837    1.2096   16.3995 C.ar      1 RES1    0.0000
      6 C4         6.0765    0.5659   16.2328 C.ar      1 RES1    0.0000
      7 H3         6.6847    0.8888   15.6071 H         1 RES1    0.0000
      8 C5         6.4010   -0.5609   16.9813 C.ar      1 RES1    0.0000
      9 H4         7.2121   -0.9967   16.8495 H         1 RES1    0.0000
     10 C6         5.5130   -1.0199   17.9131 C.ar      1 RES1    0.0000
     11 C7         6.9683   -2.8025   18.5494 C.3       1 RES1    0.0000
     12 H5         6.9844   -3.5762   19.1191 H         1 RES1    0.0000
     13 H6         7.6682   -2.1992   18.8085 H         1 RES1    0.0000
     14 H7         7.0986   -3.0738   17.6388 H         1 RES1    0.0000
     15 C8         4.3264   -0.3682   18.1237 C.ar      1 RES1    0.0000
     16 H8         3.7332   -0.6759   18.7706 H         1 RES1    0.0000
     17 C9         4.0122    0.7576   17.3676 C.ar      1 RES1    0.0000
     18 H9         3.2116    1.2055   17.5146 H         1 RES1    0.0000
     19 C10        3.7441    4.6274   15.7010 C.ar      1 RES1    0.0000
     20 C11        3.8483    5.8218   16.3995 C.ar      1 RES1    0.0000
     21 H10        4.2234    5.8370   17.2495 H         1 RES1    0.0000
     22 C12        3.3908    6.9820   15.8222 C.ar      1 RES1    0.0000
     23 H11        3.4536    7.7860   16.2858 H         1 RES1    0.0000
     24 C13        2.8430    6.9608   14.5632 C.ar      1 RES1    0.0000
     25 H12        2.5531    7.7517   14.1677 H         1 RES1    0.0000
     26 C14        2.7222    5.7664   13.8874 C.ar      1 RES1    0.0000
     27 H13        2.3198    5.7512   13.0496 H         1 RES1    0.0000
     28 C15        3.1958    4.5871   14.4435 C.ar      1 RES1    0.0000
     29 C16        3.1245    3.3059   13.6220 C.3       1 RES1    0.0000
     30 H14        2.2215    3.2332   13.2450 H         1 RES1    0.0000
     31 C17        4.1106    3.3704   12.4757 C.2       1 RES1    0.0000
     32 C18        5.1758    4.1956   12.3935 C.2       1 RES1    0.0000
     33 H15        5.4381    4.7878   13.0602 H         1 RES1    0.0000
     34 C19        5.1481    3.0981   10.4618 C.ar      1 RES1    0.0000
     35 C20        5.4153    2.6431    9.1921 C.ar      1 RES1    0.0000
     36 H16        6.1371    2.9659    8.7043 H         1 RES1    0.0000
     37 C21        4.5762    1.6988    8.6770 C.ar      1 RES1    0.0000
     38 H17        4.7382    1.3579    7.8270 H         1 RES1    0.0000
     39 C22        3.4763    1.2358    9.4042 C.ar      1 RES1    0.0000
     40 H18        2.9101    0.6043    9.0224 H         1 RES1    0.0000
     41 C23        3.2181    1.6968   10.6739 C.ar      1 RES1    0.0000
     42 H19        2.4885    1.3780   11.1542 H         1 RES1    0.0000
     43 C24        4.0696    2.6522   11.2262 C.ar      1 RES1    0.0000
     44 N1         3.3969    0.8535   13.8746 N.pl3     1 RES1    0.0000
     45 N2         5.8124    4.0433   11.2045 N.pl3     1 RES1    0.0000
     46 H20        6.5159    4.4700   10.9557 H         1 RES1    0.0000
     47 O1         2.3528    0.2865   13.6424 O.2       1 RES1    0.0000
     48 O2         4.4956    0.4943   13.5032 O.2       1 RES1    0.0000
     49 O3         5.7103   -2.1508   18.6744 O.3       1 RES1    0.0000
     50 O4         4.2080    3.4975   16.3571 O.3       1 RES1    0.0000
@<TRIPOS>BOND
     1    1    2 1
     2    3    1 1
     3    4    3 1
     4    5    3 1
     5    6    5 ar
     6    7    6 1
     7    8    6 ar
     8    9    8 1
     9   10    8 ar
    10   11   12 1
    11   13   11 1
    12   14   11 1
    13   15   10 ar
    14   16   15 1
    15   17    5 ar
    16   18   17 1
    17   19   20 ar
    18   20   21 1
    19   22   20 ar
    20   23   22 1
    21   24   22 ar
    22   25   24 1
    23   26   24 ar
    24   27   26 1
    25   28   19 ar
    26   29    1 1
    27   30   29 1
    28   31   29 1
    29   32   31 2
    30   33   32 1
    31   34   35 ar
    32   35   36 1
    33   37   35 ar
    34   38   37 1
    35   39   37 ar
    36   40   39 1
    37   41   39 ar
    38   42   41 1
    39   43   31 1
    40   44    1 1
    41   45   32 1
    42   46   45 1
    43   47   44 2
    44   48   44 2
    45   49   10 1
    46   50    3 1
    47   11   49 1
    48   15   17 ar
    49   19   50 1
    50   26   28 ar
    51   28   29 1
    52   34   43 ar
    53   34   45 1
    54   41   43 ar
@<TRIPOS>SUBSTRUCTURE
     1 RES1 1

@<TRIPOS>CRYSIN
  12.9428   10.0881   15.9582  90.0000 108.3010  90.0000 231 1

