# MOL2 file generated by ConQuest
# Please check atom types

@<TRIPOS>MOLECULE
TUJDUY
    43    43     1
SMALL
NO_CHARGES
****
Generated from CSD

@<TRIPOS>ATOM
      1 O1         0.9125    3.6031    7.2253 O.2       1 RES1    0.0000
      2 N1         1.7451    2.6488    7.3250 N.pl3     1 RES1    0.0000
      3 C1         3.0568    2.7390    7.3509 C.2       1 RES1    0.0000
      4 C2         3.5439    1.3521    7.4500 C.2       1 RES1    0.0000
      5 O2         4.6839    0.9501    7.4889 O.2       1 RES1    0.0000
      6 C3         2.3347    0.4719    7.4855 C.2       1 RES1    0.0000
      7 C4         1.2521    1.2295    7.4231 C.2       1 RES1    0.0000
      8 C5         3.7921    4.0506    7.2863 C.3       1 RES1    0.0000
      9 C6         3.3301    4.9587    8.4229 C.3       1 RES1    0.0000
     10 H1         2.3718    5.0977    8.3573 H         1 RES1    0.0000
     11 H2         3.7851    5.8133    8.3602 H         1 RES1    0.0000
     12 H3         3.5386    4.5427    9.2743 H         1 RES1    0.0000
     13 C7         5.2999    3.8254    7.4090 C.3       1 RES1    0.0000
     14 H4         5.4963    3.4103    8.2642 H         1 RES1    0.0000
     15 H5         5.7598    4.6771    7.3501 H         1 RES1    0.0000
     16 H6         5.5999    3.2451    6.6925 H         1 RES1    0.0000
     17 C8         3.5050    4.7096    5.9373 C.3       1 RES1    0.0000
     18 H7         3.8065    4.1267    5.2225 H         1 RES1    0.0000
     19 H8         3.9766    5.5559    5.8839 H         1 RES1    0.0000
     20 H9         2.5524    4.8638    5.8487 H         1 RES1    0.0000
     21 C9         2.5117   -1.0002    7.6324 C.2       1 RES1    0.0000
     22 O3         2.5983   -1.5603    8.6776 O.2       1 RES1    0.0000
     23 O4         2.6182   -1.5914    6.4545 O.3       1 RES1    0.0000
     24 C10        2.8806   -3.0276    6.4789 C.3       1 RES1    0.0000
     25 H10        2.2021   -3.4870    7.0166 H         1 RES1    0.0000
     26 H11        3.7599   -3.2045    6.8731 H         1 RES1    0.0000
     27 C11        2.8393   -3.5110    5.0857 C.3       1 RES1    0.0000
     28 H12        1.9518   -3.3719    4.7208 H         1 RES1    0.0000
     29 H13        3.0526   -4.4576    5.0657 H         1 RES1    0.0000
     30 H14        3.4880   -3.0228    4.5545 H         1 RES1    0.0000
     31 C12       -0.2275    0.9670    7.4620 C.3       1 RES1    0.0000
     32 C13       -0.8372    1.6355    8.7025 C.3       1 RES1    0.0000
     33 H15       -0.4023    1.2948    9.4995 H         1 RES1    0.0000
     34 H16       -1.7862    1.4393    8.7422 H         1 RES1    0.0000
     35 H17       -0.7073    2.5954    8.6491 H         1 RES1    0.0000
     36 C14       -0.9130    1.4866    6.1911 C.3       1 RES1    0.0000
     37 H18       -0.7768    2.4445    6.1186 H         1 RES1    0.0000
     38 H19       -1.8638    1.2979    6.2355 H         1 RES1    0.0000
     39 H20       -0.5320    1.0469    5.4154 H         1 RES1    0.0000
     40 C15       -0.4717   -0.5409    7.5563 C.3       1 RES1    0.0000
     41 H21       -0.0723   -0.9816    6.7904 H         1 RES1    0.0000
     42 H22       -1.4264   -0.7135    7.5677 H         1 RES1    0.0000
     43 H23       -0.0714   -0.8830    8.3706 H         1 RES1    0.0000
@<TRIPOS>BOND
     1    1    2 1
     2    2    3 2
     3    3    4 1
     4    4    5 2
     5    6    4 1
     6    7    2 1
     7    8    3 1
     8    9    8 1
     9   10    9 1
    10   11    9 1
    11   12    9 1
    12   13    8 1
    13   14   13 1
    14   15   13 1
    15   16   13 1
    16   17    8 1
    17   18   17 1
    18   19   17 1
    19   20   17 1
    20   21    6 1
    21   22   21 2
    22   23   21 1
    23   24   23 1
    24   25   24 1
    25   26   24 1
    26   27   24 1
    27   28   27 1
    28   29   27 1
    29   30   27 1
    30   31    7 1
    31   32   31 1
    32   33   32 1
    33   34   32 1
    34   35   32 1
    35   36   31 1
    36   37   36 1
    37   38   36 1
    38   39   36 1
    39   40   31 1
    40   41   40 1
    41   42   40 1
    42   43   40 1
    43    6    7 2
@<TRIPOS>SUBSTRUCTURE
     1 RES1 1

@<TRIPOS>CRYSIN
   9.1990    9.8972   10.4887 112.7240  92.0090 109.4040   2 1

