# MOL2 file generated by ConQuest
# Please check atom types

@<TRIPOS>MOLECULE
TUJDOS
    94    85     2
SMALL
NO_CHARGES
****
Generated from CSD

@<TRIPOS>ATOM
      1 O1         0.8936    2.8748   18.4171 O.2       1 RES1    0.0000
      2 N1         2.0981    2.4441   18.4244 N.pl3     1 RES1    0.0000
      3 C1         2.8734    2.3257   19.6072 C.2       1 RES1    0.0000
      4 C2         2.2979    2.6550   20.9664 C.3       1 RES1    0.0000
      5 C3         3.3378    2.3923   22.0453 C.3       1 RES1    0.0000
      6 H1         2.9585    2.5940   22.9159 H         1 RES1    0.0000
      7 H2         4.1130    2.9529   21.8914 H         1 RES1    0.0000
      8 H3         3.6023    1.4598   22.0172 H         1 RES1    0.0000
      9 C4         1.0787    1.7669   21.2253 C.3       1 RES1    0.0000
     10 H4         0.7678    1.9020   22.1355 H         1 RES1    0.0000
     11 H5         1.3247    0.8363   21.1036 H         1 RES1    0.0000
     12 H6         0.3719    1.9982   20.6043 H         1 RES1    0.0000
     13 C5         1.9020    4.1463   21.0212 C.3       1 RES1    0.0000
     14 H7         1.4839    4.3387   21.8766 H         1 RES1    0.0000
     15 H8         1.2766    4.3424   20.3048 H         1 RES1    0.0000
     16 H9         2.6939    4.6958   20.9187 H         1 RES1    0.0000
     17 C6         4.0501    1.8224   19.1760 C.2       1 RES1    0.0000
     18 C7         5.2916    1.4968   19.9445 C.2       1 RES1    0.0000
     19 O2         5.4007    0.2165   20.1320 O.3       1 RES1    0.0000
     20 O3         6.1001    2.3016   20.3055 O.2       1 RES1    0.0000
     21 C8         6.6959   -0.2350   20.6746 C.3       1 RES1    0.0000
     22 H10        7.4193    0.0389   20.0718 H         1 RES1    0.0000
     23 H11        6.8513    0.1795   21.5475 H         1 RES1    0.0000
     24 C9         6.6922   -1.5505   20.8004 C.3       1 RES1    0.0000
     25 H12        5.9539   -1.8206   21.3699 H         1 RES1    0.0000
     26 H13        7.5285   -1.8409   21.1961 H         1 RES1    0.0000
     27 H14        6.5904   -1.9594   19.9238 H         1 RES1    0.0000
     28 C10        4.0223    1.6337   17.7199 C.2       1 RES1    0.0000
     29 C11        2.8031    2.0278   17.2679 C.2       1 RES1    0.0000
     30 C12        2.1425    2.1240   15.9036 C.3       1 RES1    0.0000
     31 C13        0.9603    1.1453   15.8307 C.3       1 RES1    0.0000
     32 H15        0.3090    1.3728   16.5138 H         1 RES1    0.0000
     33 H16        1.2803    0.2424   15.9775 H         1 RES1    0.0000
     34 H17        0.5458    1.2045   14.9567 H         1 RES1    0.0000
     35 C14        3.1472    1.7336   14.8143 C.3       1 RES1    0.0000
     36 H18        3.4247    0.8141   14.9456 H         1 RES1    0.0000
     37 H19        3.9224    2.3146   14.8680 H         1 RES1    0.0000
     38 H20        2.7327    1.8261   13.9433 H         1 RES1    0.0000
     39 C15        1.6855    3.5616   15.6432 C.3       1 RES1    0.0000
     40 H21        2.4552    4.1537   15.6594 H         1 RES1    0.0000
     41 H22        1.0565    3.8299   16.3289 H         1 RES1    0.0000
     42 H23        1.2581    3.6134   14.7755 H         1 RES1    0.0000
     43 O4         8.2149    0.5662   15.5452 O.2       1 RES1    0.0000
     44 N2         7.0400    0.4681   16.0437 N.pl3     1 RES1    0.0000
     45 C16        6.3129   -0.7493   16.0885 C.2       1 RES1    0.0000
     46 C17        6.9049   -2.0352   15.5688 C.3       1 RES1    0.0000
     47 C18        7.1196   -1.9113   14.0469 C.3       1 RES1    0.0000
     48 H24        7.7745   -1.2174   13.8694 H         1 RES1    0.0000
     49 H25        6.2796   -1.6818   13.6179 H         1 RES1    0.0000
     50 H26        7.4415   -2.7549   13.6955 H         1 RES1    0.0000
     51 C19        5.9373   -3.1990   15.8015 C.3       1 RES1    0.0000
     52 H27        6.3443   -4.0242   15.4930 H         1 RES1    0.0000
     53 H28        5.1177   -3.0417   15.3081 H         1 RES1    0.0000
     54 H29        5.7393   -3.2712   16.7468 H         1 RES1    0.0000
     55 C20        8.2241   -2.3516   16.2734 C.3       1 RES1    0.0000
     56 H30        8.1039   -2.2739   17.2313 H         1 RES1    0.0000
     57 H31        8.9050   -1.7281   15.9812 H         1 RES1    0.0000
     58 H32        8.4980   -3.2564   16.0552 H         1 RES1    0.0000
     59 C21        5.1528   -0.4200   16.6802 C.2       1 RES1    0.0000
     60 C22        3.9668   -1.2655   16.9665 C.2       1 RES1    0.0000
     61 O5         4.1111   -1.8243   18.1678 O.3       1 RES1    0.0000
     62 O6         3.0898   -1.6060   16.2253 O.2       1 RES1    0.0000
     63 C23        2.9492   -2.5829   18.6552 C.3       1 RES1    0.0000
     64 H33        2.2776   -2.6458   17.9451 H         1 RES1    0.0000
     65 H34        3.2267   -3.4913   18.8919 H         1 RES1    0.0000
     66 C24        2.4034   -1.9834   19.7352 C.3       1 RES1    0.0000
     67 H35        3.0843   -1.8632   20.4157 H         1 RES1    0.0000
     68 H36        1.6892   -2.5385   20.0866 H         1 RES1    0.0000
     69 H37        2.0463   -1.1194   19.4763 H         1 RES1    0.0000
     70 C25        5.1491    1.0121   16.9976 C.2       1 RES1    0.0000
     71 C26        6.3092    1.5542   16.5952 C.2       1 RES1    0.0000
     72 C27        6.9234    2.9418   16.6148 C.3       1 RES1    0.0000
     73 C28        5.9040    3.9354   17.1784 C.3       1 RES1    0.0000
     74 H38        6.2851    4.8290   17.1721 H         1 RES1    0.0000
     75 H39        5.6783    3.6874   18.0894 H         1 RES1    0.0000
     76 H40        5.1029    3.9224   16.6322 H         1 RES1    0.0000
     77 C29        7.2583    3.3822   15.1764 C.3       1 RES1    0.0000
     78 H41        7.9022    2.7679   14.7903 H         1 RES1    0.0000
     79 H42        7.6321    4.2758   15.1897 H         1 RES1    0.0000
     80 H43        6.4498    3.3785   14.6424 H         1 RES1    0.0000
     81 C30        8.1816    2.9363   17.5309 C.3       1 RES1    0.0000
     82 H44        7.9318    2.6476   18.4222 H         1 RES1    0.0000
     83 H45        8.5553    3.8299   17.5716 H         1 RES1    0.0000
     84 H46        8.8421    2.3257   17.1684 H         1 RES1    0.0000
     85 C31        3.9668   -1.2655   16.9665 Du        2 SUP2    0.0000
     86 C32        2.3239   -1.8465   18.6072 Du        2 SUP2    0.0000
     87 C33        2.5625   -2.9714   19.3247 Du        2 SUP2    0.0000
     88 H47        1.7947   -1.2230   19.1471 Du        2 SUP2    0.0000
     89 H48        1.8076   -2.0741   17.8083 Du        2 SUP2    0.0000
     90 H49        2.8142   -3.6911   18.7255 Du        2 SUP2    0.0000
     91 H50        1.7614   -3.2212   19.8092 Du        2 SUP2    0.0000
     92 H51        3.2841   -2.8086   19.9534 Du        2 SUP2    0.0000
     93 O7         3.5820   -1.2063   18.2114 Du        2 SUP2    0.0000
     94 O8         3.2564   -1.5542   16.0478 Du        2 SUP2    0.0000
@<TRIPOS>BOND
     1    1    2 1
     2    2    3 1
     3    3    4 1
     4    4    5 1
     5    5    6 1
     6    7    5 1
     7    8    5 1
     8    9    4 1
     9   10    9 1
    10   11    9 1
    11   12    9 1
    12   13    4 1
    13   14   13 1
    14   15   13 1
    15   16   13 1
    16   17    3 2
    17   18   17 1
    18   19   18 1
    19   20   18 2
    20   21   19 1
    21   22   21 1
    22   23   21 1
    23   24   21 1
    24   25   24 1
    25   26   24 1
    26   27   24 1
    27   28   17 1
    28   29    2 1
    29   30   29 1
    30   31   30 1
    31   32   31 1
    32   33   31 1
    33   34   31 1
    34   35   30 1
    35   36   35 1
    36   37   35 1
    37   38   35 1
    38   39   30 1
    39   40   39 1
    40   41   39 1
    41   42   39 1
    42   43   44 1
    43   44   45 1
    44   45   46 1
    45   46   47 1
    46   47   48 1
    47   49   47 1
    48   50   47 1
    49   51   46 1
    50   52   51 1
    51   53   51 1
    52   54   51 1
    53   55   46 1
    54   56   55 1
    55   57   55 1
    56   58   55 1
    57   59   45 2
    58   60   59 1
    59   61   60 1
    60   62   60 2
    61   63   61 1
    62   64   63 1
    63   65   63 1
    64   66   63 1
    65   67   66 1
    66   68   66 1
    67   69   66 1
    68   70   28 1
    69   71   44 1
    70   72   71 1
    71   73   72 1
    72   74   73 1
    73   75   73 1
    74   76   73 1
    75   77   72 1
    76   78   77 1
    77   79   77 1
    78   80   77 1
    79   81   72 1
    80   82   81 1
    81   83   81 1
    82   84   81 1
    83   28   29 2
    84   59   70 1
    85   70   71 2
@<TRIPOS>SUBSTRUCTURE
     1 RES1 1
     2 SUP2 85

@<TRIPOS>CRYSIN
  18.5020   18.5020   36.9850  90.0000  90.0000  90.0000  88 1

