# MOL2 file generated by ConQuest
# Please check atom types

@<TRIPOS>MOLECULE
TUKBUW
    37    39     2
SMALL
USER_CHARGES
****
Generated from CSD

@<TRIPOS>ATOM
      1 N1         6.0488    8.2770    8.4594 N.pl3     1 RES1    0.0000
      2 N2         4.8669    7.5748    8.4389 N.2       1 RES1    0.0000
      3 C1         5.2352    6.3386    8.2262 C.2       1 RES1    0.0000
      4 N3         6.6018    6.2518    8.1075 N.pl3     1 RES1    1.0000
      5 C2         7.1102    7.4908    8.2476 C.2       1 RES1    0.0000
      6 C3         5.9655    9.6732    8.7565 C.ar      1 RES1    0.0000
      7 C4         6.8919   10.2534    9.6011 C.ar      1 RES1    0.0000
      8 C5         6.7370   11.5845    9.9410 C.ar      1 RES1    0.0000
      9 C6         5.6506   12.2677    9.4559 C.ar      1 RES1    0.0000
     10 C7         4.7281   11.6984    8.6165 C.ar      1 RES1    0.0000
     11 C8         4.9037   10.3889    8.2382 C.ar      1 RES1    0.0000
     12 C9         8.5193    7.8703    8.1408 C.ar      1 RES1    0.0000
     13 C10        9.4684    7.1519    8.8530 C.ar      1 RES1    0.0000
     14 C11       10.7985    7.4935    8.7480 C.ar      1 RES1    0.0000
     15 C12       11.1712    8.5400    7.9444 C.ar      1 RES1    0.0000
     16 C13       10.2241    9.2611    7.2348 C.ar      1 RES1    0.0000
     17 C14        8.8859    8.9304    7.3338 C.ar      1 RES1    0.0000
     18 N4         7.3037    5.1348    7.6097 N.2       1 RES1   -1.0000
     19 C15        7.7736    4.3540    8.6003 C.2       1 RES1    0.0000
     20 O1         7.6437    4.5465    9.8249 O.2       1 RES1    0.0000
     21 C16        8.4713    3.1367    8.0708 C.ar      1 RES1    0.0000
     22 C17        8.8137    3.0202    6.7258 C.ar      1 RES1    0.0000
     23 C18        9.4575    1.8761    6.2775 C.ar      1 RES1    0.0000
     24 C19        9.7335    0.8486    7.1306 C.ar      1 RES1    0.0000
     25 C20        9.4171    0.9597    8.4747 C.ar      1 RES1    0.0000
     26 C21        8.7861    2.1011    8.9367 C.ar      1 RES1    0.0000
     27 C22        4.3076    5.3382    8.1468 C.ar      1 RES1    0.0000
     28 C23        3.2204    5.3517    7.6848 C.ar      1 RES1    0.0000
     29 C24        4.5695    4.0124    8.7950 C.ar      1 RES1    0.0000
     30 C25        2.2249    4.2971    7.3569 C.ar      1 RES1    0.0000
     31 C26        3.6532    2.9714    8.7190 C.ar      1 RES1    0.0000
     32 C27        2.4989    3.1313    8.0051 C.ar      1 RES1    0.0000
     33 N5         5.4387   13.6694    9.8880 N.pl3     1 RES1    0.0000
     34 O2         4.3648   14.1736    9.6831 O.2       1 RES1    0.0000
     35 O3         6.2164   14.2170   10.3757 O.2       1 RES1    0.0000
     36 O4         5.7365   13.8266   11.1271 Du        2 SUP2    0.0000
     37 O5         6.8053   14.4149   10.0170 Du        2 SUP2    0.0000
@<TRIPOS>BOND
     1    1    2 1
     2    2    3 2
     3    3    4 1
     4    4    5 2
     5    5    1 1
     6    6    1 1
     7    7    6 ar
     8    8    7 ar
     9    9    8 ar
    10   10    9 ar
    11   11    6 ar
    12   12    5 1
    13   13   12 ar
    14   14   13 ar
    15   15   14 ar
    16   16   15 ar
    17   17   12 ar
    18   18    4 1
    19   19   18 1
    20   20   19 2
    21   21   19 1
    22   22   21 ar
    23   23   22 ar
    24   24   23 ar
    25   25   24 ar
    26   26   21 ar
    27   27    3 1
    28   28   27 ar
    29   29   27 ar
    30   30   28 ar
    31   31   29 ar
    32   32   30 ar
    33   33    9 1
    34   34   33 2
    35   35   33 2
    36   10   11 ar
    37   16   17 ar
    38   25   26 ar
    39   31   32 ar
@<TRIPOS>SUBSTRUCTURE
     1 RES1 1
     2 SUP2 36

@<TRIPOS>CRYSIN
  10.0833   27.1110    9.0596  90.0000  70.4940  90.0000  14 1

