# MOL2 file generated by ConQuest
# Please check atom types

@<TRIPOS>MOLECULE
TULTEZ
    42    39     2
SMALL
NO_CHARGES
****
Generated from CSD

@<TRIPOS>ATOM
      1 N1         1.0620    4.8271    4.8689 N.3       1 RES1    0.0000
      2 N2        -0.4960    4.7901    2.6309 N.am      1 RES1    0.0000
      3 O1         1.4099    5.2387    1.4395 O.2       1 RES1    0.0000
      4 O2         1.9111    4.4421    5.9622 O.3       1 RES1    0.0000
      5 O3         3.0068    2.4014    4.1854 O.2       1 RES1    0.0000
      6 C1         1.4622    4.0548    3.5723 C.3       1 RES1    0.0000
      7 C2         0.8310    4.7751    2.4126 C.2       1 RES1    0.0000
      8 C3        -1.4736    5.3416    1.7073 C.3       1 RES1    0.0000
      9 C4        -2.6179    4.3832    1.4801 C.ar      1 RES1    0.0000
     10 C5        -3.6089    4.7589    0.5764 C.ar      1 RES1    0.0000
     11 C6        -4.7030    3.9461    0.3591 C.ar      1 RES1    0.0000
     12 C7        -4.8122    2.7610    1.0407 C.ar      1 RES1    0.0000
     13 C8        -3.8401    2.3771    1.9434 C.ar      1 RES1    0.0000
     14 C9        -2.7321    3.1830    2.1746 C.ar      1 RES1    0.0000
     15 C10       -1.6892    2.7668    3.1845 C.3       1 RES1    0.0000
     16 C11       -0.9498    3.9623    3.7430 C.3       1 RES1    0.0000
     17 C12        0.3481    3.6235    4.4493 C.3       1 RES1    0.0000
     18 C13        2.8093    3.4062    3.5337 C.2       1 RES1    0.0000
     19 C14        2.8575    5.4815    6.1705 C.3       1 RES1    0.0000
     20 C15        3.8767    4.0467    2.7212 C.3       1 RES1    0.0000
     21 H1        -1.0421    5.5347    0.8601 H         1 RES1    0.0000
     22 H2        -1.8183    6.1753    2.0644 H         1 RES1    0.0000
     23 H3        -3.5335    5.5625    0.1151 H         1 RES1    0.0000
     24 H4        -5.3623    4.2005   -0.2460 H         1 RES1    0.0000
     25 H5        -5.5476    2.2107    0.8938 H         1 RES1    0.0000
     26 H6        -3.9289    1.5724    2.4007 H         1 RES1    0.0000
     27 H7        -1.0547    2.1656    2.7628 H         1 RES1    0.0000
     28 H8        -2.1188    2.2870    3.9106 H         1 RES1    0.0000
     29 H9        -1.5363    4.4780    4.3352 H         1 RES1    0.0000
     30 H10        0.4234    2.7980    4.9721 H         1 RES1    0.0000
     31 H11        3.4376    5.2457    6.8987 H         1 RES1    0.0000
     32 H12        2.3965    6.2978    6.3798 H         1 RES1    0.0000
     33 H13        3.3789    5.6041    5.3739 H         1 RES1    0.0000
     34 H14        2.7052    6.1857    5.5366 Du        2 SUP2    0.0000
     35 H15        3.7450    5.1347    6.0554 Du        2 SUP2    0.0000
     36 H16        2.7626    5.8272    7.0614 Du        2 SUP2    0.0000
     37 H17        4.6823    3.5287    2.7857 H         1 RES1    0.0000
     38 H18        4.0392    4.9335    3.0485 H         1 RES1    0.0000
     39 H19        3.5973    4.0906    1.8035 H         1 RES1    0.0000
     40 H20        3.5305    4.8399    2.3065 Du        2 SUP2    0.0000
     41 H21        4.1737    3.4351    2.0436 Du        2 SUP2    0.0000
     42 H22        4.6155    4.2779    3.2886 Du        2 SUP2    0.0000
@<TRIPOS>BOND
     1    1    4 1
     2    2    7 1
     3    3    7 2
     4    4   19 1
     5    5   18 2
     6    6    1 1
     7    7    6 1
     8    8    2 1
     9    9    8 1
    10   10    9 ar
    11   11   10 ar
    12   12   11 ar
    13   13   12 ar
    14   14    9 ar
    15   15   14 1
    16   16    2 1
    17   17    1 1
    18   18    6 1
    19   19   31 1
    20   20   18 1
    21   21    8 1
    22   22    8 1
    23   23   10 1
    24   24   11 1
    25   25   12 1
    26   26   13 1
    27   27   15 1
    28   28   15 1
    29   29   16 1
    30   30   17 1
    31   32   19 1
    32   33   19 1
    33   37   20 1
    34   38   20 1
    35   39   20 1
    36    6   17 1
    37   13   14 ar
    38   15   16 1
    39   16   17 1
@<TRIPOS>SUBSTRUCTURE
     1 RES1 1
     2 SUP2 34

@<TRIPOS>CRYSIN
  11.8550   11.5620   10.1010  90.0000 100.8500  90.0000  14 1

