# MOL2 file generated by ConQuest
# Please check atom types

@<TRIPOS>MOLECULE
TUMSUQ
    44    47     1
SMALL
NO_CHARGES
****
Generated from CSD

@<TRIPOS>ATOM
      1 C1        12.6001   -2.5631    5.9728 C.2       1 RES1    0.0000
      2 C2        13.8998   -3.3374    5.7758 C.3       1 RES1    0.0000
      3 H1        14.2430   -3.5997    6.6670 H         1 RES1    0.0000
      4 H2        13.6943   -4.1689    5.2806 H         1 RES1    0.0000
      5 C3        15.0037   -2.6069    5.0394 C.ar      1 RES1    0.0000
      6 C4        15.3419   -2.9271    3.7413 C.ar      1 RES1    0.0000
      7 H3        14.8271   -3.5691    3.2663 H         1 RES1    0.0000
      8 C5        16.4259   -2.3207    3.1208 C.ar      1 RES1    0.0000
      9 H4        16.6503   -2.5449    2.2260 H         1 RES1    0.0000
     10 C6        17.1785   -1.3891    3.8131 C.ar      1 RES1    0.0000
     11 H5        17.9491   -1.0110    3.4062 H         1 RES1    0.0000
     12 C7        16.8211   -1.0044    5.0891 C.ar      1 RES1    0.0000
     13 H6        17.3262   -0.3458    5.5512 H         1 RES1    0.0000
     14 C8        15.7129   -1.5868    5.6967 C.ar      1 RES1    0.0000
     15 C9        15.1280   -1.1806    6.9321 C.1       1 RES1    0.0000
     16 C10       14.2254   -1.1591    7.7165 C.1       1 RES1    0.0000
     17 C11       12.9231   -1.4586    8.2283 C.ar      1 RES1    0.0000
     18 C12       12.4307   -1.0730    9.4693 C.ar      1 RES1    0.0000
     19 H7        12.9577   -0.5262   10.0401 H         1 RES1    0.0000
     20 C13       11.1831   -1.4826    9.8707 C.ar      1 RES1    0.0000
     21 H8        10.8475   -1.2253   10.7231 H         1 RES1    0.0000
     22 C14       10.4217   -2.2644    9.0403 C.ar      1 RES1    0.0000
     23 H9         9.5681   -2.5631    9.3330 H         1 RES1    0.0000
     24 C15       10.8722   -2.6284    7.7809 C.ar      1 RES1    0.0000
     25 H10       10.3237   -3.1579    7.2138 H         1 RES1    0.0000
     26 C16       12.1231   -2.2181    7.3501 C.ar      1 RES1    0.0000
     27 N1        12.0167   -2.2627    4.8737 N.2       1 RES1    0.0000
     28 N2        10.8245   -1.5901    4.9086 N.pl3     1 RES1    0.0000
     29 H11       10.4251   -1.4147    5.6341 H         1 RES1    0.0000
     30 C17       10.3826   -0.9936    3.7726 C.ar      1 RES1    0.0000
     31 C18        9.2619   -0.1398    3.7321 C.ar      1 RES1    0.0000
     32 C19        8.9333    0.5527    2.5961 C.ar      1 RES1    0.0000
     33 H12        8.1882    1.1425    2.5924 H         1 RES1    0.0000
     34 C20        9.6881    0.3864    1.4656 C.ar      1 RES1    0.0000
     35 C21       10.7345   -0.5212    1.4435 C.ar      1 RES1    0.0000
     36 H13       11.2110   -0.6734    0.6352 H         1 RES1    0.0000
     37 C22       11.0832   -1.1955    2.5722 C.ar      1 RES1    0.0000
     38 H14       11.8075   -1.8094    2.5464 H         1 RES1    0.0000
     39 N3         8.4282    0.0927    4.8994 N.pl3     1 RES1    0.0000
     40 O1         8.6762   -0.5336    5.9434 O.2       1 RES1    0.0000
     41 O2         7.5108    0.8935    4.8256 O.2       1 RES1    0.0000
     42 N4         9.3752    1.1740    0.2946 N.pl3     1 RES1    0.0000
     43 O3         8.3902    1.8987    0.3038 O.2       1 RES1    0.0000
     44 O4        10.1365    1.0962   -0.6720 O.2       1 RES1    0.0000
@<TRIPOS>BOND
     1    1    2 1
     2    2    3 1
     3    4    2 1
     4    5    2 1
     5    6    5 ar
     6    7    6 1
     7    8    6 ar
     8    9    8 1
     9   10    8 ar
    10   11   10 1
    11   12   10 ar
    12   13   12 1
    13   14    5 ar
    14   15   14 1
    15   16   15 3
    16   17   16 1
    17   18   17 ar
    18   19   18 1
    19   20   18 ar
    20   21   20 1
    21   22   20 ar
    22   23   22 1
    23   24   22 ar
    24   25   24 1
    25   26    1 1
    26   27    1 2
    27   28   27 1
    28   29   28 1
    29   30   28 1
    30   31   30 ar
    31   32   31 ar
    32   33   32 1
    33   34   32 ar
    34   35   34 ar
    35   36   35 1
    36   37   30 ar
    37   38   37 1
    38   39   31 1
    39   40   39 2
    40   41   39 2
    41   42   34 1
    42   43   42 2
    43   44   42 2
    44   12   14 ar
    45   17   26 ar
    46   24   26 ar
    47   35   37 ar
@<TRIPOS>SUBSTRUCTURE
     1 RES1 1

@<TRIPOS>CRYSIN
  12.0543    8.2733   19.1020  90.0000 105.4470  90.0000 231 1

