# MOL2 file generated by ConQuest
# Please check atom types

@<TRIPOS>MOLECULE
TUMXOQ
    57    61     1
SMALL
NO_CHARGES
****
Generated from CSD

@<TRIPOS>ATOM
      1 O1         3.9614    1.6833   13.5949 O.3       1 RES1    0.0000
      2 O2         2.8898   -3.9089   10.0995 O.3       1 RES1    0.0000
      3 O3         5.9343   -2.0449    9.5950 O.3       1 RES1    0.0000
      4 O4         3.5851   -5.8513   10.9808 O.2       1 RES1    0.0000
      5 O5         4.0743    1.0773   15.7577 O.2       1 RES1    0.0000
      6 O6         5.6379    7.6744   17.1641 O.2       1 RES1    0.0000
      7 O7        -2.8260   -6.9718    7.8598 O.2       1 RES1    0.0000
      8 O8         5.7738    8.0932   15.0457 O.2       1 RES1    0.0000
      9 C1         5.1037    5.5494   14.3704 C.ar      1 RES1    0.0000
     10 H1         5.2399    6.1557   13.6790 H         1 RES1    0.0000
     11 C2         5.0395    5.0674   16.7398 C.ar      1 RES1    0.0000
     12 H2         5.1437    5.3551   17.6192 H         1 RES1    0.0000
     13 C3         4.7779    4.2290   14.1091 C.ar      1 RES1    0.0000
     14 H3         4.7089    3.9380   13.2283 H         1 RES1    0.0000
     15 C4         1.4441   -7.1764    9.7315 C.ar      1 RES1    0.0000
     16 H4         2.1319   -7.6943   10.0824 H         1 RES1    0.0000
     17 C5        -0.6211   -5.6443    8.7523 C.ar      1 RES1    0.0000
     18 H5        -1.3324   -5.1381    8.4323 H         1 RES1    0.0000
     19 C6         5.2191    5.9344   15.6931 C.ar      1 RES1    0.0000
     20 N1         5.5688    7.3393   15.9882 N.pl3     1 RES1    0.0000
     21 C7         0.5078   -5.0244    9.2676 C.ar      1 RES1    0.0000
     22 H6         0.5640   -4.0965    9.2867 H         1 RES1    0.0000
     23 C8        -0.6731   -7.0153    8.7200 C.ar      1 RES1    0.0000
     24 C9         2.7817   -5.2225   10.3569 C.2       1 RES1    0.0000
     25 C10        4.7000    3.7573   16.4624 C.ar      1 RES1    0.0000
     26 H7         4.5686    3.1552   17.1582 H         1 RES1    0.0000
     27 C11        4.5549    3.3371   15.1411 C.ar      1 RES1    0.0000
     28 C12        4.1143   -3.2427   10.5595 C.3       1 RES1    0.0000
     29 H8         4.8160   -3.8878   10.7885 H         1 RES1    0.0000
     30 C13        0.3351   -7.7991    9.1957 C.ar      1 RES1    0.0000
     31 H9         0.2777   -8.7266    9.1604 H         1 RES1    0.0000
     32 N2        -1.8592   -7.6731    8.1446 N.pl3     1 RES1    0.0000
     33 C14        1.5526   -5.7976    9.7565 C.ar      1 RES1    0.0000
     34 C15        3.8155   -1.0038    9.6405 C.3       1 RES1    0.0000
     35 H10        3.1383   -0.8245    8.9549 H         1 RES1    0.0000
     36 C16        4.5357   -2.3328    9.4173 C.3       1 RES1    0.0000
     37 H11        4.3413   -2.7202    8.5380 H         1 RES1    0.0000
     38 C17        4.9371    0.0579    9.6537 C.3       1 RES1    0.0000
     39 H12        4.7175    0.8169    9.0738 H         1 RES1    0.0000
     40 C18        3.8143   -2.3071   11.7104 C.3       1 RES1    0.0000
     41 H13        4.6259   -2.0949   12.1992 H         1 RES1    0.0000
     42 H14        3.1794   -2.7111   12.3225 H         1 RES1    0.0000
     43 C19        4.1748    1.9039   14.8857 C.2       1 RES1    0.0000
     44 O9        -1.8154   -8.8776    7.9361 O.2       1 RES1    0.0000
     45 C20        3.6602    0.2844   11.7074 C.3       1 RES1    0.0000
     46 H15        3.0801    0.9949   11.3625 H         1 RES1    0.0000
     47 C21        5.0583    0.4919   11.1173 C.3       1 RES1    0.0000
     48 H16        5.7123   -0.0508   11.5841 H         1 RES1    0.0000
     49 H17        5.3221    1.4232   11.1790 H         1 RES1    0.0000
     50 C22        3.2184   -1.0362   11.0659 C.3       1 RES1    0.0000
     51 H18        2.2408   -1.0923   11.0307 H         1 RES1    0.0000
     52 C23        6.1397   -0.7150    9.1252 C.3       1 RES1    0.0000
     53 H19        6.1676   -0.6906    8.1548 H         1 RES1    0.0000
     54 H20        6.9673   -0.3482    9.4731 H         1 RES1    0.0000
     55 C24        3.5922    0.3232   13.2180 C.3       1 RES1    0.0000
     56 H21        2.6954    0.1163   13.5234 H         1 RES1    0.0000
     57 H22        4.2097   -0.3171   13.6041 H         1 RES1    0.0000
@<TRIPOS>BOND
     1    1   43 1
     2    2   24 1
     3    3   36 1
     4    4   24 2
     5    5   43 2
     6    6   20 2
     7    7   32 2
     8    8   20 2
     9    9   10 1
    10   11   12 1
    11   13    9 ar
    12   14   13 1
    13   15   16 1
    14   17   18 1
    15   19    9 ar
    16   20   19 1
    17   21   17 ar
    18   22   21 1
    19   23   17 ar
    20   24   33 1
    21   25   11 ar
    22   26   25 1
    23   27   13 ar
    24   28    2 1
    25   29   28 1
    26   30   15 ar
    27   31   30 1
    28   32   23 1
    29   33   15 ar
    30   34   35 1
    31   36   28 1
    32   37   36 1
    33   38   34 1
    34   39   38 1
    35   40   28 1
    36   41   40 1
    37   42   40 1
    38   43   27 1
    39   44   32 2
    40   45   46 1
    41   47   38 1
    42   48   47 1
    43   49   47 1
    44   50   34 1
    45   51   50 1
    46   52    3 1
    47   53   52 1
    48   54   52 1
    49   55    1 1
    50   56   55 1
    51   57   55 1
    52   11   19 ar
    53   21   33 ar
    54   23   30 ar
    55   25   27 ar
    56   34   36 1
    57   38   52 1
    58   40   50 1
    59   45   47 1
    60   45   50 1
    61   45   55 1
@<TRIPOS>SUBSTRUCTURE
     1 RES1 1

@<TRIPOS>CRYSIN
   6.7838   11.1185   14.8667  89.8390  81.0280  79.9570   2 1

