# MOL2 file generated by ConQuest
# Please check atom types

@<TRIPOS>MOLECULE
TUMYAD
    57    61     1
SMALL
NO_CHARGES
****
Generated from CSD

@<TRIPOS>ATOM
      1 C1         5.2122    6.1620    1.3431 C.3       1 RES1    0.0000
      2 H1         5.0179    5.3671    0.8024 H         1 RES1    0.0000
      3 C2         5.5192    6.0415    2.7666 C.3       1 RES1    0.0000
      4 H2         6.0022    5.2177    2.9360 H         1 RES1    0.0000
      5 H3         4.6997    6.0300    3.2867 H         1 RES1    0.0000
      6 C3         6.3848    7.2604    3.1635 C.3       1 RES1    0.0000
      7 H4         7.1738    6.9459    3.6528 H         1 RES1    0.0000
      8 C4         5.7259    8.3947    3.9522 C.3       1 RES1    0.0000
      9 H5         6.3489    8.6605    4.6606 H         1 RES1    0.0000
     10 C5         5.5816    9.5846    2.9993 C.3       1 RES1    0.0000
     11 H6         4.7212    9.5632    2.5510 H         1 RES1    0.0000
     12 H7         5.6621   10.4223    3.4800 H         1 RES1    0.0000
     13 C6         6.7212    9.4292    1.9915 C.3       1 RES1    0.0000
     14 H8         7.5480    9.7660    2.3936 H         1 RES1    0.0000
     15 C7         6.8443    7.9020    1.8050 C.3       1 RES1    0.0000
     16 H9         7.7780    7.6646    1.6271 H         1 RES1    0.0000
     17 C8         5.9684    7.2963    0.7716 C.3       1 RES1    0.0000
     18 H10        6.2657    7.2635   -0.1608 H         1 RES1    0.0000
     19 C9         6.4487   10.1936    0.7340 C.3       1 RES1    0.0000
     20 H11        5.5671    9.9740    0.3935 H         1 RES1    0.0000
     21 H12        6.4803   11.1465    0.9085 H         1 RES1    0.0000
     22 C10        7.3675   10.4214   -1.4389 C.2       1 RES1    0.0000
     23 C11        8.3804    9.8738   -2.3919 C.ar      1 RES1    0.0000
     24 C12        9.3566    9.0074   -2.0206 C.ar      1 RES1    0.0000
     25 H13        9.4201    8.7437   -1.1309 H         1 RES1    0.0000
     26 C13       10.2498    8.5143   -2.9342 C.ar      1 RES1    0.0000
     27 H14       10.9182    7.9206   -2.6793 H         1 RES1    0.0000
     28 C14       10.1262    8.9262   -4.2345 C.ar      1 RES1    0.0000
     29 C15        9.1850    9.8148   -4.6554 C.ar      1 RES1    0.0000
     30 H15        9.1431   10.0929   -5.5417 H         1 RES1    0.0000
     31 C16        8.2929   10.2857   -3.7093 C.ar      1 RES1    0.0000
     32 H16        7.6286   10.8854   -3.9625 H         1 RES1    0.0000
     33 C17        4.3832    8.1142    4.6075 C.3       1 RES1    0.0000
     34 H17        4.0585    8.9065    5.0643 H         1 RES1    0.0000
     35 H18        3.7299    7.8519    3.9403 H         1 RES1    0.0000
     36 C18        3.6345    6.8382    6.4605 C.2       1 RES1    0.0000
     37 C19        4.0083    5.7498    7.3980 C.ar      1 RES1    0.0000
     38 C20        5.1624    4.9944    7.2270 C.ar      1 RES1    0.0000
     39 H19        5.7243    5.1689    6.5067 H         1 RES1    0.0000
     40 C21        5.4817    3.9951    8.1098 C.ar      1 RES1    0.0000
     41 H20        6.2476    3.4830    7.9849 H         1 RES1    0.0000
     42 C22        4.6561    3.7639    9.1791 C.ar      1 RES1    0.0000
     43 C23        3.5009    4.4695    9.3690 C.ar      1 RES1    0.0000
     44 H21        2.9479    4.2829   10.0945 H         1 RES1    0.0000
     45 C24        3.1681    5.4652    8.4691 C.ar      1 RES1    0.0000
     46 H22        2.3796    5.9463    8.5803 H         1 RES1    0.0000
     47 N1        11.0688    8.3927   -5.2440 N.pl3     1 RES1    0.0000
     48 N2         5.0502    2.7488   10.2057 N.pl3     1 RES1    0.0000
     49 O1         4.5354    7.4215    1.0796 O.3       1 RES1    0.0000
     50 O2         7.4674    9.8289   -0.2447 O.3       1 RES1    0.0000
     51 O3         6.5515   11.2432   -1.6972 O.2       1 RES1    0.0000
     52 O4        11.8026    7.4924   -4.8898 O.2       1 RES1    0.0000
     53 O5        11.0572    8.8490   -6.3629 O.2       1 RES1    0.0000
     54 O6         4.5998    7.0357    5.5571 O.3       1 RES1    0.0000
     55 O7         2.6461    7.5043    6.5443 O.2       1 RES1    0.0000
     56 O8         6.0471    2.1327    9.9884 O.2       1 RES1    0.0000
     57 O9         4.3459    2.6428   11.1792 O.2       1 RES1    0.0000
@<TRIPOS>BOND
     1    1    2 1
     2    3    1 1
     3    4    3 1
     4    5    3 1
     5    6    3 1
     6    7    6 1
     7    8    6 1
     8    9    8 1
     9   10    8 1
    10   11   10 1
    11   12   10 1
    12   13   10 1
    13   14   13 1
    14   15    6 1
    15   16   15 1
    16   17    1 1
    17   18   17 1
    18   19   13 1
    19   20   19 1
    20   21   19 1
    21   22   23 1
    22   23   24 ar
    23   24   25 1
    24   26   24 ar
    25   27   26 1
    26   28   26 ar
    27   29   28 ar
    28   30   29 1
    29   31   23 ar
    30   32   31 1
    31   33    8 1
    32   34   33 1
    33   35   33 1
    34   36   37 1
    35   37   38 ar
    36   38   39 1
    37   40   38 ar
    38   41   40 1
    39   42   40 ar
    40   43   42 ar
    41   44   43 1
    42   45   37 ar
    43   46   45 1
    44   47   28 1
    45   48   42 1
    46   49    1 1
    47   50   19 1
    48   51   22 2
    49   52   47 2
    50   53   47 2
    51   54   33 1
    52   55   36 2
    53   56   48 2
    54   57   48 2
    55   13   15 1
    56   15   17 1
    57   17   49 1
    58   22   50 1
    59   29   31 ar
    60   36   54 1
    61   43   45 ar
@<TRIPOS>SUBSTRUCTURE
     1 RES1 1

@<TRIPOS>CRYSIN
   5.6195   11.9173   17.3040  81.5000  86.9600  78.1130   2 1

