# MOL2 file generated by ConQuest
# Please check atom types

@<TRIPOS>MOLECULE
TUNPIC
    33    34     1
SMALL
NO_CHARGES
****
Generated from CSD

@<TRIPOS>ATOM
      1 N1         6.6953    0.2846    2.8719 N.3       1 RES1    0.0000
      2 O1        12.8212   -0.4015    9.6502 O.2       1 RES1    0.0000
      3 C1         5.6103    0.6672    1.9645 C.3       1 RES1    0.0000
      4 H1         5.9492    1.2634    1.2934 H         1 RES1    0.0000
      5 H2         4.9168    1.1073    2.4626 H         1 RES1    0.0000
      6 H3         5.2526   -0.1181    1.5436 H         1 RES1    0.0000
      7 N2         8.1619    0.0116    5.3208 N.pl3     1 RES1    0.0000
      8 O2        11.6365   -2.1619   10.0379 O.2       1 RES1    0.0000
      9 C2         7.2099    1.4672    3.5566 C.3       1 RES1    0.0000
     10 H4         6.5153    1.8406    4.1220 H         1 RES1    0.0000
     11 H5         7.4577    2.1381    2.9017 H         1 RES1    0.0000
     12 C3         8.4104    1.1183    4.3979 C.3       1 RES1    0.0000
     13 H6         9.1463    0.8814    3.8122 H         1 RES1    0.0000
     14 H7         8.6759    1.8993    4.9065 H         1 RES1    0.0000
     15 N3        12.0840    1.3197    7.7477 N.pl3     1 RES1    0.0000
     16 H8        12.1061    2.0291    7.2620 H         1 RES1    0.0000
     17 H9        12.6804    1.1960    8.3546 H         1 RES1    0.0000
     18 C4         7.3625   -1.1024    4.7813 C.3       1 RES1    0.0000
     19 H10        7.0009   -1.6190    5.5175 H         1 RES1    0.0000
     20 H11        7.9391   -1.6863    4.2649 H         1 RES1    0.0000
     21 N4        11.8593   -1.1440    9.3728 N.pl3     1 RES1    0.0000
     22 C5         6.2240   -0.6280    3.9028 C.3       1 RES1    0.0000
     23 H12        5.7993   -1.3931    3.4855 H         1 RES1    0.0000
     24 H13        5.5603   -0.1787    4.4504 H         1 RES1    0.0000
     25 C6         9.1210   -0.2650    6.2698 C.ar      1 RES1    0.0000
     26 C7        10.1551    0.6262    6.5581 C.ar      1 RES1    0.0000
     27 H14       10.2113    1.4121    6.0638 H         1 RES1    0.0000
     28 C8        11.1111    0.3960    7.5557 C.ar      1 RES1    0.0000
     29 C9        10.9985   -0.8061    8.2928 C.ar      1 RES1    0.0000
     30 C10        9.9944   -1.7243    7.9768 C.ar      1 RES1    0.0000
     31 H15        9.9462   -2.5219    8.4516 H         1 RES1    0.0000
     32 C11        9.0881   -1.4862    6.9968 C.ar      1 RES1    0.0000
     33 H16        8.4419   -2.1246    6.7990 H         1 RES1    0.0000
@<TRIPOS>BOND
     1    1    3 1
     2    2   21 2
     3    3    4 1
     4    5    3 1
     5    6    3 1
     6    7   12 1
     7    8   21 2
     8    9    1 1
     9   10    9 1
    10   11    9 1
    11   12    9 1
    12   13   12 1
    13   14   12 1
    14   15   16 1
    15   17   15 1
    16   18    7 1
    17   19   18 1
    18   20   18 1
    19   21   29 1
    20   22    1 1
    21   23   22 1
    22   24   22 1
    23   25    7 1
    24   26   25 ar
    25   27   26 1
    26   28   15 1
    27   29   28 ar
    28   30   29 ar
    29   31   30 1
    30   32   25 ar
    31   33   32 1
    32   18   22 1
    33   26   28 ar
    34   30   32 ar
@<TRIPOS>SUBSTRUCTURE
     1 RES1 1

@<TRIPOS>CRYSIN
  11.0270    6.1210   17.5240  90.0000 103.7900  90.0000  14 1

