# MOL2 file generated by ConQuest
# Please check atom types

@<TRIPOS>MOLECULE
TUNQOI
    23    26     1
SMALL
NO_CHARGES
****
Generated from CSD

@<TRIPOS>ATOM
      1 O1         1.5748   13.8282    1.0151 O.2       1 RES1    0.0000
      2 O2         7.2864   10.6498    1.2932 O.3       1 RES1    0.0000
      3 N1         1.0587   12.1287   -0.4519 N.am      1 RES1    0.0000
      4 N2         4.0758   13.6601    1.9722 N.pl3     1 RES1    0.0000
      5 N3         5.9933   10.9698    0.8656 N.2       1 RES1    0.0000
      6 C1         1.7087   11.0357   -1.0209 C.ar      1 RES1    0.0000
      7 C2         1.1942   10.1187   -1.9178 C.ar      1 RES1    0.0000
      8 C3         2.0239    9.0942   -2.3442 C.ar      1 RES1    0.0000
      9 C4         3.3328    9.0176   -1.8876 C.ar      1 RES1    0.0000
     10 C5         3.8453    9.9426   -0.9907 C.ar      1 RES1    0.0000
     11 C6         3.0339   10.9778   -0.5330 C.ar      1 RES1    0.0000
     12 C7         1.8934   12.8077    0.3720 C.2       1 RES1    0.0000
     13 C8         3.1882   12.1005    0.3824 C.2       1 RES1    0.0000
     14 C9         4.1931   12.5442    1.1877 C.2       1 RES1    0.0000
     15 C10        5.5559   12.0145    1.4832 C.2       1 RES1    0.0000
     16 C11        5.1956   13.8658    2.7683 C.ar      1 RES1    0.0000
     17 C12        6.1361   12.8749    2.4925 C.ar      1 RES1    0.0000
     18 C13        7.3688   12.8951    3.1391 C.ar      1 RES1    0.0000
     19 C14        7.6131   13.9008    4.0580 C.ar      1 RES1    0.0000
     20 C15        6.6596   14.8702    4.3350 C.ar      1 RES1    0.0000
     21 C16        5.4266   14.8809    3.6849 C.ar      1 RES1    0.0000
     22 C17        7.7324    9.4814    0.5666 C.3       1 RES1    0.0000
     23 C18        7.0666    8.2552    1.0614 C.3       1 RES1    0.0000
@<TRIPOS>BOND
     1    1   12 2
     2    2    5 1
     3    3    6 1
     4    4   14 1
     5    5   15 2
     6    6    7 ar
     7    7    8 ar
     8    8    9 ar
     9    9   10 ar
    10   10   11 ar
    11   11    6 ar
    12   12    3 1
    13   13   11 1
    14   14   13 2
    15   15   14 1
    16   16    4 1
    17   17   15 1
    18   18   17 ar
    19   19   18 ar
    20   20   19 ar
    21   21   16 ar
    22   22    2 1
    23   23   22 1
    24   12   13 1
    25   16   17 ar
    26   20   21 ar
@<TRIPOS>SUBSTRUCTURE
     1 RES1 1

@<TRIPOS>CRYSIN
   9.7430   13.4450   11.8070  90.0000 101.0600  90.0000  14 1

