# MOL2 file generated by ConQuest
# Please check atom types

@<TRIPOS>MOLECULE
TUNTUT
    37    39     1
SMALL
NO_CHARGES
****
Generated from CSD

@<TRIPOS>ATOM
      1 O1         3.7624    6.4585    0.1145 O.2       1 RES1    0.0000
      2 O2         9.1109    7.7411    2.2629 O.3       1 RES1    0.0000
      3 N1         7.9937    7.2337    1.6318 N.pl3     1 RES1    0.0000
      4 N2         7.1626    3.4307   -3.8008 N.1       1 RES1    0.0000
      5 N3        10.8491    4.0193   -2.5533 N.1       1 RES1    0.0000
      6 C1         6.6964    7.4797    2.0055 C.2       1 RES1    0.0000
      7 C2         5.8707    6.8494    1.0734 C.2       1 RES1    0.0000
      8 C3         6.7192    6.1940    0.1180 C.ar      1 RES1    0.0000
      9 C4         6.4758    5.4208   -1.0203 C.ar      1 RES1    0.0000
     10 H1         5.5887    5.2514   -1.3143 H         1 RES1    0.0000
     11 C5         7.5669    4.9064   -1.7110 C.ar      1 RES1    0.0000
     12 C6         8.8996    5.1530   -1.2759 C.ar      1 RES1    0.0000
     13 C7         9.1644    5.9459   -0.1681 C.ar      1 RES1    0.0000
     14 H2        10.0520    6.1322    0.1164 H         1 RES1    0.0000
     15 C8         8.0543    6.4515    0.5025 C.ar      1 RES1    0.0000
     16 C9         6.3424    8.2907    3.1746 C.ar      1 RES1    0.0000
     17 C10        6.8849    9.5656    3.3441 C.ar      1 RES1    0.0000
     18 H3         7.5366    9.8891    2.7333 H         1 RES1    0.0000
     19 C11        6.4721   10.3613    4.4054 C.ar      1 RES1    0.0000
     20 H4         6.8399   11.2309    4.5086 H         1 RES1    0.0000
     21 C12        5.5234    9.9023    5.3239 C.ar      1 RES1    0.0000
     22 C13        5.0148    8.6147    5.1659 C.ar      1 RES1    0.0000
     23 H5         4.3879    8.2798    5.7961 H         1 RES1    0.0000
     24 C14        5.4091    7.8104    4.0999 C.ar      1 RES1    0.0000
     25 H6         5.0452    6.9384    4.0010 H         1 RES1    0.0000
     26 C15        5.0661   10.7933    6.4469 C.3       1 RES1    0.0000
     27 H7         4.2756   10.4015    6.8729 H         1 RES1    0.0000
     28 H8         4.8408   11.6780    6.0906 H         1 RES1    0.0000
     29 H9         5.7847   10.8801    7.1080 H         1 RES1    0.0000
     30 C16        4.4315    6.9650    0.9992 C.2       1 RES1    0.0000
     31 H10        3.9844    7.4615    1.6740 H         1 RES1    0.0000
     32 C17        7.3405    4.0885   -2.8731 C.1       1 RES1    0.0000
     33 C18        9.9904    4.5339   -1.9856 C.1       1 RES1    0.0000
     34 C19        9.5704    6.8301    3.2907 C.3       1 RES1    0.0000
     35 H11       10.3757    7.1944    3.7135 H         1 RES1    0.0000
     36 H12        9.7776    5.9609    2.8881 H         1 RES1    0.0000
     37 H13        8.8688    6.7179    3.9661 H         1 RES1    0.0000
@<TRIPOS>BOND
     1    1   30 2
     2    2    3 1
     3    3    6 1
     4    4   32 3
     5    5   33 3
     6    6    7 2
     7    7    8 1
     8    8    9 ar
     9    9   10 1
    10   11    9 ar
    11   12   11 ar
    12   13   12 ar
    13   14   13 1
    14   15    3 1
    15   16    6 1
    16   17   16 ar
    17   18   17 1
    18   19   17 ar
    19   20   19 1
    20   21   19 ar
    21   22   21 ar
    22   23   22 1
    23   24   16 ar
    24   25   24 1
    25   26   21 1
    26   27   26 1
    27   28   26 1
    28   29   26 1
    29   30    7 1
    30   31   30 1
    31   32   11 1
    32   33   12 1
    33   34    2 1
    34   35   34 1
    35   36   34 1
    36   37   34 1
    37    8   15 ar
    38   13   15 ar
    39   22   24 ar
@<TRIPOS>SUBSTRUCTURE
     1 RES1 1

@<TRIPOS>CRYSIN
   8.5169    8.6573   12.2902 103.3990  97.4720 109.8100   2 1

