# MOL2 file generated by ConQuest
# Please check atom types

@<TRIPOS>MOLECULE
TUNTAX
    24    24     1
SMALL
NO_CHARGES
****
Generated from CSD

@<TRIPOS>ATOM
      1 N1         1.9274    6.4338    1.2888 N.pl3     1 RES1    0.0000
      2 O1         1.3535    7.4837    1.7872 O.2       1 RES1    0.0000
      3 O2         7.4252    7.5431   -1.2793 O.3       1 RES1    0.0000
      4 C1         3.0939    6.4794    0.8261 C.2       1 RES1    0.0000
      5 C2         3.9366    7.6965    0.8484 C.2       1 RES1    0.0000
      6 C3         5.1956    7.6606    0.2944 C.2       1 RES1    0.0000
      7 C4         6.1280    8.8293    0.2444 C.ar      1 RES1    0.0000
      8 C5         7.2742    8.7409   -0.6071 C.ar      1 RES1    0.0000
      9 C6         8.1324    9.8379   -0.7103 C.ar      1 RES1    0.0000
     10 C7         7.9397   10.9638    0.0111 C.ar      1 RES1    0.0000
     11 C8         6.8059   11.0688    0.8730 C.ar      1 RES1    0.0000
     12 C9         5.9398    9.9912    0.9380 C.ar      1 RES1    0.0000
     13 C10        1.1242    5.1904    1.2388 C.3       1 RES1    0.0000
     14 H1         3.5593    5.7886    0.5476 H         1 RES1    0.0000
     15 H2         3.5490    8.6760    1.2698 H         1 RES1    0.0000
     16 H3         5.4811    6.6313   -0.1349 H         1 RES1    0.0000
     17 H4         8.9932    9.7536   -1.3491 H         1 RES1    0.0000
     18 H5         8.6191   11.7982   -0.0714 H         1 RES1    0.0000
     19 H6         6.6062   11.9917    1.4444 H         1 RES1    0.0000
     20 H7         5.0307   10.0990    1.5634 H         1 RES1    0.0000
     21 H8         0.4347    5.1807    1.3650 H         1 RES1    0.0000
     22 H9         1.5332    4.3933    1.9602 H         1 RES1    0.0000
     23 H10        1.2566    4.6419    0.2540 H         1 RES1    0.0000
     24 H11        8.5820    7.3221   -1.7062 H         1 RES1    0.0000
@<TRIPOS>BOND
     1    1    2 1
     2    3    8 1
     3    4    1 2
     4    5    4 1
     5    6    5 2
     6    7    6 1
     7    8    7 ar
     8    9    8 ar
     9   10    9 ar
    10   11   10 ar
    11   12    7 ar
    12   13    1 1
    13   14    4 1
    14   15    5 1
    15   16    6 1
    16   17    9 1
    17   18   10 1
    18   19   11 1
    19   20   12 1
    20   21   13 1
    21   22   13 1
    22   23   13 1
    23   24    3 1
    24   11   12 ar
@<TRIPOS>SUBSTRUCTURE
     1 RES1 1

@<TRIPOS>CRYSIN
  17.1210   13.9260    7.9360  90.0000  90.0000  82.7700  15 3

