# MOL2 file generated by ConQuest
# Please check atom types

@<TRIPOS>MOLECULE
TUPHUI
    13    12     1
SMALL
NO_CHARGES
****
Generated from CSD

@<TRIPOS>ATOM
      1 O1         0.2546   -0.0378    2.6068 O.2       1 RES1    0.0000
      2 N1         0.6620    2.8967    0.3993 N.1       1 RES1    0.0000
      3 N2         2.0089    3.2386    6.4390 N.1       1 RES1    0.0000
      4 N3         1.2237    0.2667    3.3014 N.2       1 RES1    0.0000
      5 N4         1.3524    1.5686    3.5007 N.3       1 RES1    0.0000
      6 C1         2.2329    2.6857    5.4723 C.1       1 RES1    0.0000
      7 C2         2.5507    1.9810    4.2086 C.3       1 RES1    0.0000
      8 H1         3.0725    2.5673    3.6391 H         1 RES1    0.0000
      9 H2         3.0901    1.1993    4.4061 H         1 RES1    0.0000
     10 C3         0.5478    2.7146    1.5142 C.1       1 RES1    0.0000
     11 C4         0.3932    2.5157    2.9563 C.3       1 RES1    0.0000
     12 H3         0.5001    3.3680    3.4063 H         1 RES1    0.0000
     13 H4        -0.5048    2.1957    3.1371 H         1 RES1    0.0000
@<TRIPOS>BOND
     1    1    4 2
     2    2   10 3
     3    3    6 3
     4    4    5 1
     5    5    7 1
     6    6    7 1
     7    7    8 1
     8    9    7 1
     9   10   11 1
    10   11    5 1
    11   12   11 1
    12   13   11 1
@<TRIPOS>SUBSTRUCTURE
     1 RES1 1

@<TRIPOS>CRYSIN
   6.5622    8.9765   11.0080  90.0000 108.5500  90.0000  14 1

