# MOL2 file generated by ConQuest
# Please check atom types

@<TRIPOS>MOLECULE
TUPNEY
    60    64     1
SMALL
NO_CHARGES
****
Generated from CSD

@<TRIPOS>ATOM
      1 O1         3.9837    8.2608    5.7469 O.2       1 RES1    0.0000
      2 C1         1.6431    8.2923    3.6086 C.3       1 RES1    0.0000
      3 H1         0.9354    8.1266    4.2652 H         1 RES1    0.0000
      4 C2         2.0314    9.7502    3.7566 C.ar      1 RES1    0.0000
      5 O2         0.8530    3.0827   10.0552 O.3       1 RES1    0.0000
      6 C3         1.2041   10.6041    4.4781 C.ar      1 RES1    0.0000
      7 H2         0.4380   10.2642    4.8829 H         1 RES1    0.0000
      8 C4         1.0188    7.9710    2.1903 C.3       1 RES1    0.0000
      9 H3         0.1258    8.3742    2.1842 H         1 RES1    0.0000
     10 C5         2.7233    7.2572    3.8710 C.3       1 RES1    0.0000
     11 H4         3.3192    7.2429    3.0938 H         1 RES1    0.0000
     12 N1         3.8985    5.9946    5.3943 N.am      1 RES1    0.0000
     13 C6         3.4985   11.6173    3.3126 C.ar      1 RES1    0.0000
     14 H5         4.2704   11.9617    2.9247 H         1 RES1    0.0000
     15 C7         3.1837   10.2813    3.1853 C.ar      1 RES1    0.0000
     16 H6         3.7541    9.7233    2.7076 H         1 RES1    0.0000
     17 C8         1.7480    3.7576    9.2705 C.ar      1 RES1    0.0000
     18 C9         1.5006   11.9509    4.6055 C.ar      1 RES1    0.0000
     19 H7         0.9335   12.5190    5.0751 H         1 RES1    0.0000
     20 C10        2.6495   12.4318    4.0238 C.ar      1 RES1    0.0000
     21 C11        1.7684    8.5707    1.0132 C.ar      1 RES1    0.0000
     22 C12        3.5918    7.2846    5.1219 C.2       1 RES1    0.0000
     23 C13        1.8878    5.1333    9.2406 C.ar      1 RES1    0.0000
     24 H8         1.3556    5.6738    9.7799 H         1 RES1    0.0000
     25 C14        0.8186    6.4851    1.9841 C.2       1 RES1    0.0000
     26 H9         0.3097    6.2211    1.2514 H         1 RES1    0.0000
     27 C15        2.0762    5.8759    3.9907 C.3       1 RES1    0.0000
     28 H10        1.4257    5.9324    4.7209 H         1 RES1    0.0000
     29 C16        3.6517    4.9211    7.5872 C.ar      1 RES1    0.0000
     30 C17        1.3087    5.5279    2.7624 C.2       1 RES1    0.0000
     31 H11        1.1726    4.6360    2.5402 H         1 RES1    0.0000
     32 N2         2.9894   13.8511    4.1721 N.pl3     1 RES1    0.0000
     33 C18        2.8336    5.6969    8.3959 C.ar      1 RES1    0.0000
     34 H12        2.9215    6.6221    8.3719 H         1 RES1    0.0000
     35 C19        2.5589    2.9647    8.4760 C.ar      1 RES1    0.0000
     36 H13        2.4685    2.0388    8.4983 H         1 RES1    0.0000
     37 O3         2.1966   14.5958    4.7157 O.2       1 RES1    0.0000
     38 C20        3.4989    3.5449    7.6527 C.ar      1 RES1    0.0000
     39 H14        4.0431    3.0010    7.1294 H         1 RES1    0.0000
     40 C21        3.2357    5.0334    4.5032 C.3       1 RES1    0.0000
     41 H15        2.9243    4.2530    4.9879 H         1 RES1    0.0000
     42 H16        3.8204    4.7527    3.7810 H         1 RES1    0.0000
     43 O4         4.0595   14.2320    3.7341 O.2       1 RES1    0.0000
     44 C22        2.8664    7.9373    0.4379 C.ar      1 RES1    0.0000
     45 H17        3.1450    7.1149    0.7708 H         1 RES1    0.0000
     46 C23        4.6067    5.5591    6.6051 C.3       1 RES1    0.0000
     47 H18        5.0359    6.3225    7.0208 H         1 RES1    0.0000
     48 H19        5.2964    4.9207    6.3639 H         1 RES1    0.0000
     49 C24        1.3753    9.7864    0.4705 C.ar      1 RES1    0.0000
     50 H20        0.6411   10.2321    0.8278 H         1 RES1    0.0000
     51 C25       -0.1086    3.8437   10.7772 C.3       1 RES1    0.0000
     52 H21        0.3376    4.3791   11.4372 H         1 RES1    0.0000
     53 H22       -0.7266    3.2502   11.2094 H         1 RES1    0.0000
     54 H23       -0.5848    4.4155   10.1716 H         1 RES1    0.0000
     55 C26        3.5499    8.5099   -0.6202 C.ar      1 RES1    0.0000
     56 H24        4.2893    8.0769   -0.9808 H         1 RES1    0.0000
     57 C27        2.0612   10.3457   -0.5974 C.ar      1 RES1    0.0000
     58 H25        1.7821   11.1608   -0.9488 H         1 RES1    0.0000
     59 C28        3.1471    9.7083   -1.1378 C.ar      1 RES1    0.0000
     60 H26        3.6065   10.0890   -1.8513 H         1 RES1    0.0000
@<TRIPOS>BOND
     1    1   22 2
     2    2    3 1
     3    4    2 1
     4    5   17 1
     5    6    4 ar
     6    7    6 1
     7    8    2 1
     8    9    8 1
     9   10    2 1
    10   11   10 1
    11   12   22 1
    12   13   14 1
    13   15    4 ar
    14   16   15 1
    15   17   23 ar
    16   18    6 ar
    17   19   18 1
    18   20   13 ar
    19   21    8 1
    20   22   10 1
    21   23   24 1
    22   25    8 1
    23   26   25 1
    24   27   10 1
    25   28   27 1
    26   29   33 ar
    27   30   25 2
    28   31   30 1
    29   32   20 1
    30   33   23 ar
    31   34   33 1
    32   35   17 ar
    33   36   35 1
    34   37   32 2
    35   38   29 ar
    36   39   38 1
    37   40   12 1
    38   41   40 1
    39   42   40 1
    40   43   32 2
    41   44   21 ar
    42   45   44 1
    43   46   12 1
    44   47   46 1
    45   48   46 1
    46   49   21 ar
    47   50   49 1
    48   51    5 1
    49   52   51 1
    50   53   51 1
    51   54   51 1
    52   55   44 ar
    53   56   55 1
    54   57   49 ar
    55   58   57 1
    56   59   55 ar
    57   60   59 1
    58   13   15 ar
    59   18   20 ar
    60   27   30 1
    61   27   40 1
    62   29   46 1
    63   35   38 ar
    64   57   59 ar
@<TRIPOS>SUBSTRUCTURE
     1 RES1 1

@<TRIPOS>CRYSIN
   5.4369   12.2662   18.1490  79.6330  84.0360  80.3250   2 1

