# MOL2 file generated by ConQuest
# Please check atom types

@<TRIPOS>MOLECULE
TUPVIL
    88    94     1
SMALL
NO_CHARGES
****
Generated from CSD

@<TRIPOS>ATOM
      1 N1         4.5815    1.9299   13.4029 N.pl3     1 RES1    0.0000
      2 C1         8.8266    5.3060   11.6456 C.2       1 RES1    0.0000
      3 H1         9.6841    5.1245   12.0122 H         1 RES1    0.0000
      4 C2         6.5081    4.3609   11.3596 C.ar      1 RES1    0.0000
      5 H2         6.3920    4.8779   10.5711 H         1 RES1    0.0000
      6 C3         7.7261    4.4345   12.0580 C.ar      1 RES1    0.0000
      7 C4         7.8410    3.6789   13.2354 C.ar      1 RES1    0.0000
      8 H3         8.6519    3.7125   13.7291 H         1 RES1    0.0000
      9 C5        12.2349    7.4941   10.0199 C.ar      1 RES1    0.0000
     10 C6         5.6090    2.7846   12.9670 C.ar      1 RES1    0.0000
     11 C7         4.8794    0.7639   14.1752 C.ar      1 RES1    0.0000
     12 C8         6.8029    2.8861   13.6967 C.ar      1 RES1    0.0000
     13 H4         6.9005    2.4078   14.5126 H         1 RES1    0.0000
     14 C9        11.1799    6.7086   10.4382 C.ar      1 RES1    0.0000
     15 H5        11.3500    5.8241   10.7430 H         1 RES1    0.0000
     16 C10        4.3327   -0.7132   16.0028 C.ar      1 RES1    0.0000
     17 H6         3.7698   -0.9381   16.7351 H         1 RES1    0.0000
     18 C11        5.4741    3.5524   11.7953 C.ar      1 RES1    0.0000
     19 H7         4.6658    3.5156   11.2987 H         1 RES1    0.0000
     20 O1        14.2741    7.0532    9.0123 O.2       1 RES1    0.0000
     21 C12        2.4017    1.1198   12.6638 C.ar      1 RES1    0.0000
     22 H8         2.7485    0.2353   12.6398 H         1 RES1    0.0000
     23 C13        0.5577    2.6476   12.3518 C.ar      1 RES1    0.0000
     24 H9        -0.3459    2.8080   12.1061 H         1 RES1    0.0000
     25 C14        9.8636    7.1919   10.4216 C.ar      1 RES1    0.0000
     26 C15        8.7284    6.3351   10.7986 C.2       1 RES1    0.0000
     27 H10        7.8789    6.5237   10.4192 H         1 RES1    0.0000
     28 C16        5.9617   -0.0623   13.8492 C.ar      1 RES1    0.0000
     29 H11        6.5150    0.1473   13.1055 H         1 RES1    0.0000
     30 C17        4.0760    0.4348   15.2681 C.ar      1 RES1    0.0000
     31 H12        3.3503    0.9990   15.5099 H         1 RES1    0.0000
     32 O2        13.8400    6.0684   10.8929 O.2       1 RES1    0.0000
     33 C18        2.6991    3.4679   13.1025 C.ar      1 RES1    0.0000
     34 H13        3.2471    4.1944   13.3753 H         1 RES1    0.0000
     35 C19        5.4034   -1.5356   15.6796 C.ar      1 RES1    0.0000
     36 H14        5.5707   -2.3245   16.1815 H         1 RES1    0.0000
     37 C20        3.2238    2.1791   13.0521 C.ar      1 RES1    0.0000
     38 N2        13.5535    6.8318    9.9777 N.pl3     1 RES1    0.0000
     39 C21        1.0762    1.3569   12.3112 C.ar      1 RES1    0.0000
     40 H15        0.5227    0.6340   12.0422 H         1 RES1    0.0000
     41 C22        6.2249   -1.1954   14.6201 C.ar      1 RES1    0.0000
     42 H16        6.9850   -1.7482   14.4206 H         1 RES1    0.0000
     43 C23        1.3621    3.6928   12.7507 C.ar      1 RES1    0.0000
     44 H17        1.0059    4.5738   12.7877 H         1 RES1    0.0000
     45 N1D       17.3805   14.0791    6.5841 N.pl3     1 RES1    0.0000
     46 C1D       13.1354   10.7030    8.3414 C.2       1 RES1    0.0000
     47 H1D       12.2779   10.8845    7.9748 H         1 RES1    0.0000
     48 C2D       15.4539   11.6481    8.6274 C.ar      1 RES1    0.0000
     49 H2D       15.5700   11.1311    9.4159 H         1 RES1    0.0000
     50 C3D       14.2359   11.5745    7.9290 C.ar      1 RES1    0.0000
     51 C4D       14.1210   12.3301    6.7516 C.ar      1 RES1    0.0000
     52 H3D       13.3101   12.2965    6.2579 H         1 RES1    0.0000
     53 C5D        9.7271    8.5149    9.9671 C.ar      1 RES1    0.0000
     54 C6D       16.3530   13.2244    7.0200 C.ar      1 RES1    0.0000
     55 C7D       17.0826   15.2451    5.8118 C.ar      1 RES1    0.0000
     56 C8D       15.1591   13.1229    6.2903 C.ar      1 RES1    0.0000
     57 H4D       15.0615   13.6012    5.4744 H         1 RES1    0.0000
     58 C9D       10.7821    9.3004    9.5488 C.ar      1 RES1    0.0000
     59 H5D       10.6120   10.1849    9.2440 H         1 RES1    0.0000
     60 C10D      17.6293   16.7222    3.9842 C.ar      1 RES1    0.0000
     61 H6D       18.1922   16.9471    3.2519 H         1 RES1    0.0000
     62 C11D      16.4879   12.4566    8.1917 C.ar      1 RES1    0.0000
     63 H7D       17.2962   12.4934    8.6883 H         1 RES1    0.0000
     64 O1D        7.6879    8.9558   10.9747 O.2       1 RES1    0.0000
     65 C12D      19.5603   14.8892    7.3232 C.ar      1 RES1    0.0000
     66 H8D       19.2135   15.7737    7.3472 H         1 RES1    0.0000
     67 C13D      21.4043   13.3614    7.6352 C.ar      1 RES1    0.0000
     68 H9D       22.3079   13.2010    7.8809 H         1 RES1    0.0000
     69 C14D      12.0984    8.8171    9.5654 C.ar      1 RES1    0.0000
     70 C15D      13.2336    9.6739    9.1884 C.2       1 RES1    0.0000
     71 H10D      14.0831    9.4853    9.5678 H         1 RES1    0.0000
     72 C16D      16.0003   16.0713    6.1378 C.ar      1 RES1    0.0000
     73 H11D      15.4470   15.8617    6.8815 H         1 RES1    0.0000
     74 C17D      17.8860   15.5742    4.7189 C.ar      1 RES1    0.0000
     75 H12D      18.6117   15.0100    4.4771 H         1 RES1    0.0000
     76 O2D        8.1220    9.9406    9.0941 O.2       1 RES1    0.0000
     77 C18D      19.2629   12.5411    6.8845 C.ar      1 RES1    0.0000
     78 H13D      18.7149   11.8146    6.6117 H         1 RES1    0.0000
     79 C19D      16.5586   17.5446    4.3074 C.ar      1 RES1    0.0000
     80 H14D      16.3913   18.3335    3.8055 H         1 RES1    0.0000
     81 C20D      18.7382   13.8299    6.9349 C.ar      1 RES1    0.0000
     82 N2D        8.4085    9.1772   10.0093 N.pl3     1 RES1    0.0000
     83 C21D      20.8858   14.6521    7.6758 C.ar      1 RES1    0.0000
     84 H15D      21.4393   15.3750    7.9448 H         1 RES1    0.0000
     85 C22D      15.7371   17.2044    5.3669 C.ar      1 RES1    0.0000
     86 H16D      14.9770   17.7572    5.5664 H         1 RES1    0.0000
     87 C23D      20.5999   12.3162    7.2363 C.ar      1 RES1    0.0000
     88 H17D      20.9561   11.4352    7.1993 H         1 RES1    0.0000
@<TRIPOS>BOND
     1    1   10 1
     2    2    3 1
     3    4    5 1
     4    6    2 1
     5    7    6 ar
     6    8    7 1
     7    9   14 ar
     8   10   12 ar
     9   11    1 1
    10   12    7 ar
    11   13   12 1
    12   14   15 1
    13   16   17 1
    14   18    4 ar
    15   19   18 1
    16   20   38 2
    17   21   22 1
    18   23   24 1
    19   25   14 ar
    20   26    2 2
    21   27   26 1
    22   28   11 ar
    23   29   28 1
    24   30   11 ar
    25   31   30 1
    26   32   38 2
    27   33   34 1
    28   35   16 ar
    29   36   35 1
    30   37    1 1
    31   38    9 1
    32   39   21 ar
    33   40   39 1
    34   41   28 ar
    35   42   41 1
    36   43   23 ar
    37   44   43 1
    38   45   54 1
    39   46   47 1
    40   48   49 1
    41   50   46 1
    42   51   50 ar
    43   52   51 1
    44   53   25 ar
    45   54   56 ar
    46   55   45 1
    47   56   51 ar
    48   57   56 1
    49   58   53 ar
    50   59   58 1
    51   60   61 1
    52   62   48 ar
    53   63   62 1
    54   64   82 2
    55   65   66 1
    56   67   68 1
    57   69    9 ar
    58   70   46 2
    59   71   70 1
    60   72   55 ar
    61   73   72 1
    62   74   55 ar
    63   75   74 1
    64   76   82 2
    65   77   78 1
    66   79   60 ar
    67   80   79 1
    68   81   45 1
    69   82   53 1
    70   83   65 ar
    71   84   83 1
    72   85   72 ar
    73   86   85 1
    74   87   67 ar
    75   88   87 1
    76    4    6 ar
    77   10   18 ar
    78   16   30 ar
    79   21   37 ar
    80   23   39 ar
    81   25   26 1
    82   33   37 ar
    83   33   43 ar
    84   35   41 ar
    85   48   50 ar
    86   54   62 ar
    87   58   69 ar
    88   60   74 ar
    89   65   81 ar
    90   67   83 ar
    91   69   70 1
    92   77   81 ar
    93   77   87 ar
    94   79   85 ar
@<TRIPOS>SUBSTRUCTURE
     1 RES1 1

@<TRIPOS>CRYSIN
  10.9810   16.0090   19.9870  90.0000  90.0000  90.0000  61 1

