# MOL2 file generated by ConQuest
# Please check atom types

@<TRIPOS>MOLECULE
TUQHET
    22    22     1
SMALL
NO_CHARGES
****
Generated from CSD

@<TRIPOS>ATOM
      1 O1         2.9049    5.4264    4.2177 O.2       1 RES1    0.0000
      2 O2         4.3250    6.9663    3.4734 O.3       1 RES1    0.0000
      3 O3         8.5147    5.9530    1.5838 O.2       1 RES1    0.0000
      4 O4         9.1736    3.9153    1.3416 O.2       1 RES1    0.0000
      5 N1         3.5970    2.8450    3.8777 N.3       1 RES1    0.0000
      6 N2         8.3464    4.7442    1.7125 N.pl3     1 RES1    0.0000
      7 C1         4.9839    4.7305    3.2696 C.ar      1 RES1    0.0000
      8 C2         4.7199    3.3283    3.3648 C.ar      1 RES1    0.0000
      9 C3         5.7278    2.4379    2.8987 C.ar      1 RES1    0.0000
     10 C4         6.8952    2.8982    2.3816 C.ar      1 RES1    0.0000
     11 C5         7.1228    4.2646    2.2931 C.ar      1 RES1    0.0000
     12 C6         6.1797    5.1608    2.7316 C.ar      1 RES1    0.0000
     13 C7         3.9815    5.7122    3.6956 C.2       1 RES1    0.0000
     14 C8         3.2557    1.4438    3.9120 C.3       1 RES1    0.0000
     15 H1         3.0348    3.4036    4.2125 H         1 RES1    0.0000
     16 H2         3.7137    7.4621    3.7027 H         1 RES1    0.0000
     17 H3         5.5836    1.5206    2.9498 H         1 RES1    0.0000
     18 H4         7.5421    2.2986    2.0874 H         1 RES1    0.0000
     19 H5         6.3499    6.0728    2.6651 H         1 RES1    0.0000
     20 H6         3.9183    0.9655    4.4154 H         1 RES1    0.0000
     21 H7         3.2253    1.1004    3.0157 H         1 RES1    0.0000
     22 H8         2.3970    1.3334    4.3262 H         1 RES1    0.0000
@<TRIPOS>BOND
     1    1   13 2
     2    2   13 1
     3    3    6 2
     4    4    6 2
     5    5    8 1
     6    6   11 1
     7    7    8 ar
     8    8    9 ar
     9    9   10 ar
    10   10   11 ar
    11   11   12 ar
    12   12    7 ar
    13   13    7 1
    14   14    5 1
    15   15    5 1
    16   16    2 1
    17   17    9 1
    18   18   10 1
    19   19   12 1
    20   20   14 1
    21   21   14 1
    22   22   14 1
@<TRIPOS>SUBSTRUCTURE
     1 RES1 1

@<TRIPOS>CRYSIN
   7.2541   14.0370    8.5972  90.0000 103.6730  90.0000  14 1

