# MOL2 file generated by ConQuest
# Please check atom types

@<TRIPOS>MOLECULE
TURLUP
    38    39     1
SMALL
USER_CHARGES
****
Generated from CSD

@<TRIPOS>ATOM
      1 C1         6.0431    2.8354    4.1259 C.ar      1 RES1    0.0000
      2 C2         6.8002    3.9981    4.0537 C.ar      1 RES1    0.0000
      3 H1         6.3929    4.8428    4.3361 H         1 RES1    0.0000
      4 C3         8.0931    3.9019    3.5669 C.ar      1 RES1    0.0000
      5 C4         8.6644    2.7156    3.1544 C.ar      1 RES1    0.0000
      6 H2         9.4932    2.6512    2.7912 H         1 RES1    0.0000
      7 C5         7.8896    1.5857    3.2779 C.ar      1 RES1    0.0000
      8 C6         6.5957    1.6014    3.7525 C.ar      1 RES1    0.0000
      9 H3         6.0936    0.8445    3.7662 H         1 RES1    0.0000
     10 N1         8.9154    5.1197    3.5008 N.pl3     1 RES1    0.0000
     11 O1         8.4495    6.1597    3.9338 O.2       1 RES1    0.0000
     12 O2        10.0316    5.0273    2.9941 O.2       1 RES1    0.0000
     13 N2         8.4823    0.2917    2.8857 N.pl3     1 RES1    0.0000
     14 O3         9.5946    0.3108    2.3799 O.2       1 RES1    0.0000
     15 O4         7.8292   -0.7209    3.0858 O.2       1 RES1    0.0000
     16 C7         4.6649    2.8791    4.6152 C.2       1 RES1    0.0000
     17 C8         2.7217    3.6100    5.7427 C.3       1 RES1    0.0000
     18 C9         2.4583    2.2087    5.1081 C.3       1 RES1    0.0000
     19 C10        2.3861    3.7417    7.2057 C.3       1 RES1    0.0000
     20 H4         2.8009    3.0789    7.7634 H         1 RES1    0.0000
     21 H5         2.7261    4.5542    7.5427 H         1 RES1    0.0000
     22 H6         1.4753    3.7951    7.3220 H         1 RES1    0.0000
     23 C11        2.1060    4.7658    4.9527 C.3       1 RES1    0.0000
     24 H7         1.1118    4.8000    5.1540 H         1 RES1    0.0000
     25 H8         2.3840    4.7466    4.0375 H         1 RES1    0.0000
     26 H9         2.5230    5.6553    5.3098 H         1 RES1    0.0000
     27 C12        2.5347    1.0537    6.1069 C.3       1 RES1    0.0000
     28 H10        1.7426    1.1118    6.7118 H         1 RES1    0.0000
     29 H11        3.4210    1.0797    6.6729 H         1 RES1    0.0000
     30 H12        2.4695    0.1817    5.5305 H         1 RES1    0.0000
     31 C13        1.1995    2.0985    4.2816 C.3       1 RES1    0.0000
     32 H13        0.4383    2.2557    4.9203 H         1 RES1    0.0000
     33 H14        1.3256    2.7902    3.5182 H         1 RES1    0.0000
     34 H15        1.1118    1.1760    3.9856 H         1 RES1    0.0000
     35 N3         4.2098    3.7299    5.5533 N.3       1 RES1    0.0000
     36 O5         4.9012    4.6080    6.1650 O.2       1 RES1    0.0000
     37 N4         3.6675    2.0703    4.2226 N.pl3     1 RES1    1.0000
     38 O6         3.7332    1.1856    3.2950 O.2       1 RES1   -1.0000
@<TRIPOS>BOND
     1    1    2 ar
     2    2    3 1
     3    4    2 ar
     4    5    4 ar
     5    6    5 1
     6    7    5 ar
     7    8    1 ar
     8    9    8 1
     9   10    4 1
    10   11   10 2
    11   12   10 2
    12   13    7 1
    13   14   13 2
    14   15   13 2
    15   16    1 1
    16   17   18 1
    17   18   27 1
    18   19   17 1
    19   20   19 1
    20   21   19 1
    21   22   19 1
    22   23   17 1
    23   24   23 1
    24   25   23 1
    25   26   23 1
    26   27   28 1
    27   29   27 1
    28   30   27 1
    29   31   18 1
    30   32   31 1
    31   33   31 1
    32   34   31 1
    33   35   16 1
    34   36   35 1
    35   37   16 2
    36   38   37 1
    37    7    8 ar
    38   17   35 1
    39   18   37 1
@<TRIPOS>SUBSTRUCTURE
     1 RES1 1

@<TRIPOS>CRYSIN
  10.6905   10.6905   12.9823  90.0000  90.0000  90.0000  76 1

