# MOL2 file generated by ConQuest
# Please check atom types

@<TRIPOS>MOLECULE
TURMAW
    38    39     1
SMALL
USER_CHARGES
****
Generated from CSD

@<TRIPOS>ATOM
      1 C1         8.1755   -0.6987    4.4285 C.ar      1 RES1    0.0000
      2 C2         9.3342   -1.4530    4.4996 C.ar      1 RES1    0.0000
      3 H1        10.1707   -1.0256    4.2607 H         1 RES1    0.0000
      4 C3         9.2413   -2.7447    4.9842 C.ar      1 RES1    0.0000
      5 C4         8.0607   -3.3156    5.4037 C.ar      1 RES1    0.0000
      6 H2         8.0126   -4.1559    5.7415 H         1 RES1    0.0000
      7 C5         6.9282   -2.5434    5.2743 C.ar      1 RES1    0.0000
      8 C6         6.9434   -1.2488    4.8021 C.ar      1 RES1    0.0000
      9 H3         6.1751   -0.7692    4.7933 H         1 RES1    0.0000
     10 N1        10.4598   -3.5655    5.0539 N.pl3     1 RES1    0.0000
     11 O1        11.4996   -3.0979    4.6195 O.2       1 RES1    0.0000
     12 O2        10.3657   -4.6829    5.5575 O.2       1 RES1    0.0000
     13 N2         5.6345   -3.1340    5.6696 N.pl3     1 RES1    0.0000
     14 O3         5.6526   -4.2447    6.1728 O.2       1 RES1    0.0000
     15 O4         4.6213   -2.4818    5.4674 O.2       1 RES1    0.0000
     16 C7         8.2217    0.6849    3.9404 C.2       1 RES1    0.0000
     17 N3         9.0685    1.1363    3.0003 N.3       1 RES1    0.0000
     18 C8         8.9503    2.6219    2.8122 C.3       1 RES1    0.0000
     19 C9         7.5522    2.8858    3.4434 C.3       1 RES1    0.0000
     20 N4         7.4116    1.6754    4.3306 N.pl3     1 RES1    1.0000
     21 O5         9.9468    0.4458    2.3879 O.2       1 RES1    0.0000
     22 O6         6.5277    1.6114    5.2588 O.2       1 RES1   -1.0000
     23 C10       10.1002    3.2403    3.5969 C.3       1 RES1    0.0000
     24 H4        10.0745    2.9593    4.4815 H         1 RES1    0.0000
     25 H5        11.0040    2.8311    3.2215 H         1 RES1    0.0000
     26 H6        10.1386    4.2413    3.4163 H         1 RES1    0.0000
     27 C11        9.0831    2.9583    1.3458 C.3       1 RES1    0.0000
     28 H7         9.9143    2.6388    1.0392 H         1 RES1    0.0000
     29 H8         8.3972    2.5747    0.7794 H         1 RES1    0.0000
     30 H9         9.1237    3.8674    1.2211 H         1 RES1    0.0000
     31 C12        7.4389    4.1431    4.2672 C.3       1 RES1    0.0000
     32 H10        8.1088    4.0490    5.0011 H         1 RES1    0.0000
     33 H11        6.4956    4.1879    4.6114 H         1 RES1    0.0000
     34 H12        7.6173    4.8824    3.5982 H         1 RES1    0.0000
     35 C13        6.3962    2.8108    2.4434 C.3       1 RES1    0.0000
     36 H13        6.4315    3.6324    1.8186 H         1 RES1    0.0000
     37 H14        6.4208    1.9444    1.8835 H         1 RES1    0.0000
     38 H15        5.5661    2.9059    2.9877 H         1 RES1    0.0000
@<TRIPOS>BOND
     1    1    2 ar
     2    2    3 1
     3    4    2 ar
     4    5    4 ar
     5    6    5 1
     6    7    5 ar
     7    8    1 ar
     8    9    8 1
     9   10    4 1
    10   11   10 2
    11   12   10 2
    12   13    7 1
    13   14   13 2
    14   15   13 2
    15   16    1 1
    16   17   16 1
    17   18   17 1
    18   19   18 1
    19   20   16 2
    20   21   17 1
    21   22   20 1
    22   23   18 1
    23   24   23 1
    24   25   23 1
    25   26   23 1
    26   27   18 1
    27   28   27 1
    28   29   27 1
    29   30   27 1
    30   31   19 1
    31   32   31 1
    32   33   31 1
    33   34   31 1
    34   35   19 1
    35   36   35 1
    36   37   35 1
    37   38   35 1
    38    7    8 ar
    39   19   20 1
@<TRIPOS>SUBSTRUCTURE
     1 RES1 1

@<TRIPOS>CRYSIN
  10.6835   10.6835   12.9899  90.0000  90.0000  90.0000  78 1

