# MOL2 file generated by ConQuest
# Please check atom types

@<TRIPOS>MOLECULE
TUSJAT
    53    55     1
SMALL
NO_CHARGES
****
Generated from CSD

@<TRIPOS>ATOM
      1 C1         2.3165    5.7667    0.5803 C.3       1 RES1    0.0000
      2 H1         1.7701    4.9625    0.4543 H         1 RES1    0.0000
      3 C2         3.3674    5.4988    1.6667 C.3       1 RES1    0.0000
      4 H2         3.0272    4.8802    2.3468 H         1 RES1    0.0000
      5 C3         4.4998    4.8737    0.8657 C.3       1 RES1    0.0000
      6 H3         5.3646    4.9829    1.3145 H         1 RES1    0.0000
      7 C4         4.4330    5.6715   -0.4342 C.3       1 RES1    0.0000
      8 H4         4.9711    6.4859   -0.3456 H         1 RES1    0.0000
      9 C5         1.4189    6.9373    0.8300 C.2       1 RES1    0.0000
     10 C6         0.3175    6.9652    1.5710 C.2       1 RES1    0.0000
     11 C7        -0.2100    5.8060    2.2956 C.2       1 RES1    0.0000
     12 C8        -2.0511    4.9905    3.5582 C.3       1 RES1    0.0000
     13 H5        -1.9063    4.1604    3.0772 H         1 RES1    0.0000
     14 H6        -3.0066    5.1529    3.5888 H         1 RES1    0.0000
     15 C9        -1.5337    4.8431    4.9594 C.ar      1 RES1    0.0000
     16 C10       -1.9009    5.7630    5.9312 C.ar      1 RES1    0.0000
     17 H7        -2.4496    6.4789    5.7062 H         1 RES1    0.0000
     18 C11       -1.4534    5.6199    7.2279 C.ar      1 RES1    0.0000
     19 H8        -1.7005    6.2428    7.8734 H         1 RES1    0.0000
     20 C12       -0.6541    4.5730    7.5702 C.ar      1 RES1    0.0000
     21 H9        -0.3517    4.4827    8.4453 H         1 RES1    0.0000
     22 C13       -0.2962    3.6548    6.6230 C.ar      1 RES1    0.0000
     23 H10        0.2438    2.9334    6.8547 H         1 RES1    0.0000
     24 C14       -0.7359    3.7973    5.3188 C.ar      1 RES1    0.0000
     25 H11       -0.4843    3.1712    4.6784 H         1 RES1    0.0000
     26 C15        3.3788    6.9437    3.6054 C.3       1 RES1    0.0000
     27 H12        2.4087    6.9583    3.6054 H         1 RES1    0.0000
     28 H13        3.6889    7.8125    3.9042 H         1 RES1    0.0000
     29 C16        3.8542    5.8953    4.5643 C.ar      1 RES1    0.0000
     30 C17        2.9617    5.1648    5.3201 C.ar      1 RES1    0.0000
     31 H14        2.0490    5.3251    5.2368 H         1 RES1    0.0000
     32 C18        3.4097    4.1927    6.2054 C.ar      1 RES1    0.0000
     33 H15        2.7983    3.7139    6.7173 H         1 RES1    0.0000
     34 C19        4.7484    3.9383    6.3246 C.ar      1 RES1    0.0000
     35 H16        5.0488    3.2847    6.9135 H         1 RES1    0.0000
     36 C20        5.6434    4.6516    5.5723 C.ar      1 RES1    0.0000
     37 H17        6.5547    4.4773    5.6473 H         1 RES1    0.0000
     38 C21        5.2026    5.6279    4.7036 C.ar      1 RES1    0.0000
     39 H18        5.8205    6.1121    4.2046 H         1 RES1    0.0000
     40 C22        4.9028    4.8888   -1.6316 C.3       1 RES1    0.0000
     41 H19        5.8131    4.5870   -1.4820 H         1 RES1    0.0000
     42 H20        4.3419    4.1056   -1.7446 H         1 RES1    0.0000
     43 N1         4.8530    5.7167   -2.8677 N.pl3     1 RES1    0.0000
     44 O1         3.0684    6.0239   -0.6209 O.3       1 RES1    0.0000
     45 O2         0.3464    4.7473    2.4188 O.2       1 RES1    0.0000
     46 O3        -1.4030    6.0841    2.8314 O.3       1 RES1    0.0000
     47 O4         3.8501    6.7092    2.2585 O.3       1 RES1    0.0000
     48 O5         4.2464    3.5203    0.5421 O.3       1 RES1    0.0000
     49 H21        4.1298    3.0915    1.2315 H         1 RES1    0.0000
     50 O6         5.2246    6.8926   -2.7966 O.2       1 RES1    0.0000
     51 O7         4.4144    5.2261   -3.8716 O.2       1 RES1    0.0000
     52 H22       -0.1430    7.7894    1.6797 H         1 RES1    0.0000
     53 H23        1.6787    7.6603    0.3773 H         1 RES1    0.0000
@<TRIPOS>BOND
     1    1    2 1
     2    3    1 1
     3    4    3 1
     4    5    3 1
     5    6    5 1
     6    7    5 1
     7    8    7 1
     8    9    1 1
     9   10    9 2
    10   11   10 1
    11   12   13 1
    12   14   12 1
    13   15   12 1
    14   16   15 ar
    15   17   16 1
    16   18   16 ar
    17   19   18 1
    18   20   18 ar
    19   21   20 1
    20   22   20 ar
    21   23   22 1
    22   24   15 ar
    23   25   24 1
    24   26   27 1
    25   28   26 1
    26   29   26 1
    27   30   29 ar
    28   31   30 1
    29   32   30 ar
    30   33   32 1
    31   34   32 ar
    32   35   34 1
    33   36   34 ar
    34   37   36 1
    35   38   29 ar
    36   39   38 1
    37   40    7 1
    38   41   40 1
    39   42   40 1
    40   43   40 1
    41   44    1 1
    42   45   11 2
    43   46   11 1
    44   47    3 1
    45   48    5 1
    46   49   48 1
    47   50   43 2
    48   51   43 2
    49   52   10 1
    50   53    9 1
    51    7   44 1
    52   12   46 1
    53   22   24 ar
    54   26   47 1
    55   36   38 ar
@<TRIPOS>SUBSTRUCTURE
     1 RES1 1

@<TRIPOS>CRYSIN
  12.6020    5.3794   16.0772  90.0000 110.1650  90.0000   4 1

