# MOL2 file generated by ConQuest
# Please check atom types

@<TRIPOS>MOLECULE
TUSYAJ
    30    31     1
SMALL
NO_CHARGES
****
Generated from CSD

@<TRIPOS>ATOM
      1 O1         3.2030    0.4958    1.4703 O.2       1 RES1    0.0000
      2 O2         1.1979    0.7951    0.7608 O.2       1 RES1    0.0000
      3 N1         0.6097    4.1390    1.5517 N.2       1 RES1    0.0000
      4 N2         0.9724    3.0617    2.0462 N.2       1 RES1    0.0000
      5 N3         2.2385    1.1922    1.2434 N.pl3     1 RES1    0.0000
      6 C1         2.3325    2.6820    1.5341 C.3       1 RES1    0.0000
      7 C2         2.4613    3.4637    0.2248 C.3       1 RES1    0.0000
      8 C3         1.5907    4.6685    0.5849 C.3       1 RES1    0.0000
      9 C4         3.3441    2.9566    2.6130 C.3       1 RES1    0.0000
     10 H1         1.9976    2.9559   -0.4488 H         1 RES1    0.0000
     11 H2         1.1270    5.0351   -0.1684 H         1 RES1    0.0000
     12 H3         2.1151    5.3394    1.0745 H         1 RES1    0.0000
     13 H4         3.3298    3.8542    2.7698 H         1 RES1    0.0000
     14 H5         3.1277    2.4487    3.4279 H         1 RES1    0.0000
     15 H6         4.2505    2.6951    2.3162 H         1 RES1    0.0000
     16 O1B        3.1354    6.7490   -1.4703 O.2       1 RES1    0.0000
     17 O2B        5.1405    6.4497   -0.7608 O.2       1 RES1    0.0000
     18 N1B        5.7287    3.1058   -1.5517 N.2       1 RES1    0.0000
     19 N2B        5.3660    4.1831   -2.0462 N.2       1 RES1    0.0000
     20 N3B        4.0999    6.0526   -1.2434 N.pl3     1 RES1    0.0000
     21 C1B        4.0059    4.5628   -1.5341 C.3       1 RES1    0.0000
     22 C2B        3.8771    3.7811   -0.2248 C.3       1 RES1    0.0000
     23 C3B        4.7477    2.5763   -0.5849 C.3       1 RES1    0.0000
     24 C4B        2.9943    4.2882   -2.6130 C.3       1 RES1    0.0000
     25 H1B        4.3408    4.2889    0.4488 H         1 RES1    0.0000
     26 H2B        5.2114    2.2097    0.1684 H         1 RES1    0.0000
     27 H3B        4.2233    1.9054   -1.0745 H         1 RES1    0.0000
     28 H4B        3.0086    3.3906   -2.7698 H         1 RES1    0.0000
     29 H5B        3.2107    4.7961   -3.4279 H         1 RES1    0.0000
     30 H6B        2.0879    4.5497   -2.3162 H         1 RES1    0.0000
@<TRIPOS>BOND
     1    1    5 2
     2    2    5 2
     3    3    4 2
     4    4    6 1
     5    5    6 1
     6    6    7 1
     7    7    8 1
     8    8    3 1
     9    9    6 1
    10   10    7 1
    11   11    8 1
    12   12    8 1
    13   13    9 1
    14   14    9 1
    15   15    9 1
    16   16   20 2
    17   17   20 2
    18   18   19 2
    19   19   21 1
    20   20   21 1
    21   21   22 1
    22   22    7 1
    23   23   18 1
    24   24   21 1
    25   25   22 1
    26   26   23 1
    27   27   23 1
    28   28   24 1
    29   29   24 1
    30   30   24 1
    31   22   23 1
@<TRIPOS>SUBSTRUCTURE
     1 RES1 1

@<TRIPOS>CRYSIN
   6.3384    7.2448   12.1551  90.0000  98.1600  90.0000 231 1

