# MOL2 file generated by ConQuest
# Please check atom types

@<TRIPOS>MOLECULE
TUSZOX
    36    37     1
SMALL
NO_CHARGES
****
Generated from CSD

@<TRIPOS>ATOM
      1 C1        14.0901   20.3435    1.4377 C.ar      1 RES1    0.0000
      2 C2        14.2543   21.5863    2.0190 C.ar      1 RES1    0.0000
      3 H1        13.7259   22.3108    1.7727 H         1 RES1    0.0000
      4 C3        15.2298   21.7031    2.9737 C.ar      1 RES1    0.0000
      5 H2        15.3632   22.5253    3.3865 H         1 RES1    0.0000
      6 C4        16.0094   20.6474    3.3324 C.ar      1 RES1    0.0000
      7 H3        16.6566   20.7617    3.9905 H         1 RES1    0.0000
      8 C5        15.8542   19.3953    2.7298 C.ar      1 RES1    0.0000
      9 C6        14.8641   19.2537    1.7661 C.ar      1 RES1    0.0000
     10 H4        14.7262   18.4334    1.3485 H         1 RES1    0.0000
     11 C7        16.7312   17.1127    2.3440 C.3       1 RES1    0.0000
     12 H5        17.5771   16.6842    2.5490 H         1 RES1    0.0000
     13 H6        16.7391   17.3443    1.4017 H         1 RES1    0.0000
     14 C8        15.6269   16.1385    2.5889 C.2       1 RES1    0.0000
     15 C9        14.5758   16.1640    3.4572 C.2       1 RES1    0.0000
     16 H7        14.3520   16.8463    4.0499 H         1 RES1    0.0000
     17 C10       12.7625   14.4727    4.0209 C.3       1 RES1    0.0000
     18 H8        12.4106   15.1709    4.5979 H         1 RES1    0.0000
     19 H9        13.0462   13.7363    4.5832 H         1 RES1    0.0000
     20 C11       11.6708   13.9987    3.0985 C.3       1 RES1    0.0000
     21 H10       12.0405   13.3288    2.4869 H         1 RES1    0.0000
     22 C12       10.5549   13.3757    3.8871 C.3       1 RES1    0.0000
     23 H11        9.8473   13.0952    3.2840 H         1 RES1    0.0000
     24 H12       10.8847   12.5900    4.3516 H         1 RES1    0.0000
     25 N1        13.0409   20.1567    0.4484 N.pl3     1 RES1    0.0000
     26 N2        16.6285   18.3267    3.1165 N.3       1 RES1    0.0000
     27 H13       17.0721   18.3834    3.8515 H         1 RES1    0.0000
     28 N3        15.5582   14.9500    1.9198 N.2       1 RES1    0.0000
     29 N4        14.5235   14.2556    2.3483 N.2       1 RES1    0.0000
     30 N5        13.9302   15.0001    3.2783 N.pl3     1 RES1    0.0000
     31 O1        12.9318   19.0864   -0.0987 O.2       1 RES1    0.0000
     32 O2        12.2837   21.0882    0.2036 O.2       1 RES1    0.0000
     33 O3        11.2384   15.1354    2.3383 O.3       1 RES1    0.0000
     34 H14       10.9232   14.8826    1.6247 H         1 RES1    0.0000
     35 O4        10.0292   14.3102    4.8375 O.3       1 RES1    0.0000
     36 H15        9.2130   14.2463    4.8603 H         1 RES1    0.0000
@<TRIPOS>BOND
     1    1    2 ar
     2    2    3 1
     3    4    2 ar
     4    5    4 1
     5    6    4 ar
     6    7    6 1
     7    8    6 ar
     8    9    1 ar
     9   10    9 1
    10   11   12 1
    11   13   11 1
    12   14   11 1
    13   15   14 2
    14   16   15 1
    15   17   18 1
    16   19   17 1
    17   20   17 1
    18   21   20 1
    19   22   20 1
    20   23   22 1
    21   24   22 1
    22   25    1 1
    23   26    8 1
    24   27   26 1
    25   28   14 1
    26   29   28 2
    27   30   15 1
    28   31   25 2
    29   32   25 2
    30   33   20 1
    31   34   33 1
    32   35   22 1
    33   36   35 1
    34    8    9 ar
    35   11   26 1
    36   17   30 1
    37   29   30 1
@<TRIPOS>SUBSTRUCTURE
     1 RES1 1

@<TRIPOS>CRYSIN
  27.5179   27.5179    4.7450  90.0000  90.0000 120.0000 232 1

