# MOL2 file generated by ConQuest
# Please check atom types

@<TRIPOS>MOLECULE
TUVNEF
    52    52     1
SMALL
NO_CHARGES
****
Generated from CSD

@<TRIPOS>ATOM
      1 N1         3.3165   11.3041    1.5299 N.3       1 RES1    0.0000
      2 C1         2.8752   13.2744    5.1794 C.ar      1 RES1    0.0000
      3 C2         3.9551   13.1170    3.0401 C.ar      1 RES1    0.0000
      4 N2         4.9280   13.6796    2.1562 N.pl3     1 RES1    0.0000
      5 N3         1.2606   11.5569    5.8087 N.3       1 RES1    0.0000
      6 C3         3.2022   11.9357    2.7054 C.ar      1 RES1    0.0000
      7 C4         2.1228   12.0776    4.9251 C.ar      1 RES1    0.0000
      8 C5         2.3326   11.4674    3.6882 C.ar      1 RES1    0.0000
      9 H1         1.8565   10.6898    3.5052 H         1 RES1    0.0000
     10 C6         3.7722   13.7406    4.2493 C.ar      1 RES1    0.0000
     11 H2         4.2707   14.5013    4.4443 H         1 RES1    0.0000
     12 N4         2.7500   14.0146    6.3980 N.pl3     1 RES1    0.0000
     13 O1         5.6033   14.6271    2.5295 O.2       1 RES1    0.0000
     14 O2         5.0786   13.1948    1.0327 O.2       1 RES1    0.0000
     15 C7         0.5411   10.3103    5.6393 C.3       1 RES1    0.0000
     16 H3         0.1813   10.2772    4.7392 H         1 RES1    0.0000
     17 H4        -0.2073   10.2943    6.2555 H         1 RES1    0.0000
     18 C8         1.3917    9.0773    5.8720 C.3       1 RES1    0.0000
     19 H5         2.1250    9.0726    5.2368 H         1 RES1    0.0000
     20 H6         1.7706    9.1161    6.7640 H         1 RES1    0.0000
     21 C9         0.5992    7.7940    5.7254 C.3       1 RES1    0.0000
     22 H7        -0.1947    7.8493    6.2804 H         1 RES1    0.0000
     23 H8         0.3107    7.7064    4.8031 H         1 RES1    0.0000
     24 O3         3.4958   14.9574    6.6029 O.2       1 RES1    0.0000
     25 C10        2.6913   10.0385    1.2043 C.3       1 RES1    0.0000
     26 H9         2.5919    9.9718    0.2418 H         1 RES1    0.0000
     27 H10        1.8052   10.0125    1.5974 H         1 RES1    0.0000
     28 O4         1.8904   13.6970    7.2205 O.2       1 RES1    0.0000
     29 C11        2.7133    7.5487    1.7378 C.3       1 RES1    0.0000
     30 H11        2.1840    7.5207    2.5505 H         1 RES1    0.0000
     31 H12        2.1008    7.5257    0.9859 H         1 RES1    0.0000
     32 C12        1.3824    6.5599    6.1133 C.3       1 RES1    0.0000
     33 H13        2.1624    6.4942    5.5410 H         1 RES1    0.0000
     34 H14        1.6963    6.6656    7.0245 H         1 RES1    0.0000
     35 C13        3.5958    6.3249    1.6869 C.3       1 RES1    0.0000
     36 H15        4.3340    6.4517    2.3041 H         1 RES1    0.0000
     37 H16        3.9696    6.2526    0.7956 H         1 RES1    0.0000
     38 C14        3.4874    8.8551    1.7010 C.3       1 RES1    0.0000
     39 H17        3.8089    9.0510    2.5942 H         1 RES1    0.0000
     40 H18        4.2625    8.7398    1.1294 H         1 RES1    0.0000
     41 O5         2.6188    4.9036    3.3945 O.3       1 RES1    0.0000
     42 O6         0.2591    4.9218    4.6939 O.3       1 RES1    0.0000
     43 C15        0.6019    5.2700    6.0163 C.3       1 RES1    0.0000
     44 H19        1.1290    4.5543    6.4037 H         1 RES1    0.0000
     45 H20       -0.2107    5.3550    6.5394 H         1 RES1    0.0000
     46 C16        2.9062    5.0249    2.0255 C.3       1 RES1    0.0000
     47 H21        2.0791    4.9643    1.5225 H         1 RES1    0.0000
     48 H22        3.4730    4.2867    1.7550 H         1 RES1    0.0000
     49 H23        0.9438    4.9177    4.2634 H         1 RES1    0.0000
     50 H24        3.3408    4.9987    3.8516 H         1 RES1    0.0000
     51 H25        1.2274   11.9104    6.5409 H         1 RES1    0.0000
     52 H26        3.8382   11.5747    1.0031 H         1 RES1    0.0000
@<TRIPOS>BOND
     1    1    6 1
     2    2    7 ar
     3    3    4 1
     4    4   13 2
     5    5    7 1
     6    6    3 ar
     7    7    8 ar
     8    8    6 ar
     9    9    8 1
    10   10    2 ar
    11   11   10 1
    12   12    2 1
    13   14    4 2
    14   15    5 1
    15   16   15 1
    16   17   15 1
    17   18   15 1
    18   19   18 1
    19   20   18 1
    20   21   18 1
    21   22   21 1
    22   23   21 1
    23   24   12 2
    24   25    1 1
    25   26   25 1
    26   27   25 1
    27   28   12 2
    28   29   30 1
    29   31   29 1
    30   32   21 1
    31   33   32 1
    32   34   32 1
    33   35   29 1
    34   36   35 1
    35   37   35 1
    36   38   25 1
    37   39   38 1
    38   40   38 1
    39   41   46 1
    40   42   43 1
    41   43   32 1
    42   44   43 1
    43   45   43 1
    44   46   35 1
    45   47   46 1
    46   48   46 1
    47   49   42 1
    48   50   41 1
    49   51    5 1
    50   52    1 1
    51    3   10 ar
    52   29   38 1
@<TRIPOS>SUBSTRUCTURE
     1 RES1 1

@<TRIPOS>CRYSIN
   4.7244   12.1071   15.6874  84.5530  87.2110  88.5850   2 1

