# MOL2 file generated by ConQuest
# Please check atom types

@<TRIPOS>MOLECULE
TUVZEP
    59    63     1
SMALL
NO_CHARGES
****
Generated from CSD

@<TRIPOS>ATOM
      1 O1         6.1361   -4.8955    0.0778 O.2       1 RES1    0.0000
      2 O2         4.7240   -5.1081    1.6975 O.2       1 RES1    0.0000
      3 O3         2.6675    1.3204    1.1234 O.3       1 RES1    0.0000
      4 O4         8.3482    7.3448    1.3441 O.3       1 RES1    0.0000
      5 O5         6.3373    7.9000   -0.1959 O.3       1 RES1    0.0000
      6 N1         5.2862   -4.4491    0.8240 N.pl3     1 RES1    0.0000
      7 N2         4.9183    1.9806    0.5631 N.3       1 RES1    0.0000
      8 C1         3.1673    3.6987    1.0163 C.3       1 RES1    0.0000
      9 H1         3.3712    3.8229    1.9557 H         1 RES1    0.0000
     10 H2         2.8168    4.5354    0.6748 H         1 RES1    0.0000
     11 C2         2.0893    2.6113    0.8762 C.3       1 RES1    0.0000
     12 H3         1.4564    2.7674    1.6078 H         1 RES1    0.0000
     13 C3         3.8260    1.0735    0.2994 C.3       1 RES1    0.0000
     14 H4         3.5549    1.2033   -0.6327 H         1 RES1    0.0000
     15 C4         5.4833    1.8899    1.9264 C.3       1 RES1    0.0000
     16 H5         5.6485    0.9609    2.1544 H         1 RES1    0.0000
     17 H6         4.8558    2.2559    2.5701 H         1 RES1    0.0000
     18 C5         6.7805    2.6716    1.9685 C.3       1 RES1    0.0000
     19 H7         7.0718    2.7556    2.8896 H         1 RES1    0.0000
     20 H8         7.4641    2.1820    1.4842 H         1 RES1    0.0000
     21 C6         6.6370    4.0508    1.3642 C.ar      1 RES1    0.0000
     22 C7         7.5948    5.0354    1.6316 C.ar      1 RES1    0.0000
     23 H9         8.3213    4.8311    2.1736 H         1 RES1    0.0000
     24 C8         7.4756    6.3070    1.1024 C.ar      1 RES1    0.0000
     25 C9         6.3916    6.6225    0.2674 C.ar      1 RES1    0.0000
     26 C10        5.4598    5.6453    0.0027 C.ar      1 RES1    0.0000
     27 H10        4.7416    5.8452   -0.5530 H         1 RES1    0.0000
     28 C11        5.5625    4.3574    0.5503 C.ar      1 RES1    0.0000
     29 C12        4.4672    3.3525    0.2619 C.3       1 RES1    0.0000
     30 H11        4.2716    3.3942   -0.6977 H         1 RES1    0.0000
     31 C13        4.2039   -0.3835    0.4633 C.ar      1 RES1    0.0000
     32 C14        5.4123   -0.8414   -0.0632 C.ar      1 RES1    0.0000
     33 H12        5.9861   -0.2454   -0.4853 H         1 RES1    0.0000
     34 C15        5.7634   -2.1746    0.0366 C.ar      1 RES1    0.0000
     35 H13        6.5654   -2.4835   -0.3205 H         1 RES1    0.0000
     36 C16        4.9021   -3.0361    0.6748 C.ar      1 RES1    0.0000
     37 C17        3.6907   -2.6237    1.1793 C.ar      1 RES1    0.0000
     38 H14        3.1164   -3.2286    1.5886 H         1 RES1    0.0000
     39 C18        3.3464   -1.2885    1.0667 C.ar      1 RES1    0.0000
     40 H15        2.5305   -0.9964    1.4000 H         1 RES1    0.0000
     41 C19        9.3656    7.1313    2.3137 C.3       1 RES1    0.0000
     42 H16        8.9651    6.8711    3.1469 H         1 RES1    0.0000
     43 H17        9.8655    7.9414    2.4373 H         1 RES1    0.0000
     44 H18        9.9548    6.4365    2.0125 H         1 RES1    0.0000
     45 C20        5.1669    8.2628   -0.9174 C.3       1 RES1    0.0000
     46 H19        5.0660    7.6842   -1.6765 H         1 RES1    0.0000
     47 H20        5.2447    9.1714   -1.2159 H         1 RES1    0.0000
     48 H21        4.4006    8.1780   -0.3461 H         1 RES1    0.0000
     49 C21        1.2648    2.6337   -0.3992 C.ar      1 RES1    0.0000
     50 C22        0.9064    1.4511   -1.0209 C.ar      1 RES1    0.0000
     51 H22        1.2230    0.6445   -0.6840 H         1 RES1    0.0000
     52 C23        0.0827    1.4481   -2.1398 C.ar      1 RES1    0.0000
     53 H23       -0.1440    0.6445   -2.5463 H         1 RES1    0.0000
     54 C24       -0.3955    2.6320   -2.6452 C.ar      1 RES1    0.0000
     55 H24       -0.9450    2.6284   -3.3960 H         1 RES1    0.0000
     56 C25       -0.0662    3.8196   -2.0445 C.ar      1 RES1    0.0000
     57 H25       -0.3955    4.6212   -2.3851 H         1 RES1    0.0000
     58 C26        0.7613    3.8291   -0.9238 C.ar      1 RES1    0.0000
     59 H26        0.9831    4.6389   -0.5210 H         1 RES1    0.0000
@<TRIPOS>BOND
     1    1    6 2
     2    2    6 2
     3    3   11 1
     4    4   24 1
     5    5   25 1
     6    6   36 1
     7    7   13 1
     8    8    9 1
     9   10    8 1
    10   11    8 1
    11   12   11 1
    12   13    3 1
    13   14   13 1
    14   15    7 1
    15   16   15 1
    16   17   15 1
    17   18   15 1
    18   19   18 1
    19   20   18 1
    20   21   18 1
    21   22   21 ar
    22   23   22 1
    23   24   22 ar
    24   25   24 ar
    25   26   25 ar
    26   27   26 1
    27   28   21 ar
    28   29    7 1
    29   30   29 1
    30   31   13 1
    31   32   31 ar
    32   33   32 1
    33   34   32 ar
    34   35   34 1
    35   36   34 ar
    36   37   36 ar
    37   38   37 1
    38   39   31 ar
    39   40   39 1
    40   41    4 1
    41   42   41 1
    42   43   41 1
    43   44   41 1
    44   45    5 1
    45   46   45 1
    46   47   45 1
    47   48   45 1
    48   49   11 1
    49   50   49 ar
    50   51   50 1
    51   52   50 ar
    52   53   52 1
    53   54   52 ar
    54   55   54 1
    55   56   54 ar
    56   57   56 1
    57   58   49 ar
    58   59   58 1
    59    8   29 1
    60   26   28 ar
    61   28   29 1
    62   37   39 ar
    63   56   58 ar
@<TRIPOS>SUBSTRUCTURE
     1 RES1 1

@<TRIPOS>CRYSIN
  16.5500   29.5660    9.1560  90.0000  90.0000  90.0000  61 1

