# MOL2 file generated by ConQuest
# Please check atom types

@<TRIPOS>MOLECULE
TUWFOG
    40    42     1
SMALL
NO_CHARGES
****
Generated from CSD

@<TRIPOS>ATOM
      1 O1         1.5321    0.3585    5.1118 O.2       1 RES1    0.0000
      2 O2         1.1133    2.0860    0.9280 O.2       1 RES1    0.0000
      3 O3         5.9835    2.4833    4.3118 O.3       1 RES1    0.0000
      4 H1         5.6648    3.2533    4.2047 H         1 RES1    0.0000
      5 O4         7.8573    1.2077    2.8291 O.3       1 RES1    0.0000
      6 H2         8.0526    1.7226    3.4625 H         1 RES1    0.0000
      7 O5         5.9707   -2.9429   -2.2089 O.2       1 RES1    0.0000
      8 O6         5.3533   -4.3923   -0.7345 O.2       1 RES1    0.0000
      9 N1         1.0493    1.0857    2.9934 N.am      1 RES1    0.0000
     10 N2         5.7527   -3.2783   -1.0484 N.pl3     1 RES1    0.0000
     11 C1         1.8057    1.0283    4.1308 C.2       1 RES1    0.0000
     12 C2         3.0457    1.8688    3.9428 C.3       1 RES1    0.0000
     13 H3         3.1805    2.4870    4.7177 H         1 RES1    0.0000
     14 C3         4.2287    0.9013    3.7959 C.3       1 RES1    0.0000
     15 H4         4.4227    0.4871    4.6742 H         1 RES1    0.0000
     16 H5         3.9834    0.1787    3.1653 H         1 RES1    0.0000
     17 C4         5.4777    1.6066    3.2878 C.3       1 RES1    0.0000
     18 C5         5.1752    2.3849    2.0315 C.2       1 RES1    0.0000
     19 H6         5.8833    2.5688    1.4255 H         1 RES1    0.0000
     20 C6         3.9573    2.8215    1.7407 C.2       1 RES1    0.0000
     21 H7         3.8258    3.2646    0.9106 H         1 RES1    0.0000
     22 C7         2.7756    2.6532    2.6525 C.3       1 RES1    0.0000
     23 H8         2.4730    3.5683    2.9192 H         1 RES1    0.0000
     24 C8         1.5809    1.9440    2.0255 C.2       1 RES1    0.0000
     25 C9        -0.1229    0.2482    2.7479 C.3       1 RES1    0.0000
     26 H9        -0.8398    0.5002    3.3660 H         1 RES1    0.0000
     27 H10        0.1130   -0.6930    2.8870 H         1 RES1    0.0000
     28 H11       -0.4274    0.3752    1.8250 H         1 RES1    0.0000
     29 C10        6.6211    0.5732    3.1006 C.3       1 RES1    0.0000
     30 H12        6.7199    0.0705    3.9585 H         1 RES1    0.0000
     31 C11        6.3753   -0.4368    2.0041 C.ar      1 RES1    0.0000
     32 C12        6.7601   -0.1586    0.6910 C.ar      1 RES1    0.0000
     33 H13        7.1642    0.6761    0.4865 H         1 RES1    0.0000
     34 C13        6.5568   -1.0866   -0.3122 C.ar      1 RES1    0.0000
     35 H14        6.8140   -0.8989   -1.2078 H         1 RES1    0.0000
     36 C14        5.9708   -2.2928    0.0151 C.ar      1 RES1    0.0000
     37 C15        5.5896   -2.6129    1.3074 C.ar      1 RES1    0.0000
     38 H15        5.1938   -3.4527    1.5088 H         1 RES1    0.0000
     39 C16        5.8048   -1.6703    2.2952 C.ar      1 RES1    0.0000
     40 H16        5.5584   -1.8693    3.1899 H         1 RES1    0.0000
@<TRIPOS>BOND
     1    1   11 2
     2    2   24 2
     3    3    4 1
     4    5    6 1
     5    7   10 2
     6    8   10 2
     7    9   11 1
     8   10   36 1
     9   11   12 1
    10   12   13 1
    11   14   12 1
    12   15   14 1
    13   16   14 1
    14   17    3 1
    15   18   17 1
    16   19   18 1
    17   20   18 2
    18   21   20 1
    19   22   12 1
    20   23   22 1
    21   24    9 1
    22   25    9 1
    23   26   25 1
    24   27   25 1
    25   28   25 1
    26   29    5 1
    27   30   29 1
    28   31   29 1
    29   32   31 ar
    30   33   32 1
    31   34   32 ar
    32   35   34 1
    33   36   34 ar
    34   37   36 ar
    35   38   37 1
    36   39   31 ar
    37   40   39 1
    38   14   17 1
    39   17   29 1
    40   20   22 1
    41   22   24 1
    42   37   39 ar
@<TRIPOS>SUBSTRUCTURE
     1 RES1 1

@<TRIPOS>CRYSIN
  16.7357    9.4027   19.3073  90.0000 101.3251  90.0000  15 1

