# MOL2 file generated by ConQuest
# Please check atom types

@<TRIPOS>MOLECULE
TUWLOM
    34    37     1
SMALL
NO_CHARGES
****
Generated from CSD

@<TRIPOS>ATOM
      1 O1         8.4310    2.7653    0.4966 O.3       1 RES1    0.0000
      2 C1         8.0525    3.8216   -0.4199 C.3       1 RES1    0.0000
      3 H1         8.0297    4.6824    0.0462 H         1 RES1    0.0000
      4 C2         6.6458    3.4541   -0.9302 C.3       1 RES1    0.0000
      5 H2         6.0121    4.1652   -0.7493 H         1 RES1    0.0000
      6 H3         6.6568    3.2731   -1.8830 H         1 RES1    0.0000
      7 C3         6.3041    2.2054   -0.1435 C.3       1 RES1    0.0000
      8 H4         6.6429    1.4204   -0.6215 H         1 RES1    0.0000
      9 C4         4.8299    2.0355    0.1066 C.ar      1 RES1    0.0000
     10 C5         4.0233    2.0041   -1.0429 C.ar      1 RES1    0.0000
     11 H5         4.4266    2.0466   -1.8798 H         1 RES1    0.0000
     12 C6         2.6375    1.9117   -0.9636 C.ar      1 RES1    0.0000
     13 H6         2.1179    1.9154   -1.7349 H         1 RES1    0.0000
     14 C7         2.0504    1.8157    0.2756 C.ar      1 RES1    0.0000
     15 H7         1.1235    1.7714    0.3453 H         1 RES1    0.0000
     16 C8         2.8193    1.7825    1.4076 C.ar      1 RES1    0.0000
     17 H8         2.4020    1.6938    2.2341 H         1 RES1    0.0000
     18 C9         4.2190    1.8803    1.3574 C.ar      1 RES1    0.0000
     19 C10        4.9829    1.8416    2.6654 C.3       1 RES1    0.0000
     20 H9         5.2640    2.7466    2.8783 H         1 RES1    0.0000
     21 H10        4.3739    1.5571    3.3641 H         1 RES1    0.0000
     22 C11        6.1948    0.9513    2.7066 C.ar      1 RES1    0.0000
     23 C12        6.2932   -0.1219    3.5622 C.ar      1 RES1    0.0000
     24 H11        5.5650   -0.3565    4.0904 H         1 RES1    0.0000
     25 C13        7.4465   -0.8478    3.6449 C.ar      1 RES1    0.0000
     26 H12        7.4912   -1.5663    4.2350 H         1 RES1    0.0000
     27 C14        8.5373   -0.5412    2.8774 C.ar      1 RES1    0.0000
     28 H13        9.3171   -1.0436    2.9480 H         1 RES1    0.0000
     29 C15        8.4687    0.5172    1.9995 C.ar      1 RES1    0.0000
     30 H14        9.2009    0.7351    1.4701 H         1 RES1    0.0000
     31 C16        7.3045    1.2542    1.9115 C.ar      1 RES1    0.0000
     32 N1         7.1207    2.4214    1.0858 N.3       1 RES1    0.0000
     33 C17        9.1005    3.8364   -1.4811 C.1       1 RES1    0.0000
     34 N2         9.8595    3.8715   -2.3070 N.1       1 RES1    0.0000
@<TRIPOS>BOND
     1    1    2 1
     2    2    3 1
     3    4    2 1
     4    5    4 1
     5    6    4 1
     6    7    4 1
     7    8    7 1
     8    9    7 1
     9   10    9 ar
    10   11   10 1
    11   12   10 ar
    12   13   12 1
    13   14   12 ar
    14   15   14 1
    15   16   14 ar
    16   17   16 1
    17   18    9 ar
    18   19   18 1
    19   20   19 1
    20   21   19 1
    21   22   19 1
    22   23   22 ar
    23   24   23 1
    24   25   23 ar
    25   26   25 1
    26   27   25 ar
    27   28   27 1
    28   29   27 ar
    29   30   29 1
    30   31   22 ar
    31   32    1 1
    32   33    2 1
    33   34   33 3
    34    7   32 1
    35   16   18 ar
    36   29   31 ar
    37   31   32 1
@<TRIPOS>SUBSTRUCTURE
     1 RES1 1

@<TRIPOS>CRYSIN
   9.9340   18.4710   29.0410  90.0000  90.0000  90.0000  43 2

