# MOL2 file generated by ConQuest
# Please check atom types

@<TRIPOS>MOLECULE
TUXKEC
    68    70     1
SMALL
USER_CHARGES
****
Generated from CSD

@<TRIPOS>ATOM
      1 O1         8.5489    7.1696    0.5214 O.2       1 RES1    0.0000
      2 O2        10.2168    6.2707    1.6870 O.3       1 RES1    0.0000
      3 O3        12.9863   12.0916    1.4724 O.2       1 RES1   -1.0000
      4 O4        11.6208   11.0577    5.7666 O.2       1 RES1    0.0000
      5 N1        12.8089   12.1332    2.7375 N.pl3     1 RES1    1.0000
      6 N2        12.1140   11.6682    4.7596 N.3       1 RES1    0.0000
      7 C1         4.7729   -4.8398   -4.1386 C.3       1 RES1    0.0000
      8 C2         4.9604   -3.3925   -3.8117 C.3       1 RES1    0.0000
      9 C3         5.3637   -2.6211   -3.5379 C.3       1 RES1    0.0000
     10 C4         5.5017   -1.1906   -3.1164 C.3       1 RES1    0.0000
     11 C5         6.6797   -0.8367   -2.3182 C.3       1 RES1    0.0000
     12 C6         6.8515    0.6116   -1.9197 C.3       1 RES1    0.0000
     13 C7         8.0521    0.8582   -1.0705 C.3       1 RES1    0.0000
     14 C8         8.3300    2.2542   -0.5666 C.ar      1 RES1    0.0000
     15 C9         9.4110    2.4876    0.2474 C.ar      1 RES1    0.0000
     16 C10        7.5320    3.3318   -0.9062 C.ar      1 RES1    0.0000
     17 C11        9.7106    3.7492    0.7102 C.ar      1 RES1    0.0000
     18 C12        7.8261    4.6045   -0.4388 C.ar      1 RES1    0.0000
     19 C13        8.9165    4.8212    0.3709 C.ar      1 RES1    0.0000
     20 C14        9.1658    6.2078    0.8220 C.2       1 RES1    0.0000
     21 C15       10.6298    7.5478    2.1049 C.ar      1 RES1    0.0000
     22 C16       11.7125    8.0969    1.4860 C.ar      1 RES1    0.0000
     23 C17       10.0263    8.1604    3.1601 C.ar      1 RES1    0.0000
     24 C18       12.2052    9.3127    1.9299 C.ar      1 RES1    0.0000
     25 C19       10.5200    9.3696    3.6127 C.ar      1 RES1    0.0000
     26 C20       11.6027    9.9505    3.0064 C.ar      1 RES1    0.0000
     27 C21       12.1505   11.2223    3.4907 C.2       1 RES1    0.0000
     28 C22       13.4715   13.1851    3.5862 C.3       1 RES1    0.0000
     29 C23       12.6048   13.0852    4.8653 C.3       1 RES1    0.0000
     30 C24       14.8955   12.7173    3.7910 C.3       1 RES1    0.0000
     31 C25       13.4389   14.5251    2.8882 C.3       1 RES1    0.0000
     32 C26       13.3466   13.2710    6.1709 C.3       1 RES1    0.0000
     33 C27       11.3617   13.9630    4.8408 C.3       1 RES1    0.0000
     34 H1         4.8392   -5.1639   -3.3687 H         1 RES1    0.0000
     35 H2         4.5619   -4.8090   -4.8471 H         1 RES1    0.0000
     36 H3         5.6315   -5.2105   -4.5398 H         1 RES1    0.0000
     37 H4         4.7683   -3.1450   -4.7558 H         1 RES1    0.0000
     38 H5         4.0274   -3.3925   -3.4154 H         1 RES1    0.0000
     39 H6         5.4399   -2.9489   -2.5360 H         1 RES1    0.0000
     40 H7         6.2153   -2.7304   -3.8630 H         1 RES1    0.0000
     41 H8         5.5651   -0.7097   -3.9119 H         1 RES1    0.0000
     42 H9         4.7526   -0.9431   -2.5538 H         1 RES1    0.0000
     43 H10        6.6325   -1.3166   -1.5385 H         1 RES1    0.0000
     44 H11        7.5200   -1.1859   -2.6228 H         1 RES1    0.0000
     45 H12        6.9307    1.1579   -2.7341 H         1 RES1    0.0000
     46 H13        6.0109    0.9431   -1.4539 H         1 RES1    0.0000
     47 H14        8.0505    0.2615   -0.3073 H         1 RES1    0.0000
     48 H15        8.7864    0.5229   -1.4873 H         1 RES1    0.0000
     49 H16        9.8886    1.7835    0.4809 H         1 RES1    0.0000
     50 H17        6.8394    3.1749   -1.4494 H         1 RES1    0.0000
     51 H18       10.4384    3.8752    1.2735 H         1 RES1    0.0000
     52 H19        7.2211    5.3142   -0.6724 H         1 RES1    0.0000
     53 H20       12.1395    7.6571    0.8550 H         1 RES1    0.0000
     54 H21        9.3353    7.7598    3.6225 H         1 RES1    0.0000
     55 H22       12.9748    9.6927    1.5118 H         1 RES1    0.0000
     56 H23       10.1236    9.7488    4.3060 H         1 RES1    0.0000
     57 H24       14.9346   11.7658    4.3394 H         1 RES1    0.0000
     58 H25       15.2767   12.6062    3.0614 H         1 RES1    0.0000
     59 H26       15.4240   13.3812    4.2949 H         1 RES1    0.0000
     60 H27       13.9179   15.2021    3.5112 H         1 RES1    0.0000
     61 H28       13.8717   14.4457    2.0840 H         1 RES1    0.0000
     62 H29       12.4802   14.7959    2.6250 H         1 RES1    0.0000
     63 H30       12.7160   13.1011    6.8353 H         1 RES1    0.0000
     64 H31       14.1186   12.6342    6.1919 H         1 RES1    0.0000
     65 H32       13.6506   14.1469    6.2431 H         1 RES1    0.0000
     66 H33       10.7859   13.7174    5.5150 H         1 RES1    0.0000
     67 H34       11.5763   14.9033    4.9339 H         1 RES1    0.0000
     68 H35       10.8650   13.8574    3.9876 H         1 RES1    0.0000
@<TRIPOS>BOND
     1    1   20 2
     2    2   20 1
     3    3    5 1
     4    4    6 1
     5    5   27 2
     6    6   27 1
     7    7    8 1
     8    8    9 1
     9    9   10 1
    10   10   11 1
    11   11   12 1
    12   12   13 1
    13   13   14 1
    14   14   15 ar
    15   15   17 ar
    16   16   14 ar
    17   17   19 ar
    18   18   16 ar
    19   19   18 ar
    20   20   19 1
    21   21    2 1
    22   22   21 ar
    23   23   21 ar
    24   24   22 ar
    25   25   23 ar
    26   26   24 ar
    27   27   26 1
    28   28    5 1
    29   29    6 1
    30   30   28 1
    31   31   28 1
    32   32   29 1
    33   33   29 1
    34   34    7 1
    35   35    7 1
    36   36    7 1
    37   37    8 1
    38   38    8 1
    39   39    9 1
    40   40    9 1
    41   41   10 1
    42   42   10 1
    43   43   11 1
    44   44   11 1
    45   45   12 1
    46   46   12 1
    47   47   13 1
    48   48   13 1
    49   49   15 1
    50   50   16 1
    51   51   17 1
    52   52   18 1
    53   53   22 1
    54   54   23 1
    55   55   24 1
    56   56   25 1
    57   57   30 1
    58   58   30 1
    59   59   30 1
    60   60   31 1
    61   61   31 1
    62   62   31 1
    63   63   32 1
    64   64   32 1
    65   65   32 1
    66   66   33 1
    67   67   33 1
    68   68   33 1
    69   25   26 ar
    70   28   29 1
@<TRIPOS>SUBSTRUCTURE
     1 RES1 1

@<TRIPOS>CRYSIN
  12.2008    9.3379   22.9580  90.0000 104.1150  90.0000 231 1

