# MOL2 file generated by ConQuest
# Please check atom types

@<TRIPOS>MOLECULE
TUXNIL
    95    87     2
SMALL
NO_CHARGES
****
Generated from CSD

@<TRIPOS>ATOM
      1 O1        -1.1340   12.9688    0.5120 O.2       1 RES1    0.0000
      2 O2         1.0111   11.2593    3.5501 O.3       1 RES1    0.0000
      3 O3         2.9277   18.7951    3.2415 O.2       1 RES1    0.0000
      4 O4         2.8410   15.8990    7.0962 O.3       1 RES1    0.0000
      5 O5        -0.4096    8.3111    5.6729 O.2       1 RES1    0.0000
      6 O6         1.3395    8.6974    4.5054 O.2       1 RES1    0.0000
      7 O7         0.8846   15.3005    4.2073 O.3       1 RES1    0.0000
      8 N1         0.0932   13.5686    2.3281 N.am      1 RES1    0.0000
      9 H1         0.3845   13.3004    3.1166 H         1 RES1    0.0000
     10 N2         2.8705   17.1339    4.7900 N.am      1 RES1    0.0000
     11 H2         2.5439   16.3811    4.9834 H         1 RES1    0.0000
     12 N3         0.1489    8.8043    4.7139 N.pl3     1 RES1    0.0000
     13 C1        -0.2091   10.7362    3.1929 C.ar      1 RES1    0.0000
     14 C2        -0.6862    9.5599    3.7670 C.ar      1 RES1    0.0000
     15 C3        -1.9535    9.0693    3.5180 C.ar      1 RES1    0.0000
     16 H3        -2.2543    8.2742    3.9440 H         1 RES1    0.0000
     17 C4        -2.7739    9.7474    2.6444 C.ar      1 RES1    0.0000
     18 H4        -3.6392    9.4118    2.4434 H         1 RES1    0.0000
     19 C5        -2.3329   10.9211    2.0588 C.ar      1 RES1    0.0000
     20 H5        -2.9082   11.3879    1.4632 H         1 RES1    0.0000
     21 C6        -1.0626   11.4373    2.3214 C.ar      1 RES1    0.0000
     22 C7         2.1127   10.9637    2.6206 C.3       1 RES1    0.0000
     23 H6         1.7614   10.8674    1.7001 H         1 RES1    0.0000
     24 H7         2.5510   10.1137    2.8766 H         1 RES1    0.0000
     25 C8         3.1009   12.0843    2.6756 C.ar      1 RES1    0.0000
     26 C9         3.3289   12.8788    1.5672 C.ar      1 RES1    0.0000
     27 H8         2.8557   12.7045    0.7620 H         1 RES1    0.0000
     28 C10        4.2325   13.9208    1.6097 C.ar      1 RES1    0.0000
     29 H9         4.3899   14.4498    0.8352 H         1 RES1    0.0000
     30 C11        4.9059   14.1876    2.7831 C.ar      1 RES1    0.0000
     31 H10        5.5089   14.9208    2.8252 H         1 RES1    0.0000
     32 C12        4.7099   13.3955    3.8957 C.ar      1 RES1    0.0000
     33 H11        5.1874   13.5759    4.6966 H         1 RES1    0.0000
     34 C13        3.8176   12.3394    3.8440 C.ar      1 RES1    0.0000
     35 H12        3.6924   11.7859    4.6063 H         1 RES1    0.0000
     36 C14       -0.6977   12.7186    1.6247 C.2       1 RES1    0.0000
     37 C15        1.1737   15.6246    2.8925 C.ar      1 RES1    0.0000
     38 C16        0.6955   14.7635    1.8877 C.ar      1 RES1    0.0000
     39 C17        0.9240   15.0727    0.5488 C.ar      1 RES1    0.0000
     40 H13        0.5974   14.5039   -0.1387 H         1 RES1    0.0000
     41 C18        1.6312   16.2162    0.2320 C.ar      1 RES1    0.0000
     42 H14        1.7712   16.4423   -0.6810 H         1 RES1    0.0000
     43 C19        2.1387   17.0392    1.2211 C.ar      1 RES1    0.0000
     44 H15        2.6295   17.8155    0.9786 H         1 RES1    0.0000
     45 C20        1.9400   16.7415    2.5713 C.ar      1 RES1    0.0000
     46 C21       -0.4653   15.6510    4.5989 C.3       1 RES1    0.0000
     47 H16       -1.1095   15.1045    4.0640 H         1 RES1    0.0000
     48 C22       -0.6027   15.2765    6.0695 C.3       1 RES1    0.0000
     49 H17        0.0862   15.7640    6.5868 H         1 RES1    0.0000
     50 H18       -0.4243   14.3084    6.1677 H         1 RES1    0.0000
     51 C23       -1.9764   15.5874    6.6679 C.3       1 RES1    0.0000
     52 H19       -1.9952   15.3047    7.6059 H         1 RES1    0.0000
     53 H20       -2.6674   15.1045    6.1677 H         1 RES1    0.0000
     54 H21       -2.1476   16.5507    6.6149 H         1 RES1    0.0000
     55 C24       -0.7698   17.1466    4.3725 C.3       1 RES1    0.0000
     56 H22       -0.4537   17.4127    3.4843 H         1 RES1    0.0000
     57 H23       -0.3132   17.6812    5.0550 H         1 RES1    0.0000
     58 H24       -1.7366   17.2950    4.4333 H         1 RES1    0.0000
     59 C25        2.6051   17.6619    3.5692 C.2       1 RES1    0.0000
     60 C26        3.6032   17.0340    7.0724 C.ar      1 RES1    0.0000
     61 C27        3.6034   17.7281    5.8502 C.ar      1 RES1    0.0000
     62 C28        4.3463   18.8872    5.7343 C.ar      1 RES1    0.0000
     63 H25        4.3591   19.3629    4.9117 H         1 RES1    0.0000
     64 C29        5.0786   19.3627    6.8237 C.ar      1 RES1    0.0000
     65 H26        5.5822   20.1637    6.7411 H         1 RES1    0.0000
     66 C30        5.0771   18.6782    8.0127 C.ar      1 RES1    0.0000
     67 H27        5.5793   19.0096    8.7482 H         1 RES1    0.0000
     68 C31        4.3470   17.5072    8.1515 C.ar      1 RES1    0.0000
     69 H28        4.3537   17.0312    8.9741 H         1 RES1    0.0000
     70 C32        2.9950   15.0334    8.2503 C.3       1 RES1    0.0000
     71 H29        2.7752   15.5308    9.0785 H         1 RES1    0.0000
     72 H30        3.9310   14.7183    8.3150 H         1 RES1    0.0000
     73 C33        2.0713   13.8708    8.0898 C.ar      1 RES1    0.0000
     74 C34        2.1500   13.0356    6.9811 C.ar      1 RES1    0.0000
     75 H31        2.7809   13.2227    6.2954 H         1 RES1    0.0000
     76 C35        1.3236   11.9400    6.8661 C.ar      1 RES1    0.0000
     77 H32        1.3859   11.3761    6.1038 H         1 RES1    0.0000
     78 C36        0.4026   11.6599    7.8601 C.ar      1 RES1    0.0000
     79 H33       -0.1649   10.9027    7.7820 H         1 RES1    0.0000
     80 C37        0.3107   12.4789    8.9587 C.ar      1 RES1    0.0000
     81 H34       -0.3185   12.2852    9.6442 H         1 RES1    0.0000
     82 C38        1.1373   13.5882    9.0671 C.ar      1 RES1    0.0000
     83 H35        1.0595   14.1601    9.8218 H         1 RES1    0.0000
     84 H36       -1.0781   15.5049    3.8739 Du        2 SUP2    0.0000
     85 C39       -0.4062   17.1042    4.9849 Du        2 SUP2    0.0000
     86 H37        0.0520   17.6506    4.2962 Du        2 SUP2    0.0000
     87 H38        0.0379   17.2337    5.8607 Du        2 SUP2    0.0000
     88 C40       -1.9239   17.4174    5.0550 Du        2 SUP2    0.0000
     89 H39       -2.0518   18.3643    5.2763 Du        2 SUP2    0.0000
     90 H40       -2.3410   16.8616    5.7469 Du        2 SUP2    0.0000
     91 H41       -2.3378   17.2267    4.1886 Du        2 SUP2    0.0000
     92 C41       -0.7905   14.7560    5.8030 Du        2 SUP2    0.0000
     93 H42       -0.4735   13.8445    5.6285 Du        2 SUP2    0.0000
     94 H43       -1.7596   14.7418    5.9479 Du        2 SUP2    0.0000
     95 H44       -0.3455   15.1069    6.6024 Du        2 SUP2    0.0000
@<TRIPOS>BOND
     1    1   36 2
     2    2   13 1
     3    3   59 2
     4    4   60 1
     5    5   12 2
     6    6   12 2
     7    7   37 1
     8    8    9 1
     9   10   11 1
    10   12   14 1
    11   13   14 ar
    12   14   15 ar
    13   15   16 1
    14   17   15 ar
    15   18   17 1
    16   19   17 ar
    17   20   19 1
    18   21   13 ar
    19   22    2 1
    20   23   22 1
    21   24   22 1
    22   25   22 1
    23   26   25 ar
    24   27   26 1
    25   28   26 ar
    26   29   28 1
    27   30   28 ar
    28   31   30 1
    29   32   30 ar
    30   33   32 1
    31   34   25 ar
    32   35   34 1
    33   36    8 1
    34   37   38 ar
    35   38    8 1
    36   39   38 ar
    37   40   39 1
    38   41   39 ar
    39   42   41 1
    40   43   41 ar
    41   44   43 1
    42   45   37 ar
    43   46    7 1
    44   47   46 1
    45   48   46 1
    46   49   48 1
    47   50   48 1
    48   51   48 1
    49   52   51 1
    50   53   51 1
    51   54   51 1
    52   55   46 1
    53   56   55 1
    54   57   55 1
    55   58   55 1
    56   59   10 1
    57   60   61 ar
    58   61   10 1
    59   62   61 ar
    60   63   62 1
    61   64   62 ar
    62   65   64 1
    63   66   64 ar
    64   67   66 1
    65   68   60 ar
    66   69   68 1
    67   70    4 1
    68   71   70 1
    69   72   70 1
    70   73   70 1
    71   74   73 ar
    72   75   74 1
    73   76   74 ar
    74   77   76 1
    75   78   76 ar
    76   79   78 1
    77   80   78 ar
    78   81   80 1
    79   82   73 ar
    80   83   82 1
    81   19   21 ar
    82   21   36 1
    83   32   34 ar
    84   43   45 ar
    85   45   59 1
    86   66   68 ar
    87   80   82 ar
@<TRIPOS>SUBSTRUCTURE
     1 RES1 1
     2 SUP2 84

@<TRIPOS>CRYSIN
   8.8451   23.5530   15.8186  90.0000  99.9060  90.0000  14 1

