# MOL2 file generated by ConQuest
# Please check atom types

@<TRIPOS>MOLECULE
TUXPUZ
    64    67     1
SMALL
NO_CHARGES
****
Generated from CSD

@<TRIPOS>ATOM
      1 C1         9.9312    8.4999    2.3665 C.3       1 RES1    0.0000
      2 C2         9.5708    9.6001    3.3876 C.3       1 RES1    0.0000
      3 H1         9.5713    9.2878    4.3274 H         1 RES1    0.0000
      4 H2         8.7317   10.0816    3.1747 H         1 RES1    0.0000
      5 C3        10.8669   10.3847    2.9832 C.3       1 RES1    0.0000
      6 C4        10.9127    9.4981    1.6983 C.3       1 RES1    0.0000
      7 H3        10.5435    9.9425    0.8944 H         1 RES1    0.0000
      8 H4        11.8061    9.1140    1.5110 H         1 RES1    0.0000
      9 C5        10.6240    7.2996    3.0100 C.3       1 RES1    0.0000
     10 H5         9.9381    6.7471    3.4622 H         1 RES1    0.0000
     11 H6        11.2441    7.6321    3.7066 H         1 RES1    0.0000
     12 C6        11.4160    6.3979    2.0429 C.3       1 RES1    0.0000
     13 C7        12.7877    6.0282    2.5576 C.3       1 RES1    0.0000
     14 H7        12.6977    5.5144    3.3872 H         1 RES1    0.0000
     15 H8        13.3014    6.8442    2.7331 H         1 RES1    0.0000
     16 H9        13.2538    5.4869    1.8859 H         1 RES1    0.0000
     17 C8         9.0862    4.2503    0.6752 C.2       1 RES1    0.0000
     18 C9         7.9015    4.0910   -0.1698 C.ar      1 RES1    0.0000
     19 C10        7.1859    5.1630   -0.7544 C.ar      1 RES1    0.0000
     20 C11        6.0903    4.9230   -1.5807 C.ar      1 RES1    0.0000
     21 H10        5.6001    5.6463   -1.9540 H         1 RES1    0.0000
     22 C12        5.7254    3.6140   -1.8505 C.ar      1 RES1    0.0000
     23 H11        4.9892    3.4503   -2.4276 H         1 RES1    0.0000
     24 C13        6.4026    2.5381   -1.3032 C.ar      1 RES1    0.0000
     25 H12        6.1307    1.6484   -1.4971 H         1 RES1    0.0000
     26 C14        7.4844    2.7766   -0.4682 C.ar      1 RES1    0.0000
     27 C15       12.0400   10.1801    3.9413 C.ar      1 RES1    0.0000
     28 C16       13.3174    9.8489    3.4859 C.ar      1 RES1    0.0000
     29 H13       13.4596    9.7151    2.5567 H         1 RES1    0.0000
     30 C17       14.3825    9.7113    4.3616 C.ar      1 RES1    0.0000
     31 H14       15.2421    9.4804    4.0302 H         1 RES1    0.0000
     32 C18       14.1957    9.9096    5.7201 C.ar      1 RES1    0.0000
     33 H15       14.9222    9.8078    6.3231 H         1 RES1    0.0000
     34 C19       12.9402   10.2583    6.1902 C.ar      1 RES1    0.0000
     35 H16       12.8084   10.4060    7.1188 H         1 RES1    0.0000
     36 C20       11.8754   10.3934    5.3138 C.ar      1 RES1    0.0000
     37 H17       11.0206   10.6349    5.6509 H         1 RES1    0.0000
     38 C21       10.7180   11.8749    2.7291 C.ar      1 RES1    0.0000
     39 C22       11.6685   12.5334    1.9398 C.ar      1 RES1    0.0000
     40 H18       12.3945   12.0399    1.5763 H         1 RES1    0.0000
     41 C23       11.5721   13.8843    1.6797 C.ar      1 RES1    0.0000
     42 H19       12.2305   14.3112    1.1443 H         1 RES1    0.0000
     43 C24       10.5137   14.6233    2.1984 C.ar      1 RES1    0.0000
     44 H20       10.4362   15.5496    2.0040 H         1 RES1    0.0000
     45 C25        9.5713   13.9956    3.0017 C.ar      1 RES1    0.0000
     46 H21        8.8534   14.4966    3.3705 H         1 RES1    0.0000
     47 C26        9.6758   12.6325    3.2687 C.ar      1 RES1    0.0000
     48 H22        9.0302   12.2123    3.8247 H         1 RES1    0.0000
     49 C27        7.0603    7.5299   -1.1682 C.3       1 RES1    0.0000
     50 H23        7.2572    7.4395   -2.1248 H         1 RES1    0.0000
     51 H24        7.4484    8.3651   -0.8333 H         1 RES1    0.0000
     52 H25        6.0899    7.5438   -1.0332 H         1 RES1    0.0000
     53 C28        7.8480    0.4263   -0.1753 C.3       1 RES1    0.0000
     54 H26        6.9205    0.2723    0.1028 H         1 RES1    0.0000
     55 H27        8.4400   -0.1840    0.3111 H         1 RES1    0.0000
     56 H28        7.9316    0.2651   -1.1388 H         1 RES1    0.0000
     57 N1         9.5770    5.3681    1.0513 N.2       1 RES1    0.0000
     58 O1         8.8149    8.1204    1.5733 O.3       1 RES1    0.0000
     59 O2        10.7500    5.1307    1.7973 O.3       1 RES1    0.0000
     60 O3         7.6293    6.4137   -0.4527 O.3       1 RES1    0.0000
     61 O4         8.2142    1.7769    0.1150 O.3       1 RES1    0.0000
     62 H29        9.5298    3.4764    0.9527 H         1 RES1    0.0000
     63 H30       11.5587    6.8500    1.1221 H         1 RES1    0.0000
     64 H31        8.9657    7.2425    1.2763 H         1 RES1    0.0000
@<TRIPOS>BOND
     1    1    2 1
     2    2    3 1
     3    4    2 1
     4    5    2 1
     5    6    1 1
     6    7    6 1
     7    8    6 1
     8    9    1 1
     9   10    9 1
    10   11    9 1
    11   12    9 1
    12   13   12 1
    13   14   13 1
    14   15   13 1
    15   16   13 1
    16   17   18 1
    17   18   19 ar
    18   19   20 ar
    19   20   21 1
    20   22   20 ar
    21   23   22 1
    22   24   22 ar
    23   25   24 1
    24   26   18 ar
    25   27    5 1
    26   28   27 ar
    27   29   28 1
    28   30   28 ar
    29   31   30 1
    30   32   30 ar
    31   33   32 1
    32   34   32 ar
    33   35   34 1
    34   36   27 ar
    35   37   36 1
    36   38    5 1
    37   39   38 ar
    38   40   39 1
    39   41   39 ar
    40   42   41 1
    41   43   41 ar
    42   44   43 1
    43   45   43 ar
    44   46   45 1
    45   47   38 ar
    46   48   47 1
    47   49   50 1
    48   51   49 1
    49   52   49 1
    50   53   54 1
    51   55   53 1
    52   56   53 1
    53   57   17 2
    54   58    1 1
    55   59   12 1
    56   60   19 1
    57   61   26 1
    58   62   17 1
    59   63   12 1
    60   64   58 1
    61    5    6 1
    62   24   26 ar
    63   34   36 ar
    64   45   47 ar
    65   49   60 1
    66   53   61 1
    67   57   59 1
@<TRIPOS>SUBSTRUCTURE
     1 RES1 1

@<TRIPOS>CRYSIN
  11.5000   14.4850   14.0380  90.0000  98.3920  90.0000 231 1

