# MOL2 file generated by ConQuest
# Please check atom types

@<TRIPOS>MOLECULE
TUXQAG
    75    66     2
SMALL
NO_CHARGES
****
Generated from CSD

@<TRIPOS>ATOM
      1 C1         0.4919   10.5065    8.5563 C.3       1 RES1    0.0000
      2 C2         1.5679   11.5964    8.6142 C.3       1 RES1    0.0000
      3 H1         2.1758   11.5988    7.8322 H         1 RES1    0.0000
      4 H2         2.0802   11.6068    9.4620 H         1 RES1    0.0000
      5 C3         0.4461   12.6808    8.5425 C.3       1 RES1    0.0000
      6 C4        -0.5732   11.5562    8.9128 C.3       1 RES1    0.0000
      7 H3        -0.8335   11.5521    9.8675 H         1 RES1    0.0000
      8 H4        -1.3703   11.5312    8.3267 H         1 RES1    0.0000
      9 C5         0.6812    3.8614    6.5673 C.ar      1 RES1    0.0000
     10 C6         0.9497    3.2899    7.8315 C.ar      1 RES1    0.0000
     11 C7         0.9861    1.9047    7.9890 C.ar      1 RES1    0.0000
     12 H5         1.1681    1.5257    8.8408 H         1 RES1    0.0000
     13 C8         0.7569    1.0820    6.8949 C.ar      1 RES1    0.0000
     14 H6         0.7779    0.1384    7.0090 H         1 RES1    0.0000
     15 C9         0.4984    1.6079    5.6381 C.ar      1 RES1    0.0000
     16 H7         0.3450    1.0348    4.8968 H         1 RES1    0.0000
     17 C10        0.4694    2.9864    5.4815 C.ar      1 RES1    0.0000
     18 C11        0.5993   13.8204    9.5341 C.ar      1 RES1    0.0000
     19 C12       -0.4528   14.2269   10.3515 C.ar      1 RES1    0.0000
     20 H8        -1.2913   13.7843   10.2927 H         1 RES1    0.0000
     21 C13       -0.2907   15.2783   11.2576 C.ar      1 RES1    0.0000
     22 H9        -1.0145   15.5450   11.8124 H         1 RES1    0.0000
     23 C14        0.9270   15.9321   11.3470 C.ar      1 RES1    0.0000
     24 H10        1.0420   16.6458   11.9632 H         1 RES1    0.0000
     25 C15        1.9799   15.5371   10.5297 C.ar      1 RES1    0.0000
     26 H11        2.8171   15.9828   10.5897 H         1 RES1    0.0000
     27 C16        1.8148   14.4962    9.6262 C.ar      1 RES1    0.0000
     28 H12        2.5376   14.2414    9.0655 H         1 RES1    0.0000
     29 C17        0.1826   13.2632    7.1529 C.ar      1 RES1    0.0000
     30 C18       -1.0701   13.8054    6.8728 C.ar      1 RES1    0.0000
     31 H13       -1.7482   13.7843    7.5367 H         1 RES1    0.0000
     32 C19       -1.3415   14.3782    5.6315 C.ar      1 RES1    0.0000
     33 H14       -2.2003   14.7451    5.4562 H         1 RES1    0.0000
     34 C20       -0.3597   14.4128    4.6505 C.ar      1 RES1    0.0000
     35 H15       -0.5488   14.7838    3.7963 H         1 RES1    0.0000
     36 C21        0.8935   13.9042    4.9280 C.ar      1 RES1    0.0000
     37 H16        1.5769   13.9437    4.2681 H         1 RES1    0.0000
     38 C22        1.1628   13.3334    6.1720 C.ar      1 RES1    0.0000
     39 H17        2.0296   12.9877    6.3502 H         1 RES1    0.0000
     40 C23        1.3207    3.6510   10.1673 C.3       1 RES1    0.0000
     41 H18        0.5038    3.1705   10.4163 H         1 RES1    0.0000
     42 H19        1.4693    4.3888   10.7947 H         1 RES1    0.0000
     43 H20        2.0834    3.0369   10.1992 H         1 RES1    0.0000
     44 C24        0.1325    2.8002    3.1097 C.3       1 RES1    0.0000
     45 H21        0.9788    2.3239    2.9791 H         1 RES1    0.0000
     46 H22       -0.0441    3.3717    2.3338 H         1 RES1    0.0000
     47 H23       -0.5954    2.1517    3.2098 H         1 RES1    0.0000
     48 O1         1.1832    4.1725    8.8420 O.3       1 RES1    0.0000
     49 O2         0.2177    3.6058    4.2858 O.3       1 RES1    0.0000
     50 O3         0.8577    9.4487    9.4982 O.3       1 RES1    0.0000
     51 O4         0.5747    7.4643    6.6020 O.3       1 RES1    0.0000
     52 N1         0.2400    6.1736    7.1583 N.2       1 RES1    0.0000
     53 C25        0.6023    8.1982    8.9358 C.3       1 RES1    0.0000
     54 H24       -0.3362    7.9230    9.0836 H         1 RES1    0.0000
     55 H25        1.2068    7.5078    9.3067 H         1 RES1    0.0000
     56 C26        0.8722    8.4299    7.5020 C.3       1 RES1    0.0000
     57 H26        1.8545    8.5973    7.4221 H         1 RES1    0.0000
     58 C27        0.1813    9.7657    7.2186 C.3       1 RES1    0.0000
     59 H27       -0.7920    9.6531    7.0769 H         1 RES1    0.0000
     60 H28        0.5795   10.2276    6.4407 H         1 RES1    0.0000
     61 C28        0.7086    5.2916    6.3743 C.2       1 RES1    0.0000
     62 H29        1.1192    5.6055    5.5768 H         1 RES1    0.0000
     63 O5         0.4812    9.4728    9.5509 Du        2 SUP2    0.0000
     64 O6         0.2861    7.4643    6.6548 Du        2 SUP2    0.0000
     65 N2         0.8348    6.1848    7.0859 Du        2 SUP2    0.0000
     66 C29        0.2124    8.2561    8.9765 Du        2 SUP2    0.0000
     67 H30       -0.5725    7.8425    9.4168 Du        2 SUP2    0.0000
     68 H31        0.9872    7.6510    9.0926 Du        2 SUP2    0.0000
     69 C30       -0.0604    8.4476    7.5548 Du        2 SUP2    0.0000
     70 H32       -1.0532    8.5394    7.4809 Du        2 SUP2    0.0000
     71 C31        0.5066    9.8140    7.1915 Du        2 SUP2    0.0000
     72 H33       -0.0690   10.2855    6.5372 Du        2 SUP2    0.0000
     73 H34        1.4250    9.7432    6.8281 Du        2 SUP2    0.0000
     74 C32        0.4921    5.3061    6.2417 Du        2 SUP2    0.0000
     75 H35        0.1171    5.5636    5.4079 Du        2 SUP2    0.0000
@<TRIPOS>BOND
     1    1    2 1
     2    2    3 1
     3    4    2 1
     4    5    2 1
     5    6    1 1
     6    7    6 1
     7    8    6 1
     8    9   10 ar
     9   10   11 ar
    10   11   12 1
    11   13   11 ar
    12   14   13 1
    13   15   13 ar
    14   16   15 1
    15   17    9 ar
    16   18    5 1
    17   19   18 ar
    18   20   19 1
    19   21   19 ar
    20   22   21 1
    21   23   21 ar
    22   24   23 1
    23   25   23 ar
    24   26   25 1
    25   27   18 ar
    26   28   27 1
    27   29    5 1
    28   30   29 ar
    29   31   30 1
    30   32   30 ar
    31   33   32 1
    32   34   32 ar
    33   35   34 1
    34   36   34 ar
    35   37   36 1
    36   38   29 ar
    37   39   38 1
    38   40   41 1
    39   42   40 1
    40   43   40 1
    41   44   45 1
    42   46   44 1
    43   47   44 1
    44   48   10 1
    45   49   17 1
    46   50    1 1
    47   51   52 1
    48   52   61 2
    49   53   50 1
    50   54   53 1
    51   55   53 1
    52   56   51 1
    53   57   56 1
    54   58    1 1
    55   59   58 1
    56   60   58 1
    57   61    9 1
    58   62   61 1
    59    5    6 1
    60   15   17 ar
    61   25   27 ar
    62   36   38 ar
    63   40   48 1
    64   44   49 1
    65   53   56 1
    66   56   58 1
@<TRIPOS>SUBSTRUCTURE
     1 RES1 1
     2 SUP2 63

@<TRIPOS>CRYSIN
   9.5712   16.0938   15.5175  90.0000 103.6930  90.0000  14 1

