# MOL2 file generated by ConQuest
# Please check atom types

@<TRIPOS>MOLECULE
TUXSIQ
    55    57     1
SMALL
NO_CHARGES
****
Generated from CSD

@<TRIPOS>ATOM
      1 C1         6.3977   16.6015    6.9392 C.3       1 RES1    0.0000
      2 H1         5.9090   17.3033    6.5034 H         1 RES1    0.0000
      3 H2         6.0494   16.4697    7.8248 H         1 RES1    0.0000
      4 H3         7.3253   16.8429    6.9927 H         1 RES1    0.0000
      5 C2         7.8934   13.2514    4.9820 C.3       1 RES1    0.0000
      6 H4         7.7137   12.5051    4.3749 H         1 RES1    0.0000
      7 C3         7.5708   14.5311    4.2392 C.2       1 RES1    0.0000
      8 H5         7.9391   14.6787    3.3981 H         1 RES1    0.0000
      9 C4         6.7829   15.4298    4.7642 C.2       1 RES1    0.0000
     10 H6         6.5413   16.1649    4.2481 H         1 RES1    0.0000
     11 C5         6.2549   15.3297    6.1517 C.3       1 RES1    0.0000
     12 H7         5.3120   15.0646    6.1231 H         1 RES1    0.0000
     13 C6         7.0372   11.9986    6.9463 C.ar      1 RES1    0.0000
     14 C7         6.4378   12.0574    8.1981 C.ar      1 RES1    0.0000
     15 H8         6.0783   12.8576    8.5070 H         1 RES1    0.0000
     16 C8         6.3776   10.9190    8.9820 C.ar      1 RES1    0.0000
     17 H9         5.9692   10.9634    9.8159 H         1 RES1    0.0000
     18 C9         6.9072    9.7202    8.5588 C.ar      1 RES1    0.0000
     19 C10        7.5171    9.6678    7.3016 C.ar      1 RES1    0.0000
     20 H10        7.8733    8.8660    6.9909 H         1 RES1    0.0000
     21 C11        7.5909   10.7919    6.5284 C.ar      1 RES1    0.0000
     22 H11        8.0210   10.7507    5.7052 H         1 RES1    0.0000
     23 C12        6.7796    8.5103    9.4230 C.2       1 RES1    0.0000
     24 C13        7.0140    6.1335    9.4784 C.3       1 RES1    0.0000
     25 H12        6.0888    5.9382    9.6945 H         1 RES1    0.0000
     26 H13        7.5203    6.1811   10.3052 H         1 RES1    0.0000
     27 C14        7.5716    5.0792    8.5927 C.3       1 RES1    0.0000
     28 H14        7.5259    4.2298    9.0373 H         1 RES1    0.0000
     29 H15        7.0613    5.0411    7.7802 H         1 RES1    0.0000
     30 H16        8.4864    5.2840    8.3873 H         1 RES1    0.0000
     31 C15       10.1209   12.2733    4.7910 C.2       1 RES1    0.0000
     32 C16       12.3372   11.5017    4.6481 C.3       1 RES1    0.0000
     33 H17       13.2399   11.8462    4.7338 H         1 RES1    0.0000
     34 H18       12.1535   11.3842    3.7035 H         1 RES1    0.0000
     35 C17       12.2522   10.1664    5.3356 C.ar      1 RES1    0.0000
     36 C18       11.7193   10.0393    6.5802 C.ar      1 RES1    0.0000
     37 H19       11.4024   10.7935    7.0231 H         1 RES1    0.0000
     38 C19       11.6431    8.8025    7.1945 C.ar      1 RES1    0.0000
     39 H20       11.2684    8.7136    8.0427 H         1 RES1    0.0000
     40 C20       12.1350    7.7085    6.5213 C.ar      1 RES1    0.0000
     41 C21       12.6959    7.8308    5.3053 C.ar      1 RES1    0.0000
     42 H21       13.0498    7.0830    4.8803 H         1 RES1    0.0000
     43 C22       12.7456    9.0581    4.6946 C.ar      1 RES1    0.0000
     44 H22       13.1140    9.1407    3.8446 H         1 RES1    0.0000
     45 N1         9.3225   13.2006    5.3374 N.am      1 RES1    0.0000
     46 N2         6.9899   13.1228    6.1088 N.3       1 RES1    0.0000
     47 N3        12.0154    6.3891    7.1481 N.pl3     1 RES1    0.0000
     48 O1         7.0107   14.3374    6.8668 O.3       1 RES1    0.0000
     49 O2        11.4088   12.4654    5.1947 O.3       1 RES1    0.0000
     50 O3         9.7767   11.3810    4.0374 O.2       1 RES1    0.0000
     51 O4         7.1078    7.3942    8.7552 O.3       1 RES1    0.0000
     52 O5         6.4362    8.5151   10.5766 O.2       1 RES1    0.0000
     53 O6        12.6156    5.4777    6.6767 O.2       1 RES1    0.0000
     54 O7        11.4305    6.2621    8.1320 O.2       1 RES1    0.0000
     55 H23        9.5889   13.8452    5.8570 H         1 RES1    0.0000
@<TRIPOS>BOND
     1    1    2 1
     2    3    1 1
     3    4    1 1
     4    5    6 1
     5    7    5 1
     6    8    7 1
     7    9    7 2
     8   10    9 1
     9   11    1 1
    10   12   11 1
    11   13   14 ar
    12   14   15 1
    13   16   14 ar
    14   17   16 1
    15   18   16 ar
    16   19   18 ar
    17   20   19 1
    18   21   13 ar
    19   22   21 1
    20   23   18 1
    21   24   25 1
    22   26   24 1
    23   27   24 1
    24   28   27 1
    25   29   27 1
    26   30   27 1
    27   31   45 1
    28   32   33 1
    29   34   32 1
    30   35   32 1
    31   36   35 ar
    32   37   36 1
    33   38   36 ar
    34   39   38 1
    35   40   38 ar
    36   41   40 ar
    37   42   41 1
    38   43   35 ar
    39   44   43 1
    40   45    5 1
    41   46    5 1
    42   47   40 1
    43   48   11 1
    44   49   31 1
    45   50   31 2
    46   51   23 1
    47   52   23 2
    48   53   47 2
    49   54   47 2
    50   55   45 1
    51    9   11 1
    52   13   46 1
    53   19   21 ar
    54   24   51 1
    55   32   49 1
    56   41   43 ar
    57   46   48 1
@<TRIPOS>SUBSTRUCTURE
     1 RES1 1

@<TRIPOS>CRYSIN
   8.0242   15.8775   17.8568  90.0000  90.0000  90.0000  19 1

