# MOL2 file generated by ConQuest
# Please check atom types

@<TRIPOS>MOLECULE
TUZNUZ
    47    48     1
SMALL
NO_CHARGES
****
Generated from CSD

@<TRIPOS>ATOM
      1 O1         8.0628    6.4516   13.1283 O.2       1 RES1    0.0000
      2 O2         5.9420    5.8274   13.2646 O.3       1 RES1    0.0000
      3 O3         6.2951    1.7607    8.0349 O.2       1 RES1    0.0000
      4 O4         6.1195    2.2406    5.9677 O.2       1 RES1    0.0000
      5 O5         4.8251    6.5885    4.5699 O.2       1 RES1    0.0000
      6 O6         4.8309    8.2056    5.9533 O.2       1 RES1    0.0000
      7 N1         6.9857    4.2210   11.0226 N.2       1 RES1    0.0000
      8 N2         6.7399    3.6551    9.7900 N.pl3     1 RES1    0.0000
      9 H1         6.8111    2.8053    9.6777 H         1 RES1    0.0000
     10 N3         6.1785    2.5788    7.1318 N.pl3     1 RES1    0.0000
     11 N4         5.0512    7.0564    5.6692 N.pl3     1 RES1    0.0000
     12 C1         7.5455    4.0983   13.3253 C.3       1 RES1    0.0000
     13 C2         6.8168    3.4874   14.5214 C.2       1 RES1    0.0000
     14 C3         7.6433    3.3490   15.5301 C.2       1 RES1    0.0000
     15 H2         7.3803    3.0142   16.3580 H         1 RES1    0.0000
     16 C4         9.0431    3.7769   15.2371 C.3       1 RES1    0.0000
     17 H3         9.6835    3.1129   15.5365 H         1 RES1    0.0000
     18 H4         9.2463    4.6273   15.6550 H         1 RES1    0.0000
     19 C5         9.0407    3.8945   13.7304 C.3       1 RES1    0.0000
     20 H5         9.3979    3.0889   13.3237 H         1 RES1    0.0000
     21 H6         9.5774    4.6514   13.4470 H         1 RES1    0.0000
     22 C6         5.3654    3.1601   14.5054 C.3       1 RES1    0.0000
     23 H7         4.8543    3.9733   14.5054 H         1 RES1    0.0000
     24 H8         5.1456    2.6450   15.2851 H         1 RES1    0.0000
     25 H9         5.1604    2.6528   13.7176 H         1 RES1    0.0000
     26 C7         7.2434    5.5981   13.2196 C.2       1 RES1    0.0000
     27 C8         5.5471    7.2250   13.1363 C.3       1 RES1    0.0000
     28 H10        6.0558    7.7721   13.7544 H         1 RES1    0.0000
     29 H11        5.7249    7.5386   12.2348 H         1 RES1    0.0000
     30 C9         4.1415    7.3319   13.4261 C.3       1 RES1    0.0000
     31 H12        3.9700    6.9912   14.3068 H         1 RES1    0.0000
     32 H13        3.6425    6.8214   12.7841 H         1 RES1    0.0000
     33 H14        3.8743    8.2524   13.3813 H         1 RES1    0.0000
     34 C10        7.2262    3.4315   11.9947 C.2       1 RES1    0.0000
     35 C11        7.2738    1.9357   11.9066 C.3       1 RES1    0.0000
     36 H15        7.9646    1.6741   11.2933 H         1 RES1    0.0000
     37 H16        6.4281    1.6071   11.5944 H         1 RES1    0.0000
     38 H17        7.4598    1.5696   12.7744 H         1 RES1    0.0000
     39 C12        6.3851    4.4555    8.7604 C.ar      1 RES1    0.0000
     40 C13        6.2849    5.8476    8.9476 C.ar      1 RES1    0.0000
     41 H18        6.4996    6.2098    9.7770 H         1 RES1    0.0000
     42 C14        5.8849    6.6745    7.9500 C.ar      1 RES1    0.0000
     43 H19        5.8213    7.5901    8.1037 H         1 RES1    0.0000
     44 C15        5.5710    6.1595    6.7027 C.ar      1 RES1    0.0000
     45 C16        5.6956    4.8335    6.4481 C.ar      1 RES1    0.0000
     46 H20        5.5097    4.4994    5.6010 H         1 RES1    0.0000
     47 C17        6.0999    3.9833    7.4552 C.ar      1 RES1    0.0000
@<TRIPOS>BOND
     1    1   26 2
     2    2   26 1
     3    3   10 2
     4    4   10 2
     5    5   11 2
     6    6   11 2
     7    7    8 1
     8    8    9 1
     9   10   47 1
    10   11   44 1
    11   12   13 1
    12   13   14 2
    13   14   15 1
    14   16   14 1
    15   17   16 1
    16   18   16 1
    17   19   12 1
    18   20   19 1
    19   21   19 1
    20   22   13 1
    21   23   22 1
    22   24   22 1
    23   25   22 1
    24   26   12 1
    25   27    2 1
    26   28   27 1
    27   29   27 1
    28   30   27 1
    29   31   30 1
    30   32   30 1
    31   33   30 1
    32   34    7 2
    33   35   34 1
    34   36   35 1
    35   37   35 1
    36   38   35 1
    37   39    8 1
    38   40   39 ar
    39   41   40 1
    40   42   40 ar
    41   43   42 1
    42   44   42 ar
    43   45   44 ar
    44   46   45 1
    45   47   39 ar
    46   12   34 1
    47   16   19 1
    48   45   47 ar
@<TRIPOS>SUBSTRUCTURE
     1 RES1 1

@<TRIPOS>CRYSIN
   7.3303    7.9078   16.0868  84.5140  89.7850  81.0480   2 1

