# MOL2 file generated by ConQuest
# Please check atom types

@<TRIPOS>MOLECULE
TUZPEJ
    19    19     1
SMALL
USER_CHARGES
****
Generated from CSD

@<TRIPOS>ATOM
      1 O1        -1.1706    3.4109    8.8890 O.3       1 RES1    0.0000
      2 O2         0.0583    3.6456    4.9773 O.2       1 RES1    0.0000
      3 O3        -3.9522    0.7982    6.0126 O.2       1 RES1    0.0000
      4 N1        -0.6617    3.0762    7.6458 N.2       1 RES1    0.0000
      5 N2        -2.5293    3.1685    8.9503 N.2       1 RES1    0.0000
      6 N3        -1.6043    2.2507    5.6347 N.am      1 RES1    0.0000
      7 N4        -1.9427    1.2647    3.2052 N.2       1 RES1    0.0000
      8 N5        -2.1382    0.8633    2.0672 N.1       1 RES1    1.0000
      9 N6        -2.4124    0.4135    1.0681 N.2       1 RES1   -1.0000
     10 N7        -4.1970    2.5082    7.4862 N.am      1 RES1    0.0000
     11 N8        -6.7240    0.6119    5.5812 N.2       1 RES1    0.0000
     12 N9        -6.4652   -0.5816    5.8012 N.1       1 RES1    1.0000
     13 N10       -6.3165   -1.6918    5.8426 N.2       1 RES1   -1.0000
     14 C1        -1.6879    2.6793    6.9582 C.2       1 RES1    0.0000
     15 C2        -2.8541    2.7339    7.7752 C.2       1 RES1    0.0000
     16 C3        -0.7458    2.7611    4.7245 C.2       1 RES1    0.0000
     17 C4        -0.7950    2.1507    3.3510 C.3       1 RES1    0.0000
     18 C5        -4.6677    1.5570    6.6346 C.2       1 RES1    0.0000
     19 C6        -6.1780    1.5479    6.5466 C.3       1 RES1    0.0000
@<TRIPOS>BOND
     1    1    4 1
     2    2   16 2
     3    3   18 2
     4    4   14 2
     5    5    1 1
     6    6   14 1
     7    7    8 2
     8    8    9 2
     9   10   15 1
    10   11   12 2
    11   12   13 2
    12   14   15 1
    13   15    5 2
    14   16    6 1
    15   17    7 1
    16   18   10 1
    17   19   11 1
    18   16   17 1
    19   18   19 1
@<TRIPOS>SUBSTRUCTURE
     1 RES1 1

@<TRIPOS>CRYSIN
   8.4020   15.1460    9.2470  90.0000 111.0900  90.0000 231 1

