# MOL2 file generated by ConQuest
# Please check atom types

@<TRIPOS>MOLECULE
UBATUO
    42    45     1
SMALL
NO_CHARGES
****
Generated from CSD

@<TRIPOS>ATOM
      1 C1         2.4098    3.5089   11.0704 C.3       1 RES1    0.0000
      2 C2         1.8539    2.6301   12.1770 C.3       1 RES1    0.0000
      3 O1         0.9807    3.3692   13.0890 O.3       1 RES1    0.0000
      4 N1         1.5816    3.3860   14.3679 N.2       1 RES1    0.0000
      5 C3         2.7130    2.7878   14.3311 C.2       1 RES1    0.0000
      6 C4         3.1022    2.2867   12.9842 C.3       1 RES1    0.0000
      7 C5         4.2136    3.0799   12.2649 C.3       1 RES1    0.0000
      8 C6         4.4583    2.3950   10.9200 C.3       1 RES1    0.0000
      9 N2         3.1599    2.5254   10.2334 N.3       1 RES1    0.0000
     10 C7         3.4359    4.2927   11.7883 C.3       1 RES1    0.0000
     11 C8         3.4733    2.5958   15.5607 C.ar      1 RES1    0.0000
     12 C9         4.5432    1.7740   15.6268 C.ar      1 RES1    0.0000
     13 C10        5.2190    1.4993   16.8066 C.ar      1 RES1    0.0000
     14 C11        4.7389    2.0979   17.9689 C.ar      1 RES1    0.0000
     15 C12        3.6874    2.9410   17.9226 C.ar      1 RES1    0.0000
     16 C13        3.0396    3.2252   16.7442 C.ar      1 RES1    0.0000
     17 C14        3.1554    2.6911    8.7802 C.3       1 RES1    0.0000
     18 C15        1.7380    2.5874    8.2918 C.3       1 RES1    0.0000
     19 C16        3.9575    1.5260    8.2015 C.3       1 RES1    0.0000
     20 C17        3.7528    4.0247    8.3432 C.3       1 RES1    0.0000
     21 H1         1.7422    4.0374   10.5856 H         1 RES1    0.0000
     22 H2         1.4169    1.8406   11.8514 H         1 RES1    0.0000
     23 H3         3.2624    1.3274   12.9825 H         1 RES1    0.0000
     24 H4         4.9727    3.2627   12.7865 H         1 RES1    0.0000
     25 H5         5.1173    2.8614   10.4127 H         1 RES1    0.0000
     26 H6         4.6750    1.4790   11.0334 H         1 RES1    0.0000
     27 H7         3.0057    4.8327   12.5102 H         1 RES1    0.0000
     28 H8         3.9683    4.7759   11.1885 H         1 RES1    0.0000
     29 H9         4.8643    1.3933   14.8241 H         1 RES1    0.0000
     30 H10        5.9633    0.9478   16.8318 H         1 RES1    0.0000
     31 H11        5.1426    1.9235   18.7755 H         1 RES1    0.0000
     32 H12        3.4246    3.3060   18.7007 H         1 RES1    0.0000
     33 H13        2.2312    3.7930   16.7229 H         1 RES1    0.0000
     34 H14        1.3125    1.5637    8.5221 H         1 RES1    0.0000
     35 H15        1.6721    2.5701    7.4971 H         1 RES1    0.0000
     36 H16        1.0683    3.3962    8.6160 H         1 RES1    0.0000
     37 H17        4.8436    1.5637    8.5221 H         1 RES1    0.0000
     38 H18        3.9230    1.5322    7.2535 H         1 RES1    0.0000
     39 H19        3.5461    0.6854    8.5166 H         1 RES1    0.0000
     40 H20        4.6427    4.0788    8.6500 H         1 RES1    0.0000
     41 H21        3.2200    4.7354    8.7113 H         1 RES1    0.0000
     42 H22        3.7285    4.0843    7.3787 H         1 RES1    0.0000
@<TRIPOS>BOND
     1    1    2 1
     2    2    3 1
     3    3    4 1
     4    4    5 2
     5    5    6 1
     6    6    2 1
     7    7    6 1
     8    8    7 1
     9    9    1 1
    10   10    1 1
    11   11    5 1
    12   12   11 ar
    13   13   12 ar
    14   14   13 ar
    15   15   14 ar
    16   16   11 ar
    17   17    9 1
    18   18   17 1
    19   19   17 1
    20   20   17 1
    21   21    1 1
    22   22    2 1
    23   23    6 1
    24   24    7 1
    25   25    8 1
    26   26    8 1
    27   27   10 1
    28   28   10 1
    29   29   12 1
    30   30   13 1
    31   31   14 1
    32   32   15 1
    33   33   16 1
    34   34   18 1
    35   35   18 1
    36   36   18 1
    37   37   19 1
    38   38   19 1
    39   39   19 1
    40   40   20 1
    41   41   20 1
    42   42   20 1
    43    7   10 1
    44    8    9 1
    45   15   16 ar
@<TRIPOS>SUBSTRUCTURE
     1 RES1 1

@<TRIPOS>CRYSIN
  12.3250    9.0180   13.6420  90.0000  93.8400  90.0000  14 2

