# MOL2 file generated by ConQuest
# Please check atom types

@<TRIPOS>MOLECULE
UBAWEB
    46    48     1
SMALL
NO_CHARGES
****
Generated from CSD

@<TRIPOS>ATOM
      1 O1         2.3226    7.6216    7.6856 O.3       1 RES1    0.0000
      2 O2        -1.6566    7.4208    5.9623 O.2       1 RES1    0.0000
      3 O3        -1.1752    6.8424    8.3796 O.3       1 RES1    0.0000
      4 N1         0.4292    7.1296    5.1440 N.am      1 RES1    0.0000
      5 C1         1.0913    7.7228    9.6719 C.ar      1 RES1    0.0000
      6 C2         0.9962    7.8322    8.1672 C.3       1 RES1    0.0000
      7 H1         0.7162    8.7423    7.9333 H         1 RES1    0.0000
      8 C3        -0.0094    6.8358    7.5721 C.3       1 RES1    0.0000
      9 H2         0.3837    5.9381    7.5860 H         1 RES1    0.0000
     10 C4        -0.0021    7.4537    3.7677 C.3       1 RES1    0.0000
     11 H3        -0.9818    7.4644    3.7693 H         1 RES1    0.0000
     12 O4         1.3517   11.0798   12.0120 O.2       1 RES1    0.0000
     13 C5         0.4490    5.0298    3.2006 C.ar      1 RES1    0.0000
     14 H4         0.2301    4.8084    4.0765 H         1 RES1    0.0000
     15 O5         1.1507    9.9123   13.8137 O.2       1 RES1    0.0000
     16 C6         1.8703    6.9165    5.3797 C.3       1 RES1    0.0000
     17 H5         2.3323    6.9403    4.5272 H         1 RES1    0.0000
     18 H6         1.9972    6.0328    5.7587 H         1 RES1    0.0000
     19 C7         0.4550    8.8435    3.3892 C.3       1 RES1    0.0000
     20 H7         0.1889    9.4647    4.0707 H         1 RES1    0.0000
     21 H8         0.0557    9.0952    2.5535 H         1 RES1    0.0000
     22 H9         1.4111    8.8533    3.3028 H         1 RES1    0.0000
     23 C8         2.4967    7.9301    6.2977 C.3       1 RES1    0.0000
     24 H10        3.4458    7.9853    6.1047 H         1 RES1    0.0000
     25 H11        2.1075    8.8007    6.1176 H         1 RES1    0.0000
     26 C9         1.1185    8.8821   10.4293 C.ar      1 RES1    0.0000
     27 H12        1.0557    9.7164   10.0233 H         1 RES1    0.0000
     28 C10        1.3503    6.4220   11.6938 C.ar      1 RES1    0.0000
     29 H13        1.4354    5.5942   12.1089 H         1 RES1    0.0000
     30 C11        1.2409    8.7735   11.8046 C.ar      1 RES1    0.0000
     31 C12        1.2139    6.4894   10.3126 C.ar      1 RES1    0.0000
     32 H14        1.2045    5.7061    9.8108 H         1 RES1    0.0000
     33 C13        0.7590    6.6490    1.4872 C.ar      1 RES1    0.0000
     34 H15        0.7634    7.5336    1.2000 H         1 RES1    0.0000
     35 C14        1.3605    7.5698   12.4515 C.ar      1 RES1    0.0000
     36 H16        1.4461    7.5303   13.3763 H         1 RES1    0.0000
     37 C15        0.7896    4.0309    2.3072 C.ar      1 RES1    0.0000
     38 H17        0.8097    3.1456    2.5923 H         1 RES1    0.0000
     39 C16        0.4315    6.3570    2.8027 C.ar      1 RES1    0.0000
     40 N2         1.2465   10.0085   12.6005 N.pl3     1 RES1    0.0000
     41 C17        1.0979    4.3288    1.0055 C.ar      1 RES1    0.0000
     42 H18        1.3166    3.6532    0.4062 H         1 RES1    0.0000
     43 C18        1.0778    5.6411    0.5984 C.ar      1 RES1    0.0000
     44 H19        1.2814    5.8518   -0.2842 H         1 RES1    0.0000
     45 C19       -0.4582    7.1658    6.1351 C.2       1 RES1    0.0000
     46 H20       -1.8092    6.9856    7.7927 H         1 RES1    0.0000
@<TRIPOS>BOND
     1    1    6 1
     2    2   45 2
     3    3    8 1
     4    4   10 1
     5    5    6 1
     6    6    7 1
     7    8    6 1
     8    9    8 1
     9   10   11 1
    10   12   40 2
    11   13   14 1
    12   15   40 2
    13   16    4 1
    14   17   16 1
    15   18   16 1
    16   19   10 1
    17   20   19 1
    18   21   19 1
    19   22   19 1
    20   23    1 1
    21   24   23 1
    22   25   23 1
    23   26    5 ar
    24   27   26 1
    25   28   29 1
    26   30   26 ar
    27   31    5 ar
    28   32   31 1
    29   33   34 1
    30   35   28 ar
    31   36   35 1
    32   37   13 ar
    33   38   37 1
    34   39   10 1
    35   40   30 1
    36   41   37 ar
    37   42   41 1
    38   43   33 ar
    39   44   43 1
    40   45    4 1
    41   46    3 1
    42    8   45 1
    43   13   39 ar
    44   16   23 1
    45   28   31 ar
    46   30   35 ar
    47   33   39 ar
    48   41   43 ar
@<TRIPOS>SUBSTRUCTURE
     1 RES1 1

@<TRIPOS>CRYSIN
   7.3370    8.2280   14.4570  90.0000  96.8500  90.0000   4 1

