# MOL2 file generated by ConQuest
# Please check atom types

@<TRIPOS>MOLECULE
UBEGEQ
   102   106     1
SMALL
NO_CHARGES
****
Generated from CSD

@<TRIPOS>ATOM
      1 O1        -9.4970    7.7876   14.0020 O.2       1 RES1    0.0000
      2 O2       -10.1907    8.8759    8.9052 O.2       1 RES1    0.0000
      3 O3        -3.9155    7.3869   12.4258 O.3       1 RES1    0.0000
      4 N1        -8.3259    8.2040   14.3440 N.3       1 RES1    0.0000
      5 N2        -9.0468    9.3851    9.2070 N.3       1 RES1    0.0000
      6 C1        -7.3526    7.2147   14.6387 C.ar      1 RES1    0.0000
      7 C2        -5.9831    7.4542   14.5034 C.ar      1 RES1    0.0000
      8 C3        -5.0578    6.4514   14.8043 C.ar      1 RES1    0.0000
      9 C4        -5.5236    5.2111   15.2551 C.ar      1 RES1    0.0000
     10 C5        -6.8892    4.9687   15.3575 C.ar      1 RES1    0.0000
     11 C6        -7.8065    5.9568   15.0453 C.ar      1 RES1    0.0000
     12 C7        -8.1259    9.6919   14.5047 C.3       1 RES1    0.0000
     13 C8        -7.3524   10.2364   13.3009 C.3       1 RES1    0.0000
     14 C9        -9.5034   10.3407   14.5446 C.3       1 RES1    0.0000
     15 C10       -7.4085    9.9759   15.8288 C.3       1 RES1    0.0000
     16 C11       -8.1199    8.5238    9.8713 C.ar      1 RES1    0.0000
     17 C12       -6.7317    8.6603    9.7616 C.ar      1 RES1    0.0000
     18 C13       -5.8750    7.7545   10.4073 C.ar      1 RES1    0.0000
     19 C14       -6.4274    6.7223   11.1732 C.ar      1 RES1    0.0000
     20 C15       -7.8082    6.5883   11.2672 C.ar      1 RES1    0.0000
     21 C16       -8.6534    7.4793   10.6220 C.ar      1 RES1    0.0000
     22 C17       -8.8417   10.8439    8.8972 C.3       1 RES1    0.0000
     23 C18      -10.2045   11.5017    8.7587 C.3       1 RES1    0.0000
     24 C19       -8.0842   11.5453   10.0292 C.3       1 RES1    0.0000
     25 C20       -8.0702   10.9546    7.5756 C.3       1 RES1    0.0000
     26 C21       -3.0198    7.0936   13.4439 C.ar      1 RES1    0.0000
     27 C22       -3.5902    6.6709   14.6521 C.ar      1 RES1    0.0000
     28 C23       -2.7410    6.3869   15.7238 C.ar      1 RES1    0.0000
     29 C24       -1.3557    6.5123   15.6286 C.ar      1 RES1    0.0000
     30 C25       -0.8329    6.8971   14.3926 C.ar      1 RES1    0.0000
     31 C26       -1.6398    7.1840   13.2835 C.ar      1 RES1    0.0000
     32 C27       -1.0030    7.5244   11.9444 C.3       1 RES1    0.0000
     33 C28       -2.0712    7.7327   10.8756 C.ar      1 RES1    0.0000
     34 C29       -1.6846    7.9947    9.5579 C.ar      1 RES1    0.0000
     35 C30       -2.6068    8.1621    8.5210 C.ar      1 RES1    0.0000
     36 C31       -3.9567    8.0958    8.8545 C.ar      1 RES1    0.0000
     37 C32       -4.4027    7.8525   10.1579 C.ar      1 RES1    0.0000
     38 C33       -3.4320    7.6511   11.1552 C.ar      1 RES1    0.0000
     39 C34       -0.1572    8.8115   12.0769 C.3       1 RES1    0.0000
     40 C35       -0.0966    6.3441   11.5227 C.3       1 RES1    0.0000
     41 C36       -0.4087    6.1742   16.7942 C.3       1 RES1    0.0000
     42 C37       -1.1692    5.9978   18.1125 C.3       1 RES1    0.0000
     43 C38        0.3191    4.8631   16.4602 C.3       1 RES1    0.0000
     44 C39        0.6377    7.2879   16.9761 C.3       1 RES1    0.0000
     45 C40       -2.1127    8.3443    7.0771 C.3       1 RES1    0.0000
     46 C41       -1.2680    7.1218    6.6838 C.3       1 RES1    0.0000
     47 C42       -1.2390    9.6026    6.9743 C.3       1 RES1    0.0000
     48 C43       -3.2700    8.4733    6.0881 C.3       1 RES1    0.0000
     49 H1        -5.6659    8.3167   14.1611 H         1 RES1    0.0000
     50 H2        -4.8942    4.5276   15.4798 H         1 RES1    0.0000
     51 H3        -7.2363    4.1006   15.6951 H         1 RES1    0.0000
     52 H4        -8.7803    5.8026   15.1235 H         1 RES1    0.0000
     53 H5        -7.7753    9.9533   12.4823 H         1 RES1    0.0000
     54 H6        -7.3745   11.2255   13.2976 H         1 RES1    0.0000
     55 H7        -6.3879    9.9686   13.3235 H         1 RES1    0.0000
     56 H8       -10.0651    9.9940   15.2658 H         1 RES1    0.0000
     57 H9        -9.3639   11.3197   14.6633 H         1 RES1    0.0000
     58 H10       -9.9808   10.1881   13.6823 H         1 RES1    0.0000
     59 H11       -6.5237    9.5535   15.8695 H         1 RES1    0.0000
     60 H12       -7.3457   10.9603   15.9338 H         1 RES1    0.0000
     61 H13       -7.9459    9.6201   16.5771 H         1 RES1    0.0000
     62 H14       -6.3230    9.3858    9.2151 H         1 RES1    0.0000
     63 H15       -5.8305    6.0927   11.6213 H         1 RES1    0.0000
     64 H16       -8.1801    5.8259   11.7710 H         1 RES1    0.0000
     65 H17       -9.6220    7.3890   10.6786 H         1 RES1    0.0000
     66 H18      -10.5593   11.2911    9.7718 H         1 RES1    0.0000
     67 H19      -10.0277   12.5235    8.5855 H         1 RES1    0.0000
     68 H20      -10.6935   11.0964    7.9298 H         1 RES1    0.0000
     69 H21       -7.1339   11.1706   10.1516 H         1 RES1    0.0000
     70 H22       -7.9585   12.5281    9.7360 H         1 RES1    0.0000
     71 H23       -8.7163   11.4731   10.9236 H         1 RES1    0.0000
     72 H24       -8.7024   10.5605    6.8659 H         1 RES1    0.0000
     73 H25       -8.0111   11.9993    7.3112 H         1 RES1    0.0000
     74 H26       -7.0562   10.5732    7.6205 H         1 RES1    0.0000
     75 H27       -3.1794    6.1122   16.5586 H         1 RES1    0.0000
     76 H28        0.1599    7.0052   14.2835 H         1 RES1    0.0000
     77 H29       -0.7335    8.0825    9.3525 H         1 RES1    0.0000
     78 H30       -4.6194    8.1923    8.1574 H         1 RES1    0.0000
     79 H31        0.5737    8.6753   12.7458 H         1 RES1    0.0000
     80 H32        0.2645    9.0343   11.1970 H         1 RES1    0.0000
     81 H33       -0.7552    9.5845   12.3636 H         1 RES1    0.0000
     82 H34       -0.6204    5.5014   11.4939 H         1 RES1    0.0000
     83 H35        0.2779    6.5117   10.6205 H         1 RES1    0.0000
     84 H36        0.6322    6.2504   12.1730 H         1 RES1    0.0000
     85 H37       -0.5379    5.8154   18.8756 H         1 RES1    0.0000
     86 H38       -1.6954    6.8500   18.3313 H         1 RES1    0.0000
     87 H39       -1.8049    5.1983   18.0963 H         1 RES1    0.0000
     88 H40       -0.3219    4.0961   16.3507 H         1 RES1    0.0000
     89 H41        0.8442    4.9790   15.6245 H         1 RES1    0.0000
     90 H42        0.9770    4.6447   17.1858 H         1 RES1    0.0000
     91 H43        1.2602    7.0414   17.7338 H         1 RES1    0.0000
     92 H44        1.1988    7.3894   16.1726 H         1 RES1    0.0000
     93 H45        0.2189    8.2133   17.1511 H         1 RES1    0.0000
     94 H46       -0.9752    7.2117    5.7525 H         1 RES1    0.0000
     95 H47       -0.4504    7.0510    7.2618 H         1 RES1    0.0000
     96 H48       -1.7814    6.2413    6.7434 H         1 RES1    0.0000
     97 H49       -1.7788   10.4338    7.2123 H         1 RES1    0.0000
     98 H50       -0.4459    9.5083    7.5958 H         1 RES1    0.0000
     99 H51       -0.8941    9.7109    6.0247 H         1 RES1    0.0000
    100 H52       -3.8533    7.6278    6.0865 H         1 RES1    0.0000
    101 H53       -3.8601    9.2732    6.3005 H         1 RES1    0.0000
    102 H54       -2.9050    8.6062    5.1884 H         1 RES1    0.0000
@<TRIPOS>BOND
     1    1    4 1
     2    2    5 1
     3    3   26 1
     4    4    6 1
     5    5   16 1
     6    6    7 ar
     7    7    8 ar
     8    8    9 ar
     9    9   10 ar
    10   10   11 ar
    11   11    6 ar
    12   12    4 1
    13   13   12 1
    14   14   12 1
    15   15   12 1
    16   16   17 ar
    17   17   18 ar
    18   18   19 ar
    19   19   20 ar
    20   20   21 ar
    21   21   16 ar
    22   22    5 1
    23   23   22 1
    24   24   22 1
    25   25   22 1
    26   26   27 ar
    27   27    8 1
    28   28   27 ar
    29   29   28 ar
    30   30   29 ar
    31   31   26 ar
    32   32   31 1
    33   33   32 1
    34   34   33 ar
    35   35   34 ar
    36   36   35 ar
    37   37   18 1
    38   38    3 1
    39   39   32 1
    40   40   32 1
    41   41   29 1
    42   42   41 1
    43   43   41 1
    44   44   41 1
    45   45   35 1
    46   46   45 1
    47   47   45 1
    48   48   45 1
    49   49    7 1
    50   50    9 1
    51   51   10 1
    52   52   11 1
    53   53   13 1
    54   54   13 1
    55   55   13 1
    56   56   14 1
    57   57   14 1
    58   58   14 1
    59   59   15 1
    60   60   15 1
    61   61   15 1
    62   62   17 1
    63   63   19 1
    64   64   20 1
    65   65   21 1
    66   66   23 1
    67   67   23 1
    68   68   23 1
    69   69   24 1
    70   70   24 1
    71   71   24 1
    72   72   25 1
    73   73   25 1
    74   74   25 1
    75   75   28 1
    76   76   30 1
    77   77   34 1
    78   78   36 1
    79   79   39 1
    80   80   39 1
    81   81   39 1
    82   82   40 1
    83   83   40 1
    84   84   40 1
    85   85   42 1
    86   86   42 1
    87   87   42 1
    88   88   43 1
    89   89   43 1
    90   90   43 1
    91   91   44 1
    92   92   44 1
    93   93   44 1
    94   94   46 1
    95   95   46 1
    96   96   46 1
    97   97   47 1
    98   98   47 1
    99   99   47 1
   100  100   48 1
   101  101   48 1
   102  102   48 1
   103   30   31 ar
   104   33   38 ar
   105   36   37 ar
   106   37   38 ar
@<TRIPOS>SUBSTRUCTURE
     1 RES1 1

@<TRIPOS>CRYSIN
  11.9780   12.5130   13.1500  93.8500 108.7500  97.1400   2 1

