# MOL2 file generated by ConQuest
# Please check atom types

@<TRIPOS>MOLECULE
UBENOE
    28    28     1
SMALL
NO_CHARGES
****
Generated from CSD

@<TRIPOS>ATOM
      1 N1        -0.6911   -0.0440    3.8369 N.ar      1 RES1    0.0000
      2 C1        -0.2263    0.2091    5.0844 C.ar      1 RES1    0.0000
      3 C2         0.7145    1.1757    5.3923 C.ar      1 RES1    0.0000
      4 C3         1.2238    1.9311    4.3191 C.ar      1 RES1    0.0000
      5 C4         0.7656    1.7103    3.0480 C.ar      1 RES1    0.0000
      6 C5        -0.1908    0.7183    2.8619 C.ar      1 RES1    0.0000
      7 C6         1.2356    1.4376    6.7656 C.2       1 RES1    0.0000
      8 C7         0.5984    0.7398    7.9424 C.3       1 RES1    0.0000
      9 C8         1.1955    1.2128    9.2607 C.3       1 RES1    0.0000
     10 O1         2.1759    2.1931    6.9085 O.2       1 RES1    0.0000
     11 C9         0.5253    0.5424   10.4584 C.3       1 RES1    0.0000
     12 N2         1.0130    1.0731   11.7098 N.pl3     1 RES1    0.0000
     13 C10        0.5824    2.3553   12.2117 C.3       1 RES1    0.0000
     14 N3         1.7992    0.2394   12.4135 N.2       1 RES1    0.0000
     15 O2         2.1291    0.7095   13.4841 O.2       1 RES1    0.0000
     16 H1        -0.6063   -0.3616    5.8706 H         1 RES1    0.0000
     17 H2         1.9518    2.6583    4.4947 H         1 RES1    0.0000
     18 H3         1.1057    2.2771    2.2408 H         1 RES1    0.0000
     19 H4        -0.5277    0.5473    1.9001 H         1 RES1    0.0000
     20 H5         0.7482   -0.2932    7.8494 H         1 RES1    0.0000
     21 H6        -0.4329    0.9382    7.9542 H         1 RES1    0.0000
     22 H7         1.0774    2.2478    9.3432 H         1 RES1    0.0000
     23 H8         2.2156    0.9773    9.2777 H         1 RES1    0.0000
     24 H9         0.7033   -0.4886   10.4309 H         1 RES1    0.0000
     25 H10       -0.5170    0.7037   10.4178 H         1 RES1    0.0000
     26 H11        1.2885    3.1274   11.9247 H         1 RES1    0.0000
     27 H12       -0.4075    2.5996   11.7806 H         1 RES1    0.0000
     28 H13        0.4744    2.3260   13.3007 H         1 RES1    0.0000
@<TRIPOS>BOND
     1    1    2 ar
     2    2    3 ar
     3    3    4 ar
     4    4    5 ar
     5    5    6 ar
     6    6    1 ar
     7    7    3 1
     8    8    7 1
     9    9    8 1
    10   10    7 2
    11   11    9 1
    12   12   11 1
    13   13   12 1
    14   14   12 1
    15   15   14 2
    16   16    2 1
    17   17    4 1
    18   18    5 1
    19   19    6 1
    20   20    8 1
    21   21    8 1
    22   22    9 1
    23   23    9 1
    24   24   11 1
    25   25   11 1
    26   26   13 1
    27   27   13 1
    28   28   13 1
@<TRIPOS>SUBSTRUCTURE
     1 RES1 1

@<TRIPOS>CRYSIN
   8.0000    9.7730   13.6000  90.0000 105.5200  90.0000  14 2

