# MOL2 file generated by ConQuest
# Please check atom types

@<TRIPOS>MOLECULE
UBIZEM
    45    48     1
SMALL
USER_CHARGES
****
Generated from CSD

@<TRIPOS>ATOM
      1 O1         4.8938    0.5225    4.5477 O.2       1 RES1   -1.0000
      2 O2         0.9699   -0.7679    6.3636 O.2       1 RES1   -1.0000
      3 O3         7.3996    1.8753   -0.1770 O.2       1 RES1   -1.0000
      4 N1         4.9917    1.6408    5.1712 N.pl3     1 RES1    1.0000
      5 N2         1.1608   -0.2606    5.1541 N.pl3     1 RES1    1.0000
      6 N3         6.3761    2.0302    0.6218 N.pl3     1 RES1    1.0000
      7 C1         3.2623    2.4905    3.6081 C.3       1 RES1    0.0000
      8 C2         4.1526    2.6950    4.8503 C.ar      1 RES1    0.0000
      9 C3         4.2849    3.8654    5.5634 C.ar      1 RES1    0.0000
     10 C4         5.2370    4.0047    6.5631 C.ar      1 RES1    0.0000
     11 C5         6.0575    2.9434    6.8440 C.ar      1 RES1    0.0000
     12 C6         5.9289    1.7826    6.1509 C.ar      1 RES1    0.0000
     13 C7         2.2929    1.3167    3.7579 C.ar      1 RES1    0.0000
     14 C8         1.5157    0.9044    2.6854 C.ar      1 RES1    0.0000
     15 C9         0.6090   -0.1204    2.8594 C.ar      1 RES1    0.0000
     16 C10        0.4310   -0.6871    4.1001 C.ar      1 RES1    0.0000
     17 C11        2.0788    0.7249    4.9929 C.ar      1 RES1    0.0000
     18 C12        4.2887    2.3151    2.4601 C.ar      1 RES1    0.0000
     19 C13        5.2486    3.3123    2.2733 C.ar      1 RES1    0.0000
     20 C14        6.2703    3.1531    1.3605 C.ar      1 RES1    0.0000
     21 C15        5.4329    1.0696    0.7516 C.ar      1 RES1    0.0000
     22 C16        4.4149    1.1969    1.6700 C.ar      1 RES1    0.0000
     23 C17        2.3539    3.7323    3.3899 C.ar      1 RES1    0.0000
     24 C18        1.3873    4.0165    4.3511 C.ar      1 RES1    0.0000
     25 C19        0.5380    5.0926    4.1971 C.ar      1 RES1    0.0000
     26 C20        0.6314    5.9004    3.0776 C.ar      1 RES1    0.0000
     27 C21        1.5536    5.6156    2.1178 C.ar      1 RES1    0.0000
     28 C22        2.4175    4.5269    2.2619 C.ar      1 RES1    0.0000
     29 H1         3.7108    4.5959    5.3651 H         1 RES1    0.0000
     30 H2         5.3178    4.8189    7.0451 H         1 RES1    0.0000
     31 H3         6.7176    3.0205    7.5229 H         1 RES1    0.0000
     32 H4         6.5039    1.0543    6.3534 H         1 RES1    0.0000
     33 H5         1.6072    1.3244    1.8383 H         1 RES1    0.0000
     34 H6         0.1050   -0.4367    2.1192 H         1 RES1    0.0000
     35 H7        -0.2072   -1.3813    4.2171 H         1 RES1    0.0000
     36 H8         2.5864    1.0152    5.7416 H         1 RES1    0.0000
     37 H9         5.1983    4.1128    2.7838 H         1 RES1    0.0000
     38 H10        6.9108    3.8465    1.2507 H         1 RES1    0.0000
     39 H11        5.4728    0.2965    0.2025 H         1 RES1    0.0000
     40 H12        3.7839    0.4931    1.7613 H         1 RES1    0.0000
     41 H13        1.3122    3.4639    5.1198 H         1 RES1    0.0000
     42 H14       -0.1132    5.2801    4.8631 H         1 RES1    0.0000
     43 H15        0.0559    6.6501    2.9806 H         1 RES1    0.0000
     44 H16        1.6097    6.1616    1.3420 H         1 RES1    0.0000
     45 H17        3.0508    4.3318    1.5802 H         1 RES1    0.0000
@<TRIPOS>BOND
     1    1    4 1
     2    2    5 1
     3    3    6 1
     4    4    8 ar
     5    5   16 ar
     6    6   20 ar
     7    7    8 1
     8    8    9 ar
     9    9   10 ar
    10   10   11 ar
    11   11   12 ar
    12   12    4 ar
    13   13    7 1
    14   14   13 ar
    15   15   14 ar
    16   16   15 ar
    17   17    5 ar
    18   18    7 1
    19   19   18 ar
    20   20   19 ar
    21   21    6 ar
    22   22   18 ar
    23   23    7 1
    24   24   23 ar
    25   25   24 ar
    26   26   25 ar
    27   27   26 ar
    28   28   23 ar
    29   29    9 1
    30   30   10 1
    31   31   11 1
    32   32   12 1
    33   33   14 1
    34   34   15 1
    35   35   16 1
    36   36   17 1
    37   37   19 1
    38   38   20 1
    39   39   21 1
    40   40   22 1
    41   41   24 1
    42   42   25 1
    43   43   26 1
    44   44   27 1
    45   45   28 1
    46   13   17 ar
    47   21   22 ar
    48   27   28 ar
@<TRIPOS>SUBSTRUCTURE
     1 RES1 1

@<TRIPOS>CRYSIN
   7.2706    9.1391   14.6820  78.7310  77.9600  63.3160   2 1

