# MOL2 file generated by ConQuest
# Please check atom types

@<TRIPOS>MOLECULE
UBOLAA
    64    68     1
SMALL
NO_CHARGES
****
Generated from CSD

@<TRIPOS>ATOM
      1 C1         5.1185    0.6850    4.5932 C.ar      1 RES1    0.0000
      2 C2         3.7908    0.3981    4.3025 C.ar      1 RES1    0.0000
      3 H1         3.4303   -0.4283    4.5316 H         1 RES1    0.0000
      4 C3         3.0121    1.3409    3.6759 C.ar      1 RES1    0.0000
      5 H2         2.1308    1.1361    3.4594 H         1 RES1    0.0000
      6 C4         3.5129    2.5758    3.3667 C.ar      1 RES1    0.0000
      7 H3         2.9626    3.2109    2.9695 H         1 RES1    0.0000
      8 C5         4.8420    2.8866    3.6425 C.ar      1 RES1    0.0000
      9 C6         5.3247    4.3138    3.4514 C.3       1 RES1    0.0000
     10 H4         4.5187    4.8491    3.2968 H         1 RES1    0.0000
     11 C7         5.8825    4.7847    4.7783 C.2       1 RES1    0.0000
     12 C8         7.1958    5.2327    6.6143 C.3       1 RES1    0.0000
     13 H5         7.4781    4.7057    7.3786 H         1 RES1    0.0000
     14 H6         7.7943    5.9905    6.5213 H         1 RES1    0.0000
     15 C9         7.2076    4.3897    5.3548 C.3       1 RES1    0.0000
     16 H7         7.9377    4.6662    4.7625 H         1 RES1    0.0000
     17 C10        7.2766    2.8970    5.6256 C.3       1 RES1    0.0000
     18 H8         8.1644    2.6673    5.9431 H         1 RES1    0.0000
     19 H9         6.6406    2.6652    6.3205 H         1 RES1    0.0000
     20 C11        5.6362    1.9209    4.2318 C.ar      1 RES1    0.0000
     21 C12        5.4063   -1.1736    6.0669 C.3       1 RES1    0.0000
     22 H10        4.5507   -0.8752    6.4129 H         1 RES1    0.0000
     23 H11        5.2570   -1.9740    5.5395 H         1 RES1    0.0000
     24 C13        6.2749   -1.4677    7.1425 C.3       1 RES1    0.0000
     25 H12        7.0745   -1.8804    6.8044 H         1 RES1    0.0000
     26 H13        5.8380   -2.0675    7.7521 H         1 RES1    0.0000
     27 H14        6.5027   -0.6559    7.6015 H         1 RES1    0.0000
     28 C14        6.2674    4.6506    2.3134 C.2       1 RES1    0.0000
     29 C15        6.9608    3.8720    1.4418 C.2       1 RES1    0.0000
     30 C16        7.4273    6.0591    0.9174 C.ar      1 RES1    0.0000
     31 C17        7.8765    7.2617    0.3791 C.ar      1 RES1    0.0000
     32 H15        8.4815    7.2773   -0.3273 H         1 RES1    0.0000
     33 C18        7.3963    8.4280    0.9284 C.ar      1 RES1    0.0000
     34 H16        7.6804    9.2430    0.5823 H         1 RES1    0.0000
     35 C19        6.4977    8.4207    1.9851 C.ar      1 RES1    0.0000
     36 H17        6.1847    9.2253    2.3310 H         1 RES1    0.0000
     37 C20        6.0674    7.2306    2.5252 C.ar      1 RES1    0.0000
     38 H18        5.4693    7.2274    3.2366 H         1 RES1    0.0000
     39 C21        6.5362    6.0331    1.9949 C.ar      1 RES1    0.0000
     40 C22        6.9347    2.3908    1.2513 C.3       1 RES1    0.0000
     41 H19        7.7573    2.0124    1.5701 H         1 RES1    0.0000
     42 H20        6.8300    2.1902    0.3192 H         1 RES1    0.0000
     43 H21        6.1999    2.0176    1.7428 H         1 RES1    0.0000
     44 C23        8.6622    4.3866   -0.3905 C.2       1 RES1    0.0000
     45 C24       10.0077    2.5176   -1.2051 C.3       1 RES1    0.0000
     46 C25        9.5272    2.6205   -2.6280 C.3       1 RES1    0.0000
     47 H22        8.6272    2.2910   -2.6864 H         1 RES1    0.0000
     48 H23       10.0975    2.0966   -3.1964 H         1 RES1    0.0000
     49 H24        9.5518    3.5384   -2.9093 H         1 RES1    0.0000
     50 C26       11.3437    3.1714   -1.0035 C.3       1 RES1    0.0000
     51 H25       11.3260    4.0550   -1.3773 H         1 RES1    0.0000
     52 H26       12.0229    2.6517   -1.4396 H         1 RES1    0.0000
     53 H27       11.5346    3.2255   -0.0642 H         1 RES1    0.0000
     54 C27        9.9985    1.0759   -0.7411 C.3       1 RES1    0.0000
     55 H28       10.2081    1.0395    0.1948 H         1 RES1    0.0000
     56 H29       10.6527    0.5759   -1.2348 H         1 RES1    0.0000
     57 H30        9.1288    0.6964   -0.8895 H         1 RES1    0.0000
     58 N1         5.1642    5.4676    5.5509 N.2       1 RES1    0.0000
     59 N2         7.7034    4.7232    0.5776 N.am      1 RES1    0.0000
     60 O1         5.8462    5.6749    6.7793 O.3       1 RES1    0.0000
     61 O2         6.9856    2.1483    4.4452 O.3       1 RES1    0.0000
     62 O3         5.9741   -0.1517    5.2393 O.3       1 RES1    0.0000
     63 O4         9.0882    5.1851   -1.1725 O.2       1 RES1    0.0000
     64 O5         9.0161    3.1271   -0.2819 O.3       1 RES1    0.0000
@<TRIPOS>BOND
     1    1    2 ar
     2    2    3 1
     3    4    2 ar
     4    5    4 1
     5    6    4 ar
     6    7    6 1
     7    8    6 ar
     8    9    8 1
     9   10    9 1
    10   11    9 1
    11   12   13 1
    12   14   12 1
    13   15   11 1
    14   16   15 1
    15   17   15 1
    16   18   17 1
    17   19   17 1
    18   20    1 ar
    19   21   22 1
    20   23   21 1
    21   24   21 1
    22   25   24 1
    23   26   24 1
    24   27   24 1
    25   28    9 1
    26   29   28 2
    27   30   31 ar
    28   31   32 1
    29   33   31 ar
    30   34   33 1
    31   35   33 ar
    32   36   35 1
    33   37   35 ar
    34   38   37 1
    35   39   28 1
    36   40   29 1
    37   41   40 1
    38   42   40 1
    39   43   40 1
    40   44   59 1
    41   45   46 1
    42   46   47 1
    43   48   46 1
    44   49   46 1
    45   50   45 1
    46   51   50 1
    47   52   50 1
    48   53   50 1
    49   54   45 1
    50   55   54 1
    51   56   54 1
    52   57   54 1
    53   58   11 2
    54   59   29 1
    55   60   12 1
    56   61   17 1
    57   62    1 1
    58   63   44 2
    59   64   44 1
    60    8   20 ar
    61   12   15 1
    62   20   61 1
    63   21   62 1
    64   30   39 ar
    65   30   59 1
    66   37   39 ar
    67   45   64 1
    68   58   60 1
@<TRIPOS>SUBSTRUCTURE
     1 RES1 1

@<TRIPOS>CRYSIN
  11.5441   10.3947   20.1231  90.0000  93.8410  90.0000 231 1

