# MOL2 file generated by ConQuest
# Please check atom types

@<TRIPOS>MOLECULE
UBOLII
    59    63     1
SMALL
NO_CHARGES
****
Generated from CSD

@<TRIPOS>ATOM
      1 H1        12.7455    9.1611   13.6661 H         1 RES1    0.0000
      2 O1        10.9344    7.3935   16.8672 O.3       1 RES1    0.0000
      3 O2        12.5890    7.5523   15.3533 O.2       1 RES1    0.0000
      4 O3         9.4619   11.0048   15.2786 O.3       1 RES1    0.0000
      5 C1        13.9656   12.5951   11.7638 C.ar      1 RES1    0.0000
      6 O4        10.2603   11.9554   13.4249 O.2       1 RES1    0.0000
      7 C2        13.4341   11.8274   12.7971 C.ar      1 RES1    0.0000
      8 H2        13.5197   12.1051   13.6807 H         1 RES1    0.0000
      9 C3        11.5801    7.9901   15.8627 C.2       1 RES1    0.0000
     10 C4        13.7951   12.1657   10.4279 C.ar      1 RES1    0.0000
     11 N1        12.3283    9.7774   13.5332 N.pl3     1 RES1    0.0000
     12 C5        10.9397    9.2204   15.4450 C.2       1 RES1    0.0000
     13 C6        14.7334   13.8178   11.7126 C.ar      1 RES1    0.0000
     14 C7        10.0486   10.3226   17.5366 C.ar      1 RES1    0.0000
     15 C8         9.7599    9.8566   16.1255 C.3       1 RES1    0.0000
     16 H3         9.0009    9.2373   16.1276 H         1 RES1    0.0000
     17 N2        14.4090   13.0743    9.5850 N.pl3     1 RES1    0.0000
     18 C9        11.3228    9.9823   14.3914 C.2       1 RES1    0.0000
     19 C10       12.7849   10.6592   12.4947 C.ar      1 RES1    0.0000
     20 C11       12.6400   10.2429   11.1738 C.ar      1 RES1    0.0000
     21 H4        12.1978    9.4450   10.9955 H         1 RES1    0.0000
     22 C12       10.3507   11.0976   14.2602 C.2       1 RES1    0.0000
     23 C13       13.1402   10.9896   10.1206 C.ar      1 RES1    0.0000
     24 H5        13.0391   10.7096    9.2390 H         1 RES1    0.0000
     25 C14       14.9850   14.0738   10.3515 C.ar      1 RES1    0.0000
     26 C15       11.5499    6.2022   17.4208 C.3       1 RES1    0.0000
     27 H6        12.4729    6.3816   17.6574 H         1 RES1    0.0000
     28 H7        11.5339    5.4833   16.7696 H         1 RES1    0.0000
     29 C16       10.6521   11.1132   20.1050 C.ar      1 RES1    0.0000
     30 C17       10.8280   11.4397   17.7673 C.ar      1 RES1    0.0000
     31 H8        11.1502   11.9296   17.0461 H         1 RES1    0.0000
     32 C18        9.5616    9.6199   18.6110 C.ar      1 RES1    0.0000
     33 H9         9.0149    8.8805   18.4706 H         1 RES1    0.0000
     34 C19       11.1351   11.8389   19.0556 C.ar      1 RES1    0.0000
     35 H10       11.6631   12.5895   19.2033 H         1 RES1    0.0000
     36 C20        9.8793   10.0051   19.9010 C.ar      1 RES1    0.0000
     37 H11        9.5691    9.5115   20.6264 H         1 RES1    0.0000
     38 C21       15.2136   14.7064   12.6730 C.ar      1 RES1    0.0000
     39 H12       15.0533   14.5540   13.5769 H         1 RES1    0.0000
     40 C22       15.9261   15.8104   12.2694 C.ar      1 RES1    0.0000
     41 H13       16.2464   16.4070   12.9070 H         1 RES1    0.0000
     42 N3        10.9798   11.5288   21.4761 N.pl3     1 RES1    0.0000
     43 O5        10.5162   10.9232   22.3992 O.2       1 RES1    0.0000
     44 C23       10.7747    5.8175   18.6315 C.3       1 RES1    0.0000
     45 H14       10.8170    6.5258   19.2779 H         1 RES1    0.0000
     46 H15       11.1472    5.0173   19.0088 H         1 RES1    0.0000
     47 H16        9.8592    5.6605   18.3887 H         1 RES1    0.0000
     48 C24       16.1758   16.0487   10.9224 C.ar      1 RES1    0.0000
     49 H17       16.6655   16.7993   10.6752 H         1 RES1    0.0000
     50 C25       15.7113   15.1957    9.9512 C.ar      1 RES1    0.0000
     51 H18       15.8756   15.3612    9.0503 H         1 RES1    0.0000
     52 O6        11.6850   12.4659   21.6342 O.2       1 RES1    0.0000
     53 C26       14.3674   13.0430    8.1128 C.3       1 RES1    0.0000
     54 H19       13.5501   12.6015    7.8320 H         1 RES1    0.0000
     55 H20       14.3389   13.9540    7.7808 H         1 RES1    0.0000
     56 C27       15.4566   12.3858    7.5336 C.3       1 RES1    0.0000
     57 H21       16.2730   12.7764    7.8539 H         1 RES1    0.0000
     58 H22       15.4125   12.4738    6.5786 H         1 RES1    0.0000
     59 H23       15.4317   11.4554    7.7705 H         1 RES1    0.0000
@<TRIPOS>BOND
     1    1   11 1
     2    2    9 1
     3    3    9 2
     4    4   15 1
     5    5    7 ar
     6    6   22 2
     7    7    8 1
     8    9   12 1
     9   10    5 ar
    10   11   18 1
    11   12   15 1
    12   13    5 1
    13   14   15 1
    14   15   16 1
    15   17   10 1
    16   18   12 2
    17   19    7 ar
    18   20   19 ar
    19   21   20 1
    20   22    4 1
    21   23   10 ar
    22   24   23 1
    23   25   13 ar
    24   26    2 1
    25   27   26 1
    26   28   26 1
    27   29   34 ar
    28   30   14 ar
    29   31   30 1
    30   32   14 ar
    31   33   32 1
    32   34   30 ar
    33   35   34 1
    34   36   29 ar
    35   37   36 1
    36   38   13 ar
    37   39   38 1
    38   40   38 ar
    39   41   40 1
    40   42   29 1
    41   43   42 2
    42   44   26 1
    43   45   44 1
    44   46   44 1
    45   47   44 1
    46   48   40 ar
    47   49   48 1
    48   50   25 ar
    49   51   50 1
    50   52   42 2
    51   53   17 1
    52   54   53 1
    53   55   53 1
    54   56   53 1
    55   57   56 1
    56   58   56 1
    57   59   56 1
    58   11   19 1
    59   17   25 1
    60   18   22 1
    61   20   23 ar
    62   32   36 ar
    63   48   50 ar
@<TRIPOS>SUBSTRUCTURE
     1 RES1 1

@<TRIPOS>CRYSIN
   8.5722    9.8231   15.6070  73.8360  74.2580  76.0800   2 1

