# MOL2 file generated by ConQuest
# Please check atom types

@<TRIPOS>MOLECULE
UBOZAO
    57    59     1
SMALL
NO_CHARGES
****
Generated from CSD

@<TRIPOS>ATOM
      1 O1         2.2384    1.8220   12.7327 O.2       1 RES1    0.0000
      2 C1         1.4442    2.6984   12.4410 C.2       1 RES1    0.0000
      3 N1         0.4777    3.1585   13.2815 N.am      1 RES1    0.0000
      4 O2         0.2780    2.5281   14.5182 O.3       1 RES1    0.0000
      5 C2        -0.2937    1.2704   14.4235 C.2       1 RES1    0.0000
      6 O3        -0.4859    0.7320   13.3772 O.2       1 RES1    0.0000
      7 C3        -0.6214    0.7744   15.7850 C.ar      1 RES1    0.0000
      8 C4        -1.6883    1.3432   16.4744 C.ar      1 RES1    0.0000
      9 C5        -2.4702    2.5026   15.9127 C.3       1 RES1    0.0000
     10 C6        -2.0247    0.8103   17.7104 C.ar      1 RES1    0.0000
     11 C7        -1.3198   -0.2317   18.2837 C.ar      1 RES1    0.0000
     12 C8        -0.2511   -0.7646   17.5813 C.ar      1 RES1    0.0000
     13 C9         0.1127   -0.2882   16.3355 C.ar      1 RES1    0.0000
     14 C10        1.2760   -0.8864   15.5627 C.3       1 RES1    0.0000
     15 C11       -1.7192   -0.7537   19.6445 C.3       1 RES1    0.0000
     16 C12        1.4156    3.4946   11.1271 C.3       1 RES1    0.0000
     17 N2         1.9090    4.8569   11.3901 N.am      1 RES1    0.0000
     18 C13        3.0466    5.2021   12.1265 C.2       1 RES1    0.0000
     19 O4         3.8478    4.4169   12.5911 O.2       1 RES1    0.0000
     20 C14        3.0279    6.6802   12.2516 C.ar      1 RES1    0.0000
     21 C15        1.8676    7.1544   11.6717 C.ar      1 RES1    0.0000
     22 C16        1.1189    6.0015   11.1370 C.2       1 RES1    0.0000
     23 O5         0.0350    5.9573   10.5998 O.2       1 RES1    0.0000
     24 C17        1.5464    8.4933   11.6931 C.ar      1 RES1    0.0000
     25 C18        2.4591    9.3493   12.3134 C.ar      1 RES1    0.0000
     26 C19        3.6242    8.8761   12.8786 C.ar      1 RES1    0.0000
     27 C20        3.9314    7.5264   12.8653 C.ar      1 RES1    0.0000
     28 C21        2.0416    2.8104    9.8897 C.3       1 RES1    0.0000
     29 C22        3.5640    2.7060    9.9676 C.3       1 RES1    0.0000
     30 C23        1.4220    1.4183    9.7533 C.3       1 RES1    0.0000
     31 C24        1.6597    3.6457    8.6657 C.3       1 RES1    0.0000
     32 H1        -3.3725    2.4646   16.2380 H         1 RES1    0.0000
     33 H2        -2.4772    2.4483   14.9372 H         1 RES1    0.0000
     34 H3        -2.0480    3.3455   16.1995 H         1 RES1    0.0000
     35 H4        -2.7476    1.1725   18.1736 H         1 RES1    0.0000
     36 H5         0.2266   -1.4803   17.9632 H         1 RES1    0.0000
     37 H6         1.8290   -1.3933   16.1749 H         1 RES1    0.0000
     38 H7         0.9425   -1.4846   14.8706 H         1 RES1    0.0000
     39 H8         1.8068   -0.1827   15.1511 H         1 RES1    0.0000
     40 H9        -1.0447   -1.3813   19.9478 H         1 RES1    0.0000
     41 H10       -2.5637   -1.2160   19.5586 H         1 RES1    0.0000
     42 H11       -1.8010   -0.0315   20.2739 H         1 RES1    0.0000
     43 H12        0.4602    3.6120   10.8873 H         1 RES1    0.0000
     44 H13        0.7329    8.8076   11.3011 H         1 RES1    0.0000
     45 H14        2.2758   10.2683   12.3740 H         1 RES1    0.0000
     46 H15        4.2146    9.4787   13.2787 H         1 RES1    0.0000
     47 H16        4.7080    7.2055   13.2611 H         1 RES1    0.0000
     48 H17        3.8683    2.2231    9.1832 H         1 RES1    0.0000
     49 H18        3.9530    3.6055    9.9651 H         1 RES1    0.0000
     50 H19        3.8216    2.2329   10.7856 H         1 RES1    0.0000
     51 H20        1.6830    1.0169    8.9097 H         1 RES1    0.0000
     52 H21        0.4538    1.4857    9.7933 H         1 RES1    0.0000
     53 H22        1.7426    0.8636   10.4911 H         1 RES1    0.0000
     54 H23        2.0013    3.2194    7.8683 H         1 RES1    0.0000
     55 H24        0.6926    3.7306    8.6152 H         1 RES1    0.0000
     56 H25        2.0574    4.5528    8.7554 H         1 RES1    0.0000
     57 H26       -0.2207    3.5337   12.9315 H         1 RES1    0.0000
@<TRIPOS>BOND
     1    1    2 2
     2    2    3 1
     3    3    4 1
     4    4    5 1
     5    5    6 2
     6    7    5 1
     7    8    7 ar
     8    9    8 1
     9   10    8 ar
    10   11   10 ar
    11   12   11 ar
    12   13    7 ar
    13   14   13 1
    14   15   11 1
    15   16    2 1
    16   17   16 1
    17   18   17 1
    18   19   18 2
    19   20   18 1
    20   21   20 ar
    21   22   17 1
    22   23   22 2
    23   24   21 ar
    24   25   24 ar
    25   26   25 ar
    26   27   20 ar
    27   28   16 1
    28   29   28 1
    29   30   28 1
    30   31   28 1
    31   32    9 1
    32   33    9 1
    33   34    9 1
    34   35   10 1
    35   36   12 1
    36   37   14 1
    37   38   14 1
    38   39   14 1
    39   40   15 1
    40   41   15 1
    41   42   15 1
    42   43   16 1
    43   44   24 1
    44   45   25 1
    45   46   26 1
    46   47   27 1
    47   48   29 1
    48   49   29 1
    49   50   29 1
    50   51   30 1
    51   52   30 1
    52   53   30 1
    53   54   31 1
    54   55   31 1
    55   56   31 1
    56   57    3 1
    57   12   13 ar
    58   21   22 1
    59   26   27 ar
@<TRIPOS>SUBSTRUCTURE
     1 RES1 1

@<TRIPOS>CRYSIN
   5.8398   10.8763   35.0638  90.0000  90.0000  90.0000  19 1

