# MOL2 file generated by ConQuest
# Please check atom types

@<TRIPOS>MOLECULE
UBUNUA
    48    50     1
SMALL
NO_CHARGES
****
Generated from CSD

@<TRIPOS>ATOM
      1 O1         6.1143    9.0497    9.8393 O.3       1 RES1    0.0000
      2 O2         5.0562    8.7782    7.1104 O.2       1 RES1    0.0000
      3 O3         4.9126    8.2836    5.0278 O.2       1 RES1    0.0000
      4 O4         2.4097    4.6500    3.4710 O.2       1 RES1    0.0000
      5 O5         1.7596    3.0951    4.8231 O.2       1 RES1    0.0000
      6 N1         4.5451    6.3016   10.1689 N.2       1 RES1    0.0000
      7 N2         4.4865    6.9624    8.9403 N.3       1 RES1    0.0000
      8 N3         4.7051    8.0249    6.2100 N.pl3     1 RES1    0.0000
      9 N4         2.3383    4.1535    4.5936 N.pl3     1 RES1    0.0000
     10 C1         5.6191    9.3762   11.1521 C.3       1 RES1    0.0000
     11 C2         5.2590   10.8596   11.2015 C.3       1 RES1    0.0000
     12 C3         4.4684   11.2365   12.4505 C.3       1 RES1    0.0000
     13 C4         3.1774   10.4465   12.4853 C.3       1 RES1    0.0000
     14 C5         3.3668    8.9289   12.4185 C.3       1 RES1    0.0000
     15 C6         4.3207    8.5485   11.2538 C.3       1 RES1    0.0000
     16 C7         4.5443    7.0546   11.2131 C.2       1 RES1    0.0000
     17 C8         4.7112    6.3156   12.5173 C.3       1 RES1    0.0000
     18 C9         3.7075    6.7520   13.5833 C.3       1 RES1    0.0000
     19 C10        3.7092    8.2620   13.7387 C.3       1 RES1    0.0000
     20 C11        6.7131    9.0631   12.1629 C.3       1 RES1    0.0000
     21 C12        4.0189    6.2821    7.8729 C.ar      1 RES1    0.0000
     22 C13        3.4556    4.9833    8.0297 C.ar      1 RES1    0.0000
     23 C14        2.9436    4.2827    6.9797 C.ar      1 RES1    0.0000
     24 C15        2.9584    4.8437    5.7046 C.ar      1 RES1    0.0000
     25 C16        3.5327    6.0597    5.4838 C.ar      1 RES1    0.0000
     26 C17        4.0642    6.7790    6.5426 C.ar      1 RES1    0.0000
     27 H1         6.0665   11.3607   11.1928 H         1 RES1    0.0000
     28 H2         4.7429   11.0686   10.4376 H         1 RES1    0.0000
     29 H3         4.9826   11.0406   13.2231 H         1 RES1    0.0000
     30 H4         4.2712   12.1647   12.4243 H         1 RES1    0.0000
     31 H5         2.7230   10.6529   13.2943 H         1 RES1    0.0000
     32 H6         2.6418   10.7121   11.7461 H         1 RES1    0.0000
     33 H7         4.5870    5.3814   12.3575 H         1 RES1    0.0000
     34 H8         5.5914    6.4600   12.8455 H         1 RES1    0.0000
     35 H9         2.8496    6.4596   13.3393 H         1 RES1    0.0000
     36 H10        3.9609    6.3581   14.4169 H         1 RES1    0.0000
     37 H11        4.5671    8.5519   14.0248 H         1 RES1    0.0000
     38 H12        3.0599    8.5042   14.3893 H         1 RES1    0.0000
     39 H13        2.5193    8.5808   12.1716 H         1 RES1    0.0000
     40 H14        3.8350    8.7479   10.4608 H         1 RES1    0.0000
     41 H15        6.3939    9.2619   13.0343 H         1 RES1    0.0000
     42 H16        6.9376    8.1450   12.1048 H         1 RES1    0.0000
     43 H17        7.4766    9.5941   11.9741 H         1 RES1    0.0000
     44 H18        3.4370    4.5930    8.8996 H         1 RES1    0.0000
     45 H19        2.5832    3.4121    7.1162 H         1 RES1    0.0000
     46 H20        3.5694    6.4126    4.6009 H         1 RES1    0.0000
     47 H21        4.6742    7.9734    8.8415 H         1 RES1    0.0000
     48 H22        7.0251    9.5698    9.6955 H         1 RES1    0.0000
@<TRIPOS>BOND
     1    1   10 1
     2    2    8 2
     3    3    8 2
     4    4    9 2
     5    5    9 2
     6    6    7 1
     7    7   21 1
     8    8   26 1
     9    9   24 1
    10   10   11 1
    11   11   12 1
    12   12   13 1
    13   13   14 1
    14   14   15 1
    15   15   10 1
    16   16    6 2
    17   17   16 1
    18   18   17 1
    19   19   14 1
    20   20   10 1
    21   21   22 ar
    22   22   23 ar
    23   23   24 ar
    24   24   25 ar
    25   25   26 ar
    26   26   21 ar
    27   27   11 1
    28   28   11 1
    29   29   12 1
    30   30   12 1
    31   31   13 1
    32   32   13 1
    33   33   17 1
    34   34   17 1
    35   35   18 1
    36   36   18 1
    37   37   19 1
    38   38   19 1
    39   39   14 1
    40   40   15 1
    41   41   20 1
    42   42   20 1
    43   43   20 1
    44   44   22 1
    45   45   23 1
    46   46   25 1
    47   47    7 1
    48   48    1 1
    49   15   16 1
    50   18   19 1
@<TRIPOS>SUBSTRUCTURE
     1 RES1 1

@<TRIPOS>CRYSIN
   7.5070    8.5410   14.7960  79.0200  87.5600  71.9600   2 1

