# MOL2 file generated by ConQuest
# Please check atom types

@<TRIPOS>MOLECULE
UBUWOG01
    27    28     1
SMALL
NO_CHARGES
****
Generated from CSD

@<TRIPOS>ATOM
      1 O1         8.8220    5.3945    3.8490 O.3       1 RES1    0.0000
      2 H1         9.1351    4.8767    3.2663 H         1 RES1    0.0000
      3 N1         4.8432    7.1033    5.3630 N.ar      1 RES1    0.0000
      4 C1         3.5081    7.1625    5.3647 C.ar      1 RES1    0.0000
      5 H2         3.0951    7.9271    5.7497 H         1 RES1    0.0000
      6 N2         7.4301    5.2783    3.8757 N.2       1 RES1    0.0000
      7 C2         2.6922    6.1750    4.8390 C.ar      1 RES1    0.0000
      8 H3         1.7472    6.2699    4.8451 H         1 RES1    0.0000
      9 C3         3.2911    5.0487    4.3039 C.ar      1 RES1    0.0000
     10 H4         2.7609    4.3404    3.9560 H         1 RES1    0.0000
     11 N3         8.8714    9.1044    5.6496 N.ar      1 RES1    0.0000
     12 C4         4.6747    4.9648    4.2823 C.ar      1 RES1    0.0000
     13 H5         5.1106    4.2042    3.9172 H         1 RES1    0.0000
     14 C5         5.4109    6.0265    4.8114 C.ar      1 RES1    0.0000
     15 C6         6.8980    6.0499    4.7467 C.2       1 RES1    0.0000
     16 C7         7.6691    7.0016    5.6263 C.3       1 RES1    0.0000
     17 H6         8.4483    6.5243    6.0061 H         1 RES1    0.0000
     18 H7         7.0903    7.2794    6.3798 H         1 RES1    0.0000
     19 C8         7.9062    8.4937    3.5641 C.ar      1 RES1    0.0000
     20 H8         7.3944    7.8790    3.0514 H         1 RES1    0.0000
     21 C9         8.1608    8.2421    4.9090 C.ar      1 RES1    0.0000
     22 C10        8.3998    9.6393    2.9832 C.ar      1 RES1    0.0000
     23 H9         8.2331    9.8181    2.0648 H         1 RES1    0.0000
     24 C11        9.1333   10.5195    3.7350 C.ar      1 RES1    0.0000
     25 H10        9.4840   11.3172    3.3552 H         1 RES1    0.0000
     26 C12        9.3457   10.2073    5.0678 C.ar      1 RES1    0.0000
     27 H11        9.8558   10.8111    5.5952 H         1 RES1    0.0000
@<TRIPOS>BOND
     1    1    2 1
     2    3    4 ar
     3    4    5 1
     4    6    1 1
     5    7    4 ar
     6    8    7 1
     7    9    7 ar
     8   10    9 1
     9   11   21 ar
    10   12    9 ar
    11   13   12 1
    12   14    3 ar
    13   15    6 2
    14   16   15 1
    15   17   16 1
    16   18   16 1
    17   19   20 1
    18   21   16 1
    19   22   19 ar
    20   23   22 1
    21   24   22 ar
    22   25   24 1
    23   26   11 ar
    24   27   26 1
    25   12   14 ar
    26   14   15 1
    27   19   21 ar
    28   24   26 ar
@<TRIPOS>SUBSTRUCTURE
     1 RES1 1

@<TRIPOS>CRYSIN
   9.1571   13.7528    8.6319  90.0000  90.0000  90.0000  33 1

