# MOL2 file generated by ConQuest
# Please check atom types

@<TRIPOS>MOLECULE
UCAPUM
    38    40     1
SMALL
NO_CHARGES
****
Generated from CSD

@<TRIPOS>ATOM
      1 C1        -0.4404   10.0231   -4.8873 C.2       1 RES1    0.0000
      2 H1         0.0502    9.2098   -4.9183 H         1 RES1    0.0000
      3 C2        -1.3988   10.3459   -3.9501 C.2       1 RES1    0.0000
      4 C3        -1.9008   11.6279   -4.2800 C.ar      1 RES1    0.0000
      5 C4        -2.8802   12.4699   -3.7276 C.ar      1 RES1    0.0000
      6 H2        -3.3743   12.2033   -2.9606 H         1 RES1    0.0000
      7 C5        -3.1078   13.6916   -4.3212 C.ar      1 RES1    0.0000
      8 H3        -3.7706   14.2684   -3.9590 H         1 RES1    0.0000
      9 C6        -2.3826   14.1021   -5.4488 C.ar      1 RES1    0.0000
     10 H4        -2.5645   14.9525   -5.8321 H         1 RES1    0.0000
     11 C7        -1.4161   13.3070   -6.0149 C.ar      1 RES1    0.0000
     12 H5        -0.9223   13.5926   -6.7741 H         1 RES1    0.0000
     13 C8        -1.1884   12.0524   -5.4223 C.ar      1 RES1    0.0000
     14 C9        -1.0021    8.8863   -2.0353 C.2       1 RES1    0.0000
     15 C10       -1.6865    8.0225   -0.9910 C.3       1 RES1    0.0000
     16 H6        -2.1368    8.6078   -0.3321 H         1 RES1    0.0000
     17 H7        -2.3811    7.4710   -1.4304 H         1 RES1    0.0000
     18 C11       -0.7155    7.1117   -0.2650 C.ar      1 RES1    0.0000
     19 C12       -0.0241    7.5615    0.8517 C.ar      1 RES1    0.0000
     20 H8        -0.1877    8.4407    1.1721 H         1 RES1    0.0000
     21 C13        0.8908    6.7707    1.5061 C.ar      1 RES1    0.0000
     22 H9         1.3595    7.0886    2.2682 H         1 RES1    0.0000
     23 C14        1.1069    5.4824    1.0082 C.ar      1 RES1    0.0000
     24 C15        0.4364    4.9884   -0.0912 C.ar      1 RES1    0.0000
     25 H10        0.5941    4.1071   -0.4081 H         1 RES1    0.0000
     26 C16       -0.4780    5.8255   -0.7176 C.ar      1 RES1    0.0000
     27 H11       -0.9522    5.5069   -1.4759 H         1 RES1    0.0000
     28 C17        0.6012   11.0763   -6.9061 C.3       1 RES1    0.0000
     29 H12        0.1016   10.8778   -7.7248 H         1 RES1    0.0000
     30 H13        1.2983   10.3999   -6.7763 H         1 RES1    0.0000
     31 H14        1.0146   11.9619   -6.9825 H         1 RES1    0.0000
     32 N1        -0.3102   11.0616   -5.7646 N.3       1 RES1    0.0000
     33 N2        -1.8317    9.5347   -2.8590 N.am      1 RES1    0.0000
     34 N3         2.0936    4.6291    1.6854 N.pl3     1 RES1    0.0000
     35 O1         0.2216    8.9790   -2.0971 O.2       1 RES1    0.0000
     36 O2         2.7487    5.1126    2.6089 O.2       1 RES1    0.0000
     37 O3         2.2192    3.4636    1.3071 O.2       1 RES1    0.0000
     38 H15       -2.6665    9.4238   -2.7847 H         1 RES1    0.0000
@<TRIPOS>BOND
     1    1    2 1
     2    3    1 2
     3    4    3 1
     4    5    4 ar
     5    6    5 1
     6    7    5 ar
     7    8    7 1
     8    9    7 ar
     9   10    9 1
    10   11    9 ar
    11   12   11 1
    12   13    4 ar
    13   14   15 1
    14   15   16 1
    15   17   15 1
    16   18   15 1
    17   19   18 ar
    18   20   19 1
    19   21   19 ar
    20   22   21 1
    21   23   21 ar
    22   24   23 ar
    23   25   24 1
    24   26   18 ar
    25   27   26 1
    26   28   29 1
    27   30   28 1
    28   31   28 1
    29   32    1 1
    30   33    3 1
    31   34   23 1
    32   35   14 2
    33   36   34 2
    34   37   34 2
    35   38   33 1
    36   11   13 ar
    37   13   32 1
    38   14   33 1
    39   24   26 ar
    40   28   32 1
@<TRIPOS>SUBSTRUCTURE
     1 RES1 1

@<TRIPOS>CRYSIN
   4.7845    7.0170   21.7200  90.0000  92.1330  90.0000   7 1

