# MOL2 file generated by ConQuest
# Please check atom types

@<TRIPOS>MOLECULE
UCAQUN
    36    39     1
SMALL
NO_CHARGES
****
Generated from CSD

@<TRIPOS>ATOM
      1 O1         0.4880    6.2395    6.9338 O.2       1 RES1    0.0000
      2 O2         0.5279    9.9424    9.5460 O.2       1 RES1    0.0000
      3 O3         2.0235   13.6814    3.8873 O.2       1 RES1    0.0000
      4 O4         0.4090   12.6474    2.8597 O.2       1 RES1    0.0000
      5 N1         3.3946    7.2880   11.5387 N.ar      1 RES1    0.0000
      6 N2         0.4587    8.0858    8.2544 N.am      1 RES1    0.0000
      7 N3         1.1656   12.8008    3.8108 N.pl3     1 RES1    0.0000
      8 C1         3.9819    6.2139   11.1472 C.ar      1 RES1    0.0000
      9 H1         4.8273    6.0120   11.5320 H         1 RES1    0.0000
     10 C2         3.4862    5.3452   10.2246 C.ar      1 RES1    0.0000
     11 H2         3.9715    4.5703    9.9681 H         1 RES1    0.0000
     12 C3         2.2004    5.6426    9.6531 C.ar      1 RES1    0.0000
     13 H3         1.7893    5.0497    9.0343 H         1 RES1    0.0000
     14 C4         1.5942    6.7996   10.0300 C.ar      1 RES1    0.0000
     15 C5         2.2514    7.5637   10.9717 C.ar      1 RES1    0.0000
     16 H4         1.8298    8.3729   11.2327 H         1 RES1    0.0000
     17 C6         0.2874    7.2393    9.4551 C.3       1 RES1    0.0000
     18 H5        -0.2475    6.4410    9.2166 H         1 RES1    0.0000
     19 H6        -0.2140    7.7475   10.1414 H         1 RES1    0.0000
     20 C7         0.5789    9.4704    8.4380 C.2       1 RES1    0.0000
     21 C8         0.7698   10.2940    7.2252 C.ar      1 RES1    0.0000
     22 C9         0.9922   11.6384    7.3490 C.ar      1 RES1    0.0000
     23 H7         1.0376   12.0331    8.2108 H         1 RES1    0.0000
     24 C10        1.1544   12.4476    6.1946 C.ar      1 RES1    0.0000
     25 H8         1.3404   13.3739    6.2846 H         1 RES1    0.0000
     26 C11        1.0439   11.8907    4.9661 C.ar      1 RES1    0.0000
     27 C12        0.8188   10.5067    4.7545 C.ar      1 RES1    0.0000
     28 C13        0.7391    9.8507    3.4812 C.ar      1 RES1    0.0000
     29 H9         0.7873   10.3661    2.6844 H         1 RES1    0.0000
     30 C14        0.5964    8.5135    3.4045 C.ar      1 RES1    0.0000
     31 H10        0.5531    8.0971    2.5517 H         1 RES1    0.0000
     32 C15        0.5104    7.7277    4.5565 C.ar      1 RES1    0.0000
     33 H11        0.4104    6.7870    4.4800 H         1 RES1    0.0000
     34 C16        0.5698    8.3098    5.8031 C.ar      1 RES1    0.0000
     35 C17        0.5020    7.4448    7.0069 C.2       1 RES1    0.0000
     36 C18        0.7118    9.7101    5.9264 C.ar      1 RES1    0.0000
@<TRIPOS>BOND
     1    1   35 2
     2    2   20 2
     3    3    7 2
     4    4    7 2
     5    5    8 ar
     6    6   17 1
     7    7   26 1
     8    8    9 1
     9   10    8 ar
    10   11   10 1
    11   12   10 ar
    12   13   12 1
    13   14   12 ar
    14   15    5 ar
    15   16   15 1
    16   17   14 1
    17   18   17 1
    18   19   17 1
    19   20    6 1
    20   21   20 1
    21   22   21 ar
    22   23   22 1
    23   24   22 ar
    24   25   24 1
    25   26   24 ar
    26   27   26 ar
    27   28   27 ar
    28   29   28 1
    29   30   28 ar
    30   31   30 1
    31   32   30 ar
    32   33   32 1
    33   34   32 ar
    34   35    6 1
    35   36   21 ar
    36   14   15 ar
    37   27   36 ar
    38   34   35 1
    39   34   36 ar
@<TRIPOS>SUBSTRUCTURE
     1 RES1 1

@<TRIPOS>CRYSIN
   6.9920   18.0217   22.5014  90.0000  90.0000  90.0000  61 1

