# MOL2 file generated by ConQuest
# Please check atom types

@<TRIPOS>MOLECULE
UCAQIB
    45    39     2
SMALL
NO_CHARGES
****
Generated from CSD

@<TRIPOS>ATOM
      1 O1         7.3018    7.3870    5.4565 O.2       1 RES1    0.0000
      2 O2         9.9205    7.1062    9.1418 O.2       1 RES1    0.0000
      3 N1         8.5682    7.2615    7.3316 N.am      1 RES1    0.0000
      4 N2        10.6606    7.8548    5.6974 N.ar      1 RES1    0.0000
      5 C1        12.0173    9.3360    4.3781 C.ar      1 RES1    0.0000
      6 H1        12.7097    9.4445    3.7370 H         1 RES1    0.0000
      7 C2         7.4237    5.2641    6.4966 C.ar      1 RES1    0.0000
      8 C3         8.0540    4.4839    7.4905 C.ar      1 RES1    0.0000
      9 C4         7.7405    6.7045    6.3615 C.2       1 RES1    0.0000
     10 C5        10.3589   10.2247    5.8382 C.ar      1 RES1    0.0000
     11 H2         9.9009   10.9622    6.2266 H         1 RES1    0.0000
     12 C6        11.3606   10.4313    4.9067 C.ar      1 RES1    0.0000
     13 H3        11.5931   11.3119    4.6341 H         1 RES1    0.0000
     14 C7        10.0323    8.9193    6.1981 C.ar      1 RES1    0.0000
     15 C8         8.9348    5.0922    8.4086 C.ar      1 RES1    0.0000
     16 C9         7.8108    3.0747    7.5657 C.ar      1 RES1    0.0000
     17 C10       11.6405    8.0780    4.8077 C.ar      1 RES1    0.0000
     18 H4        12.1024    7.3278    4.4519 H         1 RES1    0.0000
     19 O3         7.4435    0.3128    6.6760 O.2       1 RES1    0.0000
     20 O4         5.3505    0.8091    6.3745 O.2       1 RES1    0.0000
     21 C11        6.5205    4.6928    5.6306 C.ar      1 RES1    0.0000
     22 H5         6.0995    5.2283    4.9687 H         1 RES1    0.0000
     23 C12        6.8664    2.5611    6.6256 C.ar      1 RES1    0.0000
     24 C13        9.2027    6.5429    8.3476 C.2       1 RES1    0.0000
     25 C14        6.2172    3.3355    5.7151 C.ar      1 RES1    0.0000
     26 H6         5.5629    2.9535    5.1421 H         1 RES1    0.0000
     27 C15        8.9125    8.6816    7.1885 C.3       1 RES1    0.0000
     28 H7         9.1825    9.0382    8.0715 H         1 RES1    0.0000
     29 H8         8.1091    9.1802    6.8924 H         1 RES1    0.0000
     30 C16        9.5258    4.3039    9.3768 C.ar      1 RES1    0.0000
     31 H9        10.1130    4.6986   10.0110 H         1 RES1    0.0000
     32 N3         6.5242    1.1242    6.5565 N.pl3     1 RES1    0.0000
     33 C17        8.4366    2.3152    8.5463 C.ar      1 RES1    0.0000
     34 H10        8.2823    1.3792    8.5971 H         1 RES1    0.0000
     35 C18        9.2676    2.9189    9.4328 C.ar      1 RES1    0.0000
     36 H11        9.6874    2.3949   10.1056 H         1 RES1    0.0000
     37 H12        6.6824    1.6285    6.6366 Du        2 SUP2    0.0000
     38 O5         8.6270    0.3243    8.2064 Du        2 SUP2    0.0000
     39 O6         8.6588    0.7421   10.2773 Du        2 SUP2    0.0000
     40 N4         8.6429    1.0976    9.0772 Du        2 SUP2    0.0000
     41 C19        8.5549    2.4699    8.6549 Du        2 SUP2    0.0000
     42 C20        9.4205    3.0931    9.5485 Du        2 SUP2    0.0000
     43 H13        9.8461    2.6084   10.2317 Du        2 SUP2    0.0000
     44 C21        9.6369    4.4320    9.3908 Du        2 SUP2    0.0000
     45 H14       10.2443    4.8925    9.9584 Du        2 SUP2    0.0000
@<TRIPOS>BOND
     1    1    9 2
     2    2   24 2
     3    3    9 1
     4    4   14 ar
     5    5    6 1
     6    7    8 ar
     7    8   15 ar
     8    9    7 1
     9   10   11 1
    10   12    5 ar
    11   13   12 1
    12   14   10 ar
    13   15   24 1
    14   16    8 ar
    15   17    4 ar
    16   18   17 1
    17   19   32 2
    18   20   32 2
    19   21    7 ar
    20   22   21 1
    21   23   16 ar
    22   24    3 1
    23   25   21 ar
    24   26   25 1
    25   27    3 1
    26   28   27 1
    27   29   27 1
    28   30   15 ar
    29   31   30 1
    30   32   23 1
    31   33   16 ar
    32   34   33 1
    33   35   30 ar
    34   36   35 1
    35    5   17 ar
    36   10   12 ar
    37   14   27 1
    38   23   25 ar
    39   33   35 ar
@<TRIPOS>SUBSTRUCTURE
     1 RES1 1
     2 SUP2 37

@<TRIPOS>CRYSIN
  14.4265   11.5416   17.5201  90.0000  90.0000  90.0000  61 1

