# MOL2 file generated by ConQuest
# Please check atom types

@<TRIPOS>MOLECULE
UCAXED
    44    46     1
SMALL
NO_CHARGES
****
Generated from CSD

@<TRIPOS>ATOM
      1 O1        -0.7322    3.6252   12.3236 O.3       1 RES1    0.0000
      2 O2        -2.7405    4.7633    7.3695 O.3       1 RES1    0.0000
      3 O3        -4.2301    1.7006    6.0723 O.2       1 RES1    0.0000
      4 O4        -2.1531    2.2314    5.7882 O.2       1 RES1    0.0000
      5 N1        -1.6013    2.4343    9.9030 N.3       1 RES1    0.0000
      6 N2        -3.1534    2.0694    6.4981 N.pl3     1 RES1    0.0000
      7 C1         2.7976    3.0669   11.5939 C.ar      1 RES1    0.0000
      8 H1         2.3817    3.8789   11.8577 H         1 RES1    0.0000
      9 C2         3.9796    2.6645   12.2103 C.ar      1 RES1    0.0000
     10 H2         4.3677    3.2083   12.8857 H         1 RES1    0.0000
     11 C3         4.5872    1.4899   11.8505 C.ar      1 RES1    0.0000
     12 H3         5.3911    1.2166   12.2761 H         1 RES1    0.0000
     13 C4         4.0199    0.7053   10.8611 C.ar      1 RES1    0.0000
     14 H4         4.4382   -0.1090   10.6077 H         1 RES1    0.0000
     15 C5         2.8408    1.1015   10.2358 C.ar      1 RES1    0.0000
     16 H5         2.4593    0.5544    9.5597 H         1 RES1    0.0000
     17 C6         2.2192    2.2884   10.5926 C.ar      1 RES1    0.0000
     18 C7         0.9275    2.7232    9.9332 C.3       1 RES1    0.0000
     19 H6         0.9781    2.5243    8.9648 H         1 RES1    0.0000
     20 H7         0.8292    3.7029   10.0356 H         1 RES1    0.0000
     21 C8        -0.3193    2.0297   10.5225 C.3       1 RES1    0.0000
     22 H8        -0.2122    1.0461   10.3751 H         1 RES1    0.0000
     23 C9        -0.4656    2.2549   12.0249 C.3       1 RES1    0.0000
     24 H9        -1.2047    1.6944   12.3697 H         1 RES1    0.0000
     25 H10        0.3675    1.9761   12.4806 H         1 RES1    0.0000
     26 C10       -1.9623    4.0074   11.7192 C.3       1 RES1    0.0000
     27 H11       -2.1456    4.9575   11.9299 H         1 RES1    0.0000
     28 H12       -2.6952    3.4648   12.1050 H         1 RES1    0.0000
     29 C11       -1.9511    3.8258   10.2080 C.3       1 RES1    0.0000
     30 H13       -1.2763    4.4411    9.7990 H         1 RES1    0.0000
     31 C12       -3.3357    4.1494    9.6654 C.3       1 RES1    0.0000
     32 H14       -3.5254    5.1061    9.8337 H         1 RES1    0.0000
     33 H15       -4.0034    3.6190   10.1693 H         1 RES1    0.0000
     34 C13       -3.5178    3.8700    8.1643 C.3       1 RES1    0.0000
     35 C14       -3.0504    2.4080    7.9615 C.3       1 RES1    0.0000
     36 H16       -3.6621    1.8039    8.4728 H         1 RES1    0.0000
     37 C15       -1.6269    2.1901    8.4564 C.3       1 RES1    0.0000
     38 H17       -1.3384    1.2630    8.2629 H         1 RES1    0.0000
     39 H18       -1.0085    2.8115    7.9969 H         1 RES1    0.0000
     40 C16       -4.9609    4.1058    7.7587 C.3       1 RES1    0.0000
     41 H19       -5.2255    5.0161    8.0076 H         1 RES1    0.0000
     42 H20       -5.5388    3.4609    8.2162 H         1 RES1    0.0000
     43 H21       -5.0500    3.9940    6.7898 H         1 RES1    0.0000
     44 H22       -1.9951    4.5993    7.5197 H         1 RES1    0.0000
@<TRIPOS>BOND
     1    1   23 1
     2    2   34 1
     3    3    6 2
     4    4    6 2
     5    5   21 1
     6    6   35 1
     7    7    8 1
     8    9    7 ar
     9   10    9 1
    10   11    9 ar
    11   12   11 1
    12   13   11 ar
    13   14   13 1
    14   15   13 ar
    15   16   15 1
    16   17    7 ar
    17   18   17 1
    18   19   18 1
    19   20   18 1
    20   21   18 1
    21   22   21 1
    22   23   21 1
    23   24   23 1
    24   25   23 1
    25   26    1 1
    26   27   26 1
    27   28   26 1
    28   29    5 1
    29   30   29 1
    30   31   29 1
    31   32   31 1
    32   33   31 1
    33   34   31 1
    34   35   34 1
    35   36   35 1
    36   37    5 1
    37   38   37 1
    38   39   37 1
    39   40   34 1
    40   41   40 1
    41   42   40 1
    42   43   40 1
    43   44    2 1
    44   15   17 ar
    45   26   29 1
    46   35   37 1
@<TRIPOS>SUBSTRUCTURE
     1 RES1 1

@<TRIPOS>CRYSIN
  10.2144    5.5884   13.5096  90.0000  98.2940  90.0000   4 1

