# MOL2 file generated by ConQuest
# Please check atom types

@<TRIPOS>MOLECULE
UCIREE
    48    51     1
SMALL
NO_CHARGES
****
Generated from CSD

@<TRIPOS>ATOM
      1 O1         8.9510    1.2976    1.9364 O.2       1 RES1    0.0000
      2 N1         8.6656    3.0314    3.3825 N.am      1 RES1    0.0000
      3 O2         8.3811    4.6593    4.9335 O.2       1 RES1    0.0000
      4 N2         6.7042    3.1514    4.6448 N.am      1 RES1    0.0000
      5 O3         5.0646    1.6130    4.2844 O.2       1 RES1    0.0000
      6 N3         6.9677    1.4450    3.0563 N.am      1 RES1    0.0000
      7 C1         6.4875    0.2086    2.4521 C.ar      1 RES1    0.0000
      8 C2         7.9520    3.6745    4.3673 C.2       1 RES1    0.0000
      9 C3         5.9110    3.7580    5.6772 C.ar      1 RES1    0.0000
     10 O4         4.3620   -3.4129    0.0000 O.2       1 RES1    0.0000
     11 C4         6.1578    2.0383    4.0128 C.2       1 RES1    0.0000
     12 C5         8.2511    1.8645    2.7194 C.2       1 RES1    0.0000
     13 C6         9.9852    3.5652    3.0449 C.ar      1 RES1    0.0000
     14 C7         5.3725    0.2342    1.6582 C.ar      1 RES1    0.0000
     15 N4         5.0210   -3.4063    1.0115 N.pl3     1 RES1    0.0000
     16 O5         5.3122   -4.4102    1.6333 O.2       1 RES1    0.0000
     17 C8         5.5267   -2.1203    1.4924 C.ar      1 RES1    0.0000
     18 C9        12.3973    4.6535    2.5205 C.ar      1 RES1    0.0000
     19 C10       12.2463    3.9293    3.6667 C.ar      1 RES1    0.0000
     20 C11        6.3479    3.7200    6.9831 C.ar      1 RES1    0.0000
     21 C12        7.1508   -0.9517    2.7692 C.ar      1 RES1    0.0000
     22 N5        13.6901    5.3147    2.2614 N.pl3     1 RES1    0.0000
     23 C13        3.9407    4.9506    6.3405 C.ar      1 RES1    0.0000
     24 O6        13.8205    5.8866    1.1918 O.2       1 RES1    0.0000
     25 O7        14.5403    5.2858    3.1153 O.2       1 RES1    0.0000
     26 C14        4.8811   -0.9616    1.1566 C.ar      1 RES1    0.0000
     27 C15        6.6546   -2.1467    2.2697 C.ar      1 RES1    0.0000
     28 C16       11.3976    4.8157    1.6167 C.ar      1 RES1    0.0000
     29 C17       10.1491    4.2761    1.8841 C.ar      1 RES1    0.0000
     30 C18        4.4036    4.8935    7.6339 C.ar      1 RES1    0.0000
     31 N6         3.6267    5.5365    8.7034 N.pl3     1 RES1    0.0000
     32 C19       11.0102    3.3600    3.9258 C.ar      1 RES1    0.0000
     33 C20        4.7086    4.3613    5.3560 C.ar      1 RES1    0.0000
     34 O8         2.8208    6.3856    8.3656 O.2       1 RES1    0.0000
     35 O9         3.8335    5.2237    9.8580 O.2       1 RES1    0.0000
     36 C21        5.5901    4.3059    7.9842 C.ar      1 RES1    0.0000
     37 H1         7.0590   -2.9958    2.3837 H         1 RES1    0.0000
     38 H2         7.2643    3.3103    7.2339 H         1 RES1    0.0000
     39 H3         4.1198   -0.9683    0.6011 H         1 RES1    0.0000
     40 H4         4.9261    1.0676    1.3680 H         1 RES1    0.0000
     41 H5         7.9074   -0.9434    3.2749 H         1 RES1    0.0000
     42 H6         5.8891    4.3200    8.9335 H         1 RES1    0.0000
     43 H7        11.5141    5.4041    0.8498 H         1 RES1    0.0000
     44 H8        13.0189    3.8565    4.3113 H         1 RES1    0.0000
     45 H9         4.4228    4.3448    4.4564 H         1 RES1    0.0000
     46 H10       10.8762    2.8469    4.7051 H         1 RES1    0.0000
     47 H11        3.1069    5.3296    6.1768 H         1 RES1    0.0000
     48 H12        9.4528    4.3613    1.3058 H         1 RES1    0.0000
@<TRIPOS>BOND
     1    1   12 2
     2    2    8 1
     3    3    8 2
     4    4    8 1
     5    5   11 2
     6    6    7 1
     7    7   14 ar
     8    9    4 1
     9   10   15 2
    10   11    4 1
    11   12    2 1
    12   13    2 1
    13   14   26 ar
    14   15   16 2
    15   17   15 1
    16   18   19 ar
    17   19   32 ar
    18   20    9 ar
    19   21    7 ar
    20   22   18 1
    21   23   30 ar
    22   24   22 2
    23   25   22 2
    24   26   17 ar
    25   27   17 ar
    26   28   18 ar
    27   29   13 ar
    28   30   31 1
    29   31   34 2
    30   32   13 ar
    31   33    9 ar
    32   35   31 2
    33   36   20 ar
    34   37   27 1
    35   38   20 1
    36   39   26 1
    37   40   14 1
    38   41   21 1
    39   42   36 1
    40   43   28 1
    41   44   19 1
    42   45   33 1
    43   46   32 1
    44   47   23 1
    45   48   29 1
    46    6   11 1
    47    6   12 1
    48   21   27 ar
    49   23   33 ar
    50   28   29 ar
    51   30   36 ar
@<TRIPOS>SUBSTRUCTURE
     1 RES1 1

@<TRIPOS>CRYSIN
  12.0630    8.2758   20.7530  90.0000  92.8450  90.0000 231 1

