# MOL2 file generated by ConQuest
# Please check atom types

@<TRIPOS>MOLECULE
UCIXOW
    16    15     1
SMALL
NO_CHARGES
****
Generated from CSD

@<TRIPOS>ATOM
      1 C1         0.6277    4.3127    6.5995 C.2       1 RES1    0.0000
      2 C2         1.6363    3.4997    7.4062 C.3       1 RES1    0.0000
      3 C3         2.0787    4.9484    9.4271 C.3       1 RES1    0.0000
      4 N1         0.7181    4.2124    5.2833 N.am      1 RES1    0.0000
      5 N2         1.5024    3.7523    8.8268 N.pl3     1 RES1    0.0000
      6 N3         0.3875    3.2657    9.4150 N.pl3     1 RES1    0.0000
      7 O1        -0.2065    5.0084    7.1840 O.2       1 RES1    0.0000
      8 O2        -0.2622    2.4069    8.8080 O.2       1 RES1    0.0000
      9 O3         0.1087    3.6667   10.5493 O.2       1 RES1    0.0000
     10 H1         0.2177    4.7261    4.7692 H         1 RES1    0.0000
     11 H2         1.3470    3.7632    4.8742 H         1 RES1    0.0000
     12 H3         2.5264    3.7310    7.1644 H         1 RES1    0.0000
     13 H4         1.5422    2.5498    7.2053 H         1 RES1    0.0000
     14 H5         1.4375    5.6703    9.3793 H         1 RES1    0.0000
     15 H6         2.8794    5.1184    8.9405 H         1 RES1    0.0000
     16 H7         2.2819    4.7838   10.3564 H         1 RES1    0.0000
@<TRIPOS>BOND
     1    1    2 1
     2    2    5 1
     3    3    5 1
     4    4    1 1
     5    5    6 1
     6    6    8 2
     7    7    1 2
     8    9    6 2
     9   10    4 1
    10   11    4 1
    11   12    2 1
    12   13    2 1
    13   14    3 1
    14   15    3 1
    15   16    3 1
@<TRIPOS>SUBSTRUCTURE
     1 RES1 1

@<TRIPOS>CRYSIN
   4.8748   11.0812   11.1178  90.0000  96.2030  90.0000 231 1

