# MOL2 file generated by ConQuest
# Please check atom types

@<TRIPOS>MOLECULE
UCOFUQ
    38    40     1
SMALL
NO_CHARGES
****
Generated from CSD

@<TRIPOS>ATOM
      1 O1        12.9831    6.9522    1.4663 O.3       1 RES1    0.0000
      2 N1        13.9990    8.0101    1.3019 N.3       1 RES1    0.0000
      3 C1        16.8263    5.8381    2.6384 C.ar      1 RES1    0.0000
      4 C2        14.2795   10.4355    1.6457 C.3       1 RES1    0.0000
      5 C3        18.4935    4.6794    4.5673 C.ar      1 RES1    0.0000
      6 C4        15.6665   10.1505    2.2238 C.2       1 RES1    0.0000
      7 C5        13.3432    9.2567    1.7747 C.3       1 RES1    0.0000
      8 C6        19.0291    5.5128    3.6013 C.ar      1 RES1    0.0000
      9 C7        18.1987    6.0742    2.6455 C.ar      1 RES1    0.0000
     10 C8        16.6116   11.2934    2.4984 C.ar      1 RES1    0.0000
     11 C9        15.1225    7.6661    2.2152 C.3       1 RES1    0.0000
     12 C10       18.3506   13.4524    2.9483 C.ar      1 RES1    0.0000
     13 C11       17.2053   13.6108    2.1688 C.ar      1 RES1    0.0000
     14 C12       15.8945    6.4743    1.6268 C.3       1 RES1    0.0000
     15 C13       15.9970    8.8623    2.4512 C.2       1 RES1    0.0000
     16 C14       16.3463   12.5543    1.9399 C.ar      1 RES1    0.0000
     17 C15       17.1620    4.4218    4.5838 C.ar      1 RES1    0.0000
     18 C16       17.7201   11.1610    3.3071 C.ar      1 RES1    0.0000
     19 C17       18.5842   12.2189    3.5250 C.ar      1 RES1    0.0000
     20 C18       16.3264    4.9946    3.6256 C.ar      1 RES1    0.0000
     21 H1        14.3627   10.6781    0.7202 H         1 RES1    0.0000
     22 H2        13.8986   11.1968    2.0880 H         1 RES1    0.0000
     23 H3        19.0662    4.2827    5.2282 H         1 RES1    0.0000
     24 H4        13.0842    9.1532    2.6931 H         1 RES1    0.0000
     25 H5        12.5522    9.4182    1.2558 H         1 RES1    0.0000
     26 H6        19.9709    5.7000    3.5938 H         1 RES1    0.0000
     27 H7        18.5800    6.6394    1.9698 H         1 RES1    0.0000
     28 H8        14.7841    7.4063    3.0753 H         1 RES1    0.0000
     29 H9        18.9613   14.1821    3.0802 H         1 RES1    0.0000
     30 H10       17.0102   14.4681    1.7844 H         1 RES1    0.0000
     31 H11       15.2722    5.8173    1.3069 H         1 RES1    0.0000
     32 H12       16.3996    6.7661    0.8645 H         1 RES1    0.0000
     33 H13       16.7912    8.6939    2.8083 H         1 RES1    0.0000
     34 H14       15.5640   12.6814    1.3981 H         1 RES1    0.0000
     35 H15       16.7945    3.8447    5.2567 H         1 RES1    0.0000
     36 H16       17.8966   10.3170    3.7283 H         1 RES1    0.0000
     37 H17       19.3554   12.0944    4.0835 H         1 RES1    0.0000
     38 H18       15.3864    4.8028    3.6478 H         1 RES1    0.0000
@<TRIPOS>BOND
     1    1    2 1
     2    2    7 1
     3    3    9 ar
     4    4    6 1
     5    5    8 ar
     6    6   10 1
     7    7    4 1
     8    8    9 ar
     9    9   27 1
    10   10   16 ar
    11   11    2 1
    12   12   13 ar
    13   13   16 ar
    14   14    3 1
    15   15    6 2
    16   16   34 1
    17   17    5 ar
    18   18   10 ar
    19   19   12 ar
    20   20    3 ar
    21   21    4 1
    22   22    4 1
    23   23    5 1
    24   24    7 1
    25   25    7 1
    26   26    8 1
    27   28   11 1
    28   29   12 1
    29   30   13 1
    30   31   14 1
    31   32   14 1
    32   33   15 1
    33   35   17 1
    34   36   18 1
    35   37   19 1
    36   38   20 1
    37   11   14 1
    38   11   15 1
    39   17   20 ar
    40   18   19 ar
@<TRIPOS>SUBSTRUCTURE
     1 RES1 1

@<TRIPOS>CRYSIN
  13.5552   14.3938    7.9078  90.0000  95.8620  90.0000  14 1

