# MOL2 file generated by ConQuest
# Please check atom types

@<TRIPOS>MOLECULE
UCOKUV
    18    17     1
SMALL
NO_CHARGES
****
Generated from CSD

@<TRIPOS>ATOM
      1 C1         5.8535    1.2192    4.1543 C.2       1 RES1    0.0000
      2 C2         7.2840    0.8433    3.8123 C.3       1 RES1    0.0000
      3 C3         8.7698    0.5466    5.8711 C.3       1 RES1    0.0000
      4 N1         5.0572    1.4014    3.1186 N.am      1 RES1    0.0000
      5 N2         3.6889    1.7180    3.2354 N.3       1 RES1    0.0000
      6 N3         8.2178    1.3530    4.7900 N.pl3     1 RES1    0.0000
      7 N4         8.2398    2.6866    4.9471 N.pl3     1 RES1    0.0000
      8 O1         5.4901    1.3100    5.3290 O.2       1 RES1    0.0000
      9 O2         7.6437    3.3706    4.1071 O.2       1 RES1    0.0000
     10 O3         8.8714    3.1485    5.8991 O.2       1 RES1    0.0000
     11 H1         5.3378    1.4468    2.3531 H         1 RES1    0.0000
     12 H2         3.2757    0.9262    3.4576 H         1 RES1    0.0000
     13 H3         3.6276    2.2156    3.9666 H         1 RES1    0.0000
     14 H4         7.3714   -0.1029    3.8513 H         1 RES1    0.0000
     15 H5         7.4935    1.1683    2.9293 H         1 RES1    0.0000
     16 H6         8.7609   -0.4177    5.5417 H         1 RES1    0.0000
     17 H7         8.2313    0.6296    6.6462 H         1 RES1    0.0000
     18 H8         9.7396    0.8475    6.0699 H         1 RES1    0.0000
@<TRIPOS>BOND
     1    1    2 1
     2    2    6 1
     3    3    6 1
     4    4    1 1
     5    5    4 1
     6    6    7 1
     7    7    9 2
     8    8    1 2
     9   10    7 2
    10   11    4 1
    11   12    5 1
    12   13    5 1
    13   14    2 1
    14   15    2 1
    15   16    3 1
    16   17    3 1
    17   18    3 1
@<TRIPOS>SUBSTRUCTURE
     1 RES1 1

@<TRIPOS>CRYSIN
  10.8689    6.0536    9.7660  90.0000 100.4400  90.0000  14 1

