# MOL2 file generated by ConQuest
# Please check atom types

@<TRIPOS>MOLECULE
UCONOP
    19    20     1
SMALL
NO_CHARGES
****
Generated from CSD

@<TRIPOS>ATOM
      1 O1         7.7223    8.1449    1.1867 O.2       1 RES1    0.0000
      2 N1         5.8706    9.1836    1.3991 N.3       1 RES1    0.0000
      3 N2         6.5212    8.2146    0.8404 N.2       1 RES1    0.0000
      4 C1         4.5044    9.4199    1.1626 C.ar      1 RES1    0.0000
      5 C2         3.6612    8.7775    0.2848 C.ar      1 RES1    0.0000
      6 C3         2.3411    9.1782    0.2568 C.ar      1 RES1    0.0000
      7 C4         1.9029   10.2136    1.0676 C.ar      1 RES1    0.0000
      8 C5         2.7695   10.8570    1.9306 C.ar      1 RES1    0.0000
      9 C6         4.0828   10.4607    1.9773 C.ar      1 RES1    0.0000
     10 C7         5.2319   10.9692    2.7998 C.3       1 RES1    0.0000
     11 C8         6.4181   10.1134    2.3874 C.3       1 RES1    0.0000
     12 H1         3.9837    8.0622   -0.2661 H         1 RES1    0.0000
     13 H2         1.7205    8.7089   -0.3284 H         1 RES1    0.0000
     14 H3         0.9783   10.4912    1.0264 H         1 RES1    0.0000
     15 H4         2.4554   11.5614    2.4948 H         1 RES1    0.0000
     16 H5         5.3759   11.9011    2.6084 H         1 RES1    0.0000
     17 H6         5.0353   10.8908    3.7344 H         1 RES1    0.0000
     18 H7         6.7789    9.6289    3.1267 H         1 RES1    0.0000
     19 H8         7.1156   10.6360    1.9952 H         1 RES1    0.0000
@<TRIPOS>BOND
     1    1    3 2
     2    2    3 1
     3    4    2 1
     4    5    4 ar
     5    6    5 ar
     6    7    6 ar
     7    8    7 ar
     8    9    4 ar
     9   10    9 1
    10   11    2 1
    11   12    5 1
    12   13    6 1
    13   14    7 1
    14   15    8 1
    15   16   10 1
    16   17   10 1
    17   18   11 1
    18   19   11 1
    19    8    9 ar
    20   10   11 1
@<TRIPOS>SUBSTRUCTURE
     1 RES1 1

@<TRIPOS>CRYSIN
   8.6863   10.8875    8.4161  90.0000 112.3900  90.0000  14 1

