# MOL2 file generated by ConQuest
# Please check atom types

@<TRIPOS>MOLECULE
UCOWOB
    37    38     1
SMALL
NO_CHARGES
****
Generated from CSD

@<TRIPOS>ATOM
      1 O1        22.1367    0.3266    2.5054 O.2       1 RES1    0.0000
      2 O2        20.1182   -0.0169    3.1801 O.2       1 RES1    0.0000
      3 O3        14.0154    8.9695    4.8305 O.3       1 RES1    0.0000
      4 N1        15.3613    5.0406    4.7548 N.ar      1 RES1    0.0000
      5 N2        21.0433    0.7264    2.8783 N.pl3     1 RES1    0.0000
      6 C1        19.3235    3.9861    3.4863 C.ar      1 RES1    0.0000
      7 C2        19.5760    2.6150    3.3930 C.ar      1 RES1    0.0000
      8 H1        18.9001    1.9583    3.6270 H         1 RES1    0.0000
      9 C3        20.8181    2.1787    2.9635 C.ar      1 RES1    0.0000
     10 C4        21.8368    3.0408    2.6119 C.ar      1 RES1    0.0000
     11 H2        22.6744    2.7051    2.3409 H         1 RES1    0.0000
     12 C5        21.5768    4.4049    2.6993 C.ar      1 RES1    0.0000
     13 H3        22.2642    5.0202    2.4782 H         1 RES1    0.0000
     14 C6        20.3483    4.8746    3.1292 C.ar      1 RES1    0.0000
     15 H4        20.2113    5.8334    3.1357 H         1 RES1    0.0000
     16 C7        17.9940    4.4192    3.9375 C.2       1 RES1    0.0000
     17 H5        17.3551    3.7083    4.1617 H         1 RES1    0.0000
     18 C8        17.5635    5.6773    4.0353 C.2       1 RES1    0.0000
     19 H6        18.1857    6.4143    3.8365 H         1 RES1    0.0000
     20 C9        16.2016    6.0507    4.4434 C.ar      1 RES1    0.0000
     21 C10       15.8105    7.4034    4.4795 C.ar      1 RES1    0.0000
     22 C11       14.4938    7.6716    4.8488 C.ar      1 RES1    0.0000
     23 C12       13.6071    6.6499    5.1682 C.ar      1 RES1    0.0000
     24 C13       14.1153    5.3547    5.1037 C.ar      1 RES1    0.0000
     25 H7        13.5129    4.6211    5.3177 H         1 RES1    0.0000
     26 C14       16.7526    8.5105    4.0995 C.3       1 RES1    0.0000
     27 H8        16.3017    9.3932    4.1255 H         1 RES1    0.0000
     28 H9        17.5167    8.5634    4.7108 H         1 RES1    0.0000
     29 H10       17.1183    8.3726    3.2079 H         1 RES1    0.0000
     30 C15       14.3580    9.7497    5.9817 C.3       1 RES1    0.0000
     31 H11       14.3697   10.6379    5.7006 H         1 RES1    0.0000
     32 H12       13.6017    9.6588    6.6471 H         1 RES1    0.0000
     33 H13       15.1684    9.4762    6.3653 H         1 RES1    0.0000
     34 C16       12.1776    6.9200    5.5380 C.3       1 RES1    0.0000
     35 H14       11.6654    7.3187    4.7758 H         1 RES1    0.0000
     36 H15       12.1192    7.5428    6.3147 H         1 RES1    0.0000
     37 H16       11.7219    6.0741    5.7801 H         1 RES1    0.0000
@<TRIPOS>BOND
     1    1    5 2
     2    2    5 2
     3    3   22 1
     4    4   20 ar
     5    5    9 1
     6    6    7 ar
     7    7    8 1
     8    9    7 ar
     9   10    9 ar
    10   11   10 1
    11   12   10 ar
    12   13   12 1
    13   14    6 ar
    14   15   14 1
    15   16    6 1
    16   17   16 1
    17   18   16 2
    18   19   18 1
    19   20   18 1
    20   21   20 ar
    21   22   21 ar
    22   23   22 ar
    23   24    4 ar
    24   25   24 1
    25   26   21 1
    26   27   26 1
    27   28   26 1
    28   29   26 1
    29   30    3 1
    30   31   30 1
    31   32   30 1
    32   33   30 1
    33   34   23 1
    34   35   34 1
    35   36   34 1
    36   37   34 1
    37   12   14 ar
    38   23   24 ar
@<TRIPOS>SUBSTRUCTURE
     1 RES1 1

@<TRIPOS>CRYSIN
  23.3174    8.2979    7.2260  90.0000  90.8990  90.0000  14 1

