# MOL2 file generated by ConQuest
# Please check atom types

@<TRIPOS>MOLECULE
UDAFIQ
    98    92     2
SMALL
NO_CHARGES
****
Generated from CSD

@<TRIPOS>ATOM
      1 O1         5.1735    3.7028    3.5972 O.3       1 RES1    0.0000
      2 N1         6.4826    4.2126    3.2526 N.3       1 RES1    0.0000
      3 H1         7.0999    3.5079    3.4122 H         1 RES1    0.0000
      4 O2         6.0519    2.1816    5.1481 O.3       1 RES1    0.0000
      5 O3         8.2818    6.5834   10.0593 O.3       1 RES1    0.0000
      6 C1         6.8826    5.3172    4.1370 C.3       1 RES1    0.0000
      7 H2         6.2972    6.1071    3.9554 H         1 RES1    0.0000
      8 O4         7.8200    9.0431    9.4370 O.3       1 RES1    0.0000
      9 C2         6.7886    4.9586    5.6284 C.3       1 RES1    0.0000
     10 H3         7.4801    4.2588    5.8063 H         1 RES1    0.0000
     11 O5        10.8826    5.7705    2.6121 O.2       1 RES1    0.0000
     12 C3         5.4206    4.3256    5.9201 C.3       1 RES1    0.0000
     13 H4         5.4143    3.9646    6.8417 H         1 RES1    0.0000
     14 H5         4.7160    5.0188    5.8572 H         1 RES1    0.0000
     15 O6        10.1282    6.6647    0.7033 O.3       1 RES1    0.0000
     16 C4         5.1220    3.2122    4.9397 C.3       1 RES1    0.0000
     17 H6         4.2031    2.8606    5.1199 H         1 RES1    0.0000
     18 C5         5.6866    0.9110    4.5650 C.3       1 RES1    0.0000
     19 H7         5.1111    1.0693    3.7624 H         1 RES1    0.0000
     20 C6         6.9743    0.2075    4.1323 C.3       1 RES1    0.0000
     21 H8         7.5469    0.1017    4.9454 H         1 RES1    0.0000
     22 C7         6.6437   -1.2033    3.6122 C.3       1 RES1    0.0000
     23 H9         6.0961   -1.1288    2.7909 H         1 RES1    0.0000
     24 H10        7.4838   -1.6709    3.3775 H         1 RES1    0.0000
     25 C8         5.8852   -2.0229    4.6516 C.3       1 RES1    0.0000
     26 H11        5.6651   -2.9118    4.2764 H         1 RES1    0.0000
     27 H12        6.4577   -2.1579    5.4485 H         1 RES1    0.0000
     28 C9         4.6045   -1.3108    5.0589 C.3       1 RES1    0.0000
     29 H13        4.1441   -1.8345    5.7618 H         1 RES1    0.0000
     30 H14        3.9997   -1.2464    4.2785 H         1 RES1    0.0000
     31 C10        4.9108    0.0887    5.5832 C.3       1 RES1    0.0000
     32 H15        4.0616    0.5501    5.7987 H         1 RES1    0.0000
     33 H16        5.4398    0.0169    6.4167 H         1 RES1    0.0000
     34 C11        8.3241    5.6698    3.7649 C.3       1 RES1    0.0000
     35 H17        8.8934    4.8742    3.9164 H         1 RES1    0.0000
     36 H18        8.6418    6.3853    4.3718 H         1 RES1    0.0000
     37 C12        7.0616    6.1077    6.5799 C.ar      1 RES1    0.0000
     38 C13        7.5571    5.8000    7.8546 C.ar      1 RES1    0.0000
     39 H19        7.7295    4.8936    8.0800 H         1 RES1    0.0000
     40 C14        7.8003    6.7893    8.7920 C.ar      1 RES1    0.0000
     41 C15        7.5531    8.1340    8.4594 C.ar      1 RES1    0.0000
     42 C16        7.0487    8.4390    7.2105 C.ar      1 RES1    0.0000
     43 H20        6.8659    9.3440    6.9849 H         1 RES1    0.0000
     44 C17        6.8041    7.4309    6.2747 C.ar      1 RES1    0.0000
     45 H21        6.4576    7.6573    5.4192 H         1 RES1    0.0000
     46 C18        7.7878   10.4221    9.0591 C.3       1 RES1    0.0000
     47 H22        8.0087   10.9788    9.8354 H         1 RES1    0.0000
     48 H23        6.8911   10.6508    8.7360 H         1 RES1    0.0000
     49 H24        8.4418   10.5804    8.3467 H         1 RES1    0.0000
     50 C19        8.3890    5.2208   10.5240 C.3       1 RES1    0.0000
     51 H25        8.8793    4.6441    9.8701 H         1 RES1    0.0000
     52 C20        9.0954    5.2674   11.8803 C.3       1 RES1    0.0000
     53 H26        9.6673    6.0721   11.9432 H         1 RES1    0.0000
     54 H27        9.6628    4.4652   12.0007 H         1 RES1    0.0000
     55 C21        7.0094    4.6606   10.8490 C.3       1 RES1    0.0000
     56 H28        7.0370    3.6755   10.9381 H         1 RES1    0.0000
     57 H29        6.3532    4.9043   10.1498 H         1 RES1    0.0000
     58 C22        7.9892    5.3087   12.9545 C.3       1 RES1    0.0000
     59 H30        8.0426    4.5115   13.5393 H         1 RES1    0.0000
     60 H31        8.0789    6.1194   13.5143 H         1 RES1    0.0000
     61 C23        6.6611    5.3275   12.1912 C.3       1 RES1    0.0000
     62 H32        6.3421    6.2544   12.0560 H         1 RES1    0.0000
     63 H33        5.9654    4.8136   12.6740 H         1 RES1    0.0000
     64 C24        7.7548    1.0375    3.1314 C.ar      1 RES1    0.0000
     65 C25        7.2732    1.2604    1.8420 C.ar      1 RES1    0.0000
     66 H34        6.4585    0.8530    1.5700 H         1 RES1    0.0000
     67 C26        8.9650    1.6286    3.4854 C.ar      1 RES1    0.0000
     68 H35        9.3189    1.4822    4.3544 H         1 RES1    0.0000
     69 C27        7.9666    2.0697    0.9461 C.ar      1 RES1    0.0000
     70 H36        7.6199    2.2169    0.0737 H         1 RES1    0.0000
     71 C28        9.6662    2.4306    2.5865 C.ar      1 RES1    0.0000
     72 H37       10.4945    2.8196    2.8430 H         1 RES1    0.0000
     73 C29        9.1566    2.6592    1.3231 C.ar      1 RES1    0.0000
     74 H38        9.6236    3.2202    0.7156 H         1 RES1    0.0000
     75 C30        8.5114    6.1387    2.3131 C.3       1 RES1    0.0000
     76 H39        8.0322    5.5068    1.7034 H         1 RES1    0.0000
     77 C31        9.9776    6.1711    1.9340 C.2       1 RES1    0.0000
     78 C32        7.9141    7.5192    2.1574 C.2       1 RES1    0.0000
     79 O7         8.3584    8.5794    2.4830 O.2       1 RES1    0.0000
     80 O8         6.5826    7.4022    1.5581 O.3       1 RES1    0.0000
     81 C33       11.4234    6.9212    0.2244 C.3       1 RES1    0.0000
     82 H40       11.8576    7.5877    0.7980 H         1 RES1    0.0000
     83 H41       11.3717    7.2636   -0.6918 H         1 RES1    0.0000
     84 H42       11.9455    6.0921    0.2353 H         1 RES1    0.0000
     85 C34        5.7991    8.5815    1.4822 C.3       1 RES1    0.0000
     86 H43        4.8719    8.3456    1.2708 H         1 RES1    0.0000
     87 H44        6.1544    9.1656    0.7807 H         1 RES1    0.0000
     88 H45        5.8282    9.0489    2.3431 H         1 RES1    0.0000
     89 C35        6.1409    8.8393    1.8574 Du        2 SUP2    0.0000
     90 C36       11.5983    6.5650    0.2201 Du        2 SUP2    0.0000
     91 H46       11.8982    5.6339    0.2754 Du        2 SUP2    0.0000
     92 H47       12.1671    7.1266    0.7872 Du        2 SUP2    0.0000
     93 H48       11.6581    6.8728   -0.7080 Du        2 SUP2    0.0000
     94 H49        5.7943    8.9928    2.7605 Du        2 SUP2    0.0000
     95 H50        5.3995    8.8594    1.2165 Du        2 SUP2    0.0000
     96 H51        6.7885    9.5394    1.6307 Du        2 SUP2    0.0000
     97 O9         8.5606    8.4825    2.4071 Du        2 SUP2    0.0000
     98 O10        6.8100    7.5090    1.7999 Du        2 SUP2    0.0000
@<TRIPOS>BOND
     1    1    2 1
     2    2    3 1
     3    4   16 1
     4    5   40 1
     5    6    2 1
     6    7    6 1
     7    8   41 1
     8    9    6 1
     9   10    9 1
    10   11   77 2
    11   12    9 1
    12   13   12 1
    13   14   12 1
    14   15   77 1
    15   16    1 1
    16   17   16 1
    17   18    4 1
    18   19   18 1
    19   20   18 1
    20   21   20 1
    21   22   20 1
    22   23   22 1
    23   24   22 1
    24   25   22 1
    25   26   25 1
    26   27   25 1
    27   28   25 1
    28   29   28 1
    29   30   28 1
    30   31   18 1
    31   32   31 1
    32   33   31 1
    33   34    6 1
    34   35   34 1
    35   36   34 1
    36   37    9 1
    37   38   37 ar
    38   39   38 1
    39   40   38 ar
    40   41   40 ar
    41   42   41 ar
    42   43   42 1
    43   44   37 ar
    44   45   44 1
    45   46    8 1
    46   47   46 1
    47   48   46 1
    48   49   46 1
    49   50    5 1
    50   51   50 1
    51   52   50 1
    52   53   52 1
    53   54   52 1
    54   55   50 1
    55   56   55 1
    56   57   55 1
    57   58   52 1
    58   59   58 1
    59   60   58 1
    60   61   55 1
    61   62   61 1
    62   63   61 1
    63   64   20 1
    64   65   64 ar
    65   66   65 1
    66   67   64 ar
    67   68   67 1
    68   69   65 ar
    69   70   69 1
    70   71   67 ar
    71   72   71 1
    72   73   69 ar
    73   74   73 1
    74   75   34 1
    75   76   75 1
    76   77   75 1
    77   78   75 1
    78   79   78 2
    79   80   78 1
    80   81   15 1
    81   82   81 1
    82   83   81 1
    83   84   81 1
    84   85   80 1
    85   86   85 1
    86   87   85 1
    87   88   85 1
    88   12   16 1
    89   28   31 1
    90   42   44 ar
    91   58   61 1
    92   71   73 ar
@<TRIPOS>SUBSTRUCTURE
     1 RES1 1
     2 SUP2 89

@<TRIPOS>CRYSIN
  12.2643   12.6227   12.7582  63.6620  64.3830  67.5390   2 1

