# MOL2 file generated by ConQuest
# Please check atom types

@<TRIPOS>MOLECULE
UDAVAZ
    41    43     1
SMALL
USER_CHARGES
****
Generated from CSD

@<TRIPOS>ATOM
      1 C1         6.4128    5.2294    6.2727 C.2       1 RES1    0.0000
      2 C2         7.0308    1.5426    6.7825 C.3       1 RES1    0.0000
      3 C3         4.4955    5.3647    7.8274 C.2       1 RES1    0.0000
      4 H1         4.8290    4.6520    8.3416 H         1 RES1    0.0000
      5 C4         5.3368    7.1514    6.2298 C.ar      1 RES1    0.0000
      6 C5         6.3995    7.1248    5.3291 C.ar      1 RES1    0.0000
      7 C6         6.7991    3.8789    6.6944 C.2       1 RES1    0.0000
      8 C7         3.2895    5.7634    8.0916 C.2       1 RES1    0.0000
      9 H2         2.9108    6.4725    7.6050 H         1 RES1    0.0000
     10 H3         2.7950    5.3430    8.7710 H         1 RES1    0.0000
     11 C8         7.9043    2.1949    7.9001 C.3       1 RES1    0.0000
     12 C9         5.7142    0.9930    7.3077 C.3       1 RES1    0.0000
     13 H4         5.2700    1.6707    7.8417 H         1 RES1    0.0000
     14 H5         5.8862    0.2114    7.8571 H         1 RES1    0.0000
     15 H6         5.1460    0.7453    6.5623 H         1 RES1    0.0000
     16 C10        4.5353    8.2760    6.3960 C.ar      1 RES1    0.0000
     17 H7         3.8118    8.2893    6.9961 H         1 RES1    0.0000
     18 C11        7.7055    1.6163    9.2874 C.3       1 RES1    0.0000
     19 H8         8.2310    2.1212    9.9271 H         1 RES1    0.0000
     20 H9         7.9914    0.6886    9.2951 H         1 RES1    0.0000
     21 H10        6.7680    1.6670    9.5274 H         1 RES1    0.0000
     22 C12        6.7011    8.2482    4.5551 C.ar      1 RES1    0.0000
     23 H11        7.4139    8.2434    3.9429 H         1 RES1    0.0000
     24 C13        9.3814    2.2493    7.5697 C.3       1 RES1    0.0000
     25 H12        9.4963    2.5513    6.6559 H         1 RES1    0.0000
     26 H13        9.7675    1.3650    7.6699 H         1 RES1    0.0000
     27 H14        9.8245    2.8666    8.1731 H         1 RES1    0.0000
     28 C14        4.8680    9.3753    5.6231 C.ar      1 RES1    0.0000
     29 H15        4.3604   10.1617    5.7156 H         1 RES1    0.0000
     30 C15        7.7375    0.5351    5.9149 C.3       1 RES1    0.0000
     31 H16        7.1197    0.1921    5.2498 H         1 RES1    0.0000
     32 H17        8.0587   -0.1969    6.4654 H         1 RES1    0.0000
     33 H18        8.4874    0.9592    5.4711 H         1 RES1    0.0000
     34 C16        5.9140    9.3632    4.7235 C.ar      1 RES1    0.0000
     35 H19        6.0928   10.1327    4.2148 H         1 RES1    0.0000
     36 N1         6.6760    2.7644    5.9688 N.pl3     1 RES1    1.0000
     37 N2         5.3546    5.8966    6.8419 N.pl3     1 RES1    0.0000
     38 N3         7.3921    3.6071    7.8659 N.3       1 RES1    0.0000
     39 N4         7.0543    5.9059    5.3698 N.2       1 RES1    0.0000
     40 O1         6.1837    2.6877    4.7940 O.2       1 RES1   -1.0000
     41 O2         7.6636    4.4608    8.7655 O.2       1 RES1    0.0000
@<TRIPOS>BOND
     1    1    7 1
     2    2   11 1
     3    3    4 1
     4    5    6 ar
     5    6   22 ar
     6    7   36 2
     7    8    3 2
     8    9    8 1
     9   10    8 1
    10   11   18 1
    11   12    2 1
    12   13   12 1
    13   14   12 1
    14   15   12 1
    15   16    5 ar
    16   17   16 1
    17   18   19 1
    18   20   18 1
    19   21   18 1
    20   22   23 1
    21   24   11 1
    22   25   24 1
    23   26   24 1
    24   27   24 1
    25   28   16 ar
    26   29   28 1
    27   30    2 1
    28   31   30 1
    29   32   30 1
    30   33   30 1
    31   34   22 ar
    32   35   34 1
    33   36    2 1
    34   37    1 1
    35   38    7 1
    36   39    1 2
    37   40   36 1
    38   41   38 1
    39    3   37 1
    40    5   37 1
    41    6   39 1
    42   11   38 1
    43   28   34 ar
@<TRIPOS>SUBSTRUCTURE
     1 RES1 1

@<TRIPOS>CRYSIN
  11.6900   12.0800   11.7400  90.0000 110.3040  90.0000  14 1

