# MOL2 file generated by ConQuest
# Please check atom types

@<TRIPOS>MOLECULE
UDAVED
    35    36     1
SMALL
USER_CHARGES
****
Generated from CSD

@<TRIPOS>ATOM
      1 C1         3.4108    3.2854    2.7640 C.2       1 RES1    0.0000
      2 C2         1.4290    2.6784    3.8590 C.3       1 RES1    0.0000
      3 C3         4.3247    3.8268    1.7591 C.2       1 RES1    0.0000
      4 C4         2.6424    2.3751    4.7853 C.3       1 RES1    0.0000
      5 C5         5.0449    1.6267    0.9031 C.2       1 RES1    0.0000
      6 H1         4.4682    1.1965    1.4926 H         1 RES1    0.0000
      7 C6         3.0650    0.9085    4.8084 C.3       1 RES1    0.0000
      8 H2         3.1263    0.5795    3.9092 H         1 RES1    0.0000
      9 H3         2.4137    0.3950    5.2928 H         1 RES1    0.0000
     10 H4         3.9194    0.8288    5.2382 H         1 RES1    0.0000
     11 C7         5.8377    3.8984    0.1756 C.2       1 RES1    0.0000
     12 H5         6.4581    3.6692   -0.4783 H         1 RES1    0.0000
     13 C8         5.4890    5.1464    0.5656 C.2       1 RES1    0.0000
     14 H6         5.8446    5.9279    0.2088 H         1 RES1    0.0000
     15 C9         0.7109    3.9781    4.1970 C.3       1 RES1    0.0000
     16 H7         1.3534    4.6881    4.2738 H         1 RES1    0.0000
     17 H8         0.2428    3.8775    5.0294 H         1 RES1    0.0000
     18 H9         0.0848    4.1883    3.5010 H         1 RES1    0.0000
     19 C10        0.4521    1.5311    3.7012 C.3       1 RES1    0.0000
     20 H10       -0.2672    1.7999    3.1255 H         1 RES1    0.0000
     21 H11        0.1006    1.2899    4.5620 H         1 RES1    0.0000
     22 H12        0.9037    0.7764    3.3171 H         1 RES1    0.0000
     23 C11        2.5176    2.9130    6.1936 C.3       1 RES1    0.0000
     24 H13        3.3030    2.6822    6.6950 H         1 RES1    0.0000
     25 H14        1.7442    2.5296    6.6156 H         1 RES1    0.0000
     26 H15        2.4252    3.8684    6.1637 H         1 RES1    0.0000
     27 C12        5.7523    0.8832    0.1021 C.2       1 RES1    0.0000
     28 H16        6.3402    1.2785   -0.5017 H         1 RES1    0.0000
     29 H17        5.6707   -0.0421    0.1340 H         1 RES1    0.0000
     30 N1         2.1318    2.9421    2.5537 N.pl3     1 RES1    1.0000
     31 N2         3.7378    3.0976    4.0543 N.3       1 RES1    0.0000
     32 N3         5.0876    3.0362    0.9431 N.pl3     1 RES1    0.0000
     33 N4         4.5385    5.1065    1.5620 N.2       1 RES1    0.0000
     34 O1         1.5162    2.9878    1.4386 O.2       1 RES1   -1.0000
     35 O2         4.8656    3.3427    4.5862 O.2       1 RES1    0.0000
@<TRIPOS>BOND
     1    1    3 1
     2    2    4 1
     3    3   32 1
     4    4    7 1
     5    5    6 1
     6    7    8 1
     7    9    7 1
     8   10    7 1
     9   11   12 1
    10   13   11 2
    11   14   13 1
    12   15    2 1
    13   16   15 1
    14   17   15 1
    15   18   15 1
    16   19    2 1
    17   20   19 1
    18   21   19 1
    19   22   19 1
    20   23    4 1
    21   24   23 1
    22   25   23 1
    23   26   23 1
    24   27    5 2
    25   28   27 1
    26   29   27 1
    27   30    1 2
    28   31    1 1
    29   32    5 1
    30   33    3 2
    31   34   30 1
    32   35   31 1
    33    2   30 1
    34    4   31 1
    35   11   32 1
    36   13   33 1
@<TRIPOS>SUBSTRUCTURE
     1 RES1 1

@<TRIPOS>CRYSIN
  14.3672   11.3844   15.5807  90.0000  90.0000  90.0000  61 1

