# MOL2 file generated by ConQuest
# Please check atom types

@<TRIPOS>MOLECULE
UDEGUH
    37    41     1
SMALL
NO_CHARGES
****
Generated from CSD

@<TRIPOS>ATOM
      1 O1         3.4967    9.8763    4.4378 O.2       1 RES1    0.0000
      2 O2         6.8882    7.4842    2.4395 O.3       1 RES1    0.0000
      3 O3         7.2154    9.8908    1.7203 O.3       1 RES1    0.0000
      4 O4         5.0762    7.3572    5.7747 O.2       1 RES1    0.0000
      5 O5         3.5989    6.4105    4.4141 O.3       1 RES1    0.0000
      6 O6         5.1085   12.3404    4.2908 O.2       1 RES1    0.0000
      7 O7         5.9427   12.5817    2.2430 O.3       1 RES1    0.0000
      8 N1         6.4105    8.3240    3.4502 N.3       1 RES1    0.0000
      9 N2         6.6296    9.8572    2.9840 N.3       1 RES1    0.0000
     10 C1         4.9515    8.1421    3.5131 C.3       1 RES1    0.0000
     11 C2         4.5068    7.6817    2.0934 C.3       1 RES1    0.0000
     12 C3         3.9367    8.9035    1.2785 C.3       1 RES1    0.0000
     13 C4         4.8577   10.1358    1.3472 C.3       1 RES1    0.0000
     14 C5         5.2779   10.4325    2.8248 C.3       1 RES1    0.0000
     15 C6         4.4158    9.5591    3.7507 C.2       1 RES1    0.0000
     16 C7         5.8139    7.1075    1.4949 C.3       1 RES1    0.0000
     17 C8         6.1699    7.5536    0.1137 C.2       1 RES1    0.0000
     18 C9         6.3430    8.7676   -0.2408 C.2       1 RES1    0.0000
     19 C10        6.1914    9.9371    0.6614 C.3       1 RES1    0.0000
     20 C11        4.5871    7.2684    4.6838 C.2       1 RES1    0.0000
     21 C12        3.1743    5.5771    5.5076 C.3       1 RES1    0.0000
     22 C13        5.3969   11.9021    3.2113 C.2       1 RES1    0.0000
     23 C14        6.2619   13.9605    2.5480 C.3       1 RES1    0.0000
     24 H1         3.8311    6.9755    2.1672 H         1 RES1    0.0000
     25 H2         3.8425    8.6540    0.3358 H         1 RES1    0.0000
     26 H3         3.0598    9.1456    1.6419 H         1 RES1    0.0000
     27 H4         4.3944   10.9167    0.9793 H         1 RES1    0.0000
     28 H5         5.7478    6.1307    1.4968 H         1 RES1    0.0000
     29 H6         6.2674    6.8946   -0.5355 H         1 RES1    0.0000
     30 H7         6.5700    8.9283   -1.1282 H         1 RES1    0.0000
     31 H8         6.3659   10.7456    0.1342 H         1 RES1    0.0000
     32 H9         2.8530    6.1326    6.2480 H         1 RES1    0.0000
     33 H10        2.4555    4.9786    5.2135 H         1 RES1    0.0000
     34 H11        3.9396    5.0435    5.8081 H         1 RES1    0.0000
     35 H12        6.9027   13.9881    3.2884 H         1 RES1    0.0000
     36 H13        6.6594   14.3788    1.7562 H         1 RES1    0.0000
     37 H14        5.4500   14.4470    2.8010 H         1 RES1    0.0000
@<TRIPOS>BOND
     1    1   15 2
     2    2    8 1
     3    3    9 1
     4    4   20 2
     5    5   20 1
     6    6   22 2
     7    7   22 1
     8    8    9 1
     9    9   14 1
    10   10    8 1
    11   11   10 1
    12   12   11 1
    13   13   12 1
    14   14   13 1
    15   15   10 1
    16   16    2 1
    17   17   16 1
    18   18   17 2
    19   19    3 1
    20   20   10 1
    21   21    5 1
    22   22   14 1
    23   23    7 1
    24   24   11 1
    25   25   12 1
    26   26   12 1
    27   27   13 1
    28   28   16 1
    29   29   17 1
    30   30   18 1
    31   31   19 1
    32   32   21 1
    33   33   21 1
    34   34   21 1
    35   35   23 1
    36   36   23 1
    37   37   23 1
    38   11   16 1
    39   13   19 1
    40   14   15 1
    41   18   19 1
@<TRIPOS>SUBSTRUCTURE
     1 RES1 1

@<TRIPOS>CRYSIN
   9.8624   10.8024    6.8313  70.3110  82.1200  75.3920   2 1

