# MOL2 file generated by ConQuest
# Please check atom types

@<TRIPOS>MOLECULE
UDEQEB
    39    39     1
SMALL
NO_CHARGES
****
Generated from CSD

@<TRIPOS>ATOM
      1 O1         5.8878    1.7452   14.5500 O.3       1 RES1    0.0000
      2 O2         8.7987    4.8821   15.1517 O.2       1 RES1    0.0000
      3 O3         8.3635    6.0209   16.9800 O.2       1 RES1    0.0000
      4 O4         5.6994    7.6482   17.9847 O.2       1 RES1    0.0000
      5 O5         6.7246    6.5279   19.5526 O.2       1 RES1    0.0000
      6 O6         3.9546    5.6680   19.6465 O.2       1 RES1    0.0000
      7 O7         4.1210    3.6597   18.8169 O.2       1 RES1    0.0000
      8 O8         5.6338    5.9640   15.7563 O.2       1 RES1    0.0000
      9 O9         3.6851    5.4234   16.5719 O.2       1 RES1    0.0000
     10 O10        8.9303    1.9158   17.5629 O.2       1 RES1    0.0000
     11 O11       10.8027    1.0573   16.8509 O.2       1 RES1    0.0000
     12 O12       12.1293    2.7120   15.0554 O.2       1 RES1    0.0000
     13 O13       13.1056    2.2365   13.1572 O.2       1 RES1    0.0000
     14 O14       11.4544   -0.0397   12.2776 O.2       1 RES1    0.0000
     15 O15       10.8966    1.6616   11.0166 O.2       1 RES1    0.0000
     16 O16       10.6963    4.1969   12.9315 O.2       1 RES1    0.0000
     17 O17        8.8959    2.9978   12.6277 O.2       1 RES1    0.0000
     18 N1         5.8483    2.8573   15.3461 N.2       1 RES1    0.0000
     19 N2         7.1636    1.2210   14.4710 N.2       1 RES1    0.0000
     20 N3         7.3609    4.0749   16.6442 N.3       1 RES1    0.0000
     21 N4         8.2346    5.0575   16.2263 N.pl3     1 RES1    0.0000
     22 N5         6.0472    6.6245   18.5455 N.pl3     1 RES1    0.0000
     23 N6         4.4441    4.8231   18.9205 N.pl3     1 RES1    0.0000
     24 N7         4.8877    5.5796   16.6387 N.pl3     1 RES1    0.0000
     25 N8         9.2867    1.7856   15.3417 N.3       1 RES1    0.0000
     26 N9         9.7051    1.5520   16.7012 N.pl3     1 RES1    0.0000
     27 N10       12.1416    2.3132   13.9011 N.pl3     1 RES1    0.0000
     28 N11       11.0742    1.0991   12.0818 N.pl3     1 RES1    0.0000
     29 N12       10.0683    3.1601   12.9389 N.pl3     1 RES1    0.0000
     30 C1         7.0755    3.0306   15.7534 C.2       1 RES1    0.0000
     31 C2         7.8958    1.9974   15.2167 C.2       1 RES1    0.0000
     32 C3         6.6874    4.2243   17.9097 C.3       1 RES1    0.0000
     33 H1         7.3159    4.5223   18.5957 H         1 RES1    0.0000
     34 H2         6.2743    3.3780   18.1382 H         1 RES1    0.0000
     35 C4         5.5702    5.2843   17.9666 C.3       1 RES1    0.0000
     36 C5         9.9661    1.0127   14.3082 C.3       1 RES1    0.0000
     37 H3         9.3491    0.6167   13.7459 H         1 RES1    0.0000
     38 H4        10.5472    0.3906   14.6739 H         1 RES1    0.0000
     39 C6        10.7862    1.8857   13.3562 C.3       1 RES1    0.0000
@<TRIPOS>BOND
     1    1   18 1
     2    2   21 2
     3    3   21 2
     4    4   22 2
     5    5   22 2
     6    6   23 2
     7    7   23 2
     8    8   24 2
     9    9   24 2
    10   10   26 2
    11   11   26 2
    12   12   27 2
    13   13   27 2
    14   14   28 2
    15   15   28 2
    16   16   29 2
    17   17   29 2
    18   18   30 2
    19   19    1 1
    20   20   21 1
    21   22   35 1
    22   23   35 1
    23   24   35 1
    24   25   26 1
    25   27   39 1
    26   28   39 1
    27   29   39 1
    28   30   20 1
    29   31   19 2
    30   32   20 1
    31   33   32 1
    32   34   32 1
    33   35   32 1
    34   36   25 1
    35   37   36 1
    36   38   36 1
    37   39   36 1
    38   25   31 1
    39   30   31 1
@<TRIPOS>SUBSTRUCTURE
     1 RES1 1

@<TRIPOS>CRYSIN
  16.0010    6.8520   16.7720  90.0000 105.4490  90.0000 231 1

