# MOL2 file generated by ConQuest
# Please check atom types

@<TRIPOS>MOLECULE
UDEWAB
    18    19     1
SMALL
USER_CHARGES
****
Generated from CSD

@<TRIPOS>ATOM
      1 N1         0.1669    1.0835    3.0636 N.2       1 RES1    0.0000
      2 N2        -0.4274    2.3183    0.6046 N.2       1 RES1    0.0000
      3 O1         1.1574    1.0592   -0.3064 O.2       1 RES1   -1.0000
      4 N3         0.4924    1.4198    0.7173 N.pl3     1 RES1    1.0000
      5 C1        -1.6056    2.3407    4.1116 C.ar      1 RES1    0.0000
      6 C2        -0.8338    2.0138    2.9827 C.ar      1 RES1    0.0000
      7 N4         1.8128   -0.0729    1.9219 N.3       1 RES1    0.0000
      8 C3        -1.1200    2.6340    1.7509 C.ar      1 RES1    0.0000
      9 C4         0.8204    0.7921    1.9756 C.2       1 RES1    0.0000
     10 C5        -2.1381    3.6017    1.6646 C.ar      1 RES1    0.0000
     11 C6        -2.6066    3.2692    3.9988 C.ar      1 RES1    0.0000
     12 C7        -2.8683    3.9155    2.7761 C.ar      1 RES1    0.0000
     13 H1        -1.4336    1.9223    4.9469 H         1 RES1    0.0000
     14 H2        -2.3161    4.0370    0.8384 H         1 RES1    0.0000
     15 H3        -3.1349    3.4784    4.7592 H         1 RES1    0.0000
     16 H4        -3.5535    4.5712    2.7231 H         1 RES1    0.0000
     17 H5         2.2203   -0.2541    1.1728 H         1 RES1    0.0000
     18 H6         2.1122   -0.3979    2.6861 H         1 RES1    0.0000
@<TRIPOS>BOND
     1    1    6 1
     2    2    4 2
     3    3    4 1
     4    4    9 1
     5    5    6 ar
     6    6    8 ar
     7    7    9 1
     8    8    2 1
     9    9    1 2
    10   10    8 ar
    11   11    5 ar
    12   12   10 ar
    13   13    5 1
    14   14   10 1
    15   15   11 1
    16   16   12 1
    17   17    7 1
    18   18    7 1
    19   11   12 ar
@<TRIPOS>SUBSTRUCTURE
     1 RES1 1

@<TRIPOS>CRYSIN
   5.0771   18.6810    7.8231  90.0000 104.7190  90.0000 231 1

