# MOL2 file generated by ConQuest
# Please check atom types

@<TRIPOS>MOLECULE
UDEWEF
    22    23     1
SMALL
USER_CHARGES
****
Generated from CSD

@<TRIPOS>ATOM
      1 O1         0.5330    1.5445    0.2633 O.2       1 RES1   -1.0000
      2 N1         1.3107    2.2880   -0.4691 N.pl3     1 RES1    1.0000
      3 N2         1.3734    0.5366   -1.9395 N.am      1 RES1    0.0000
      4 C1         1.6892    3.5509   -0.0714 C.ar      1 RES1    0.0000
      5 N3         2.5578    2.5399   -2.4814 N.2       1 RES1    0.0000
      6 N4         2.9049    3.7718   -2.1593 N.2       1 RES1    0.0000
      7 C2         2.8707    5.6009   -0.6190 C.ar      1 RES1    0.0000
      8 O2         2.4812    0.1493   -3.9168 O.2       1 RES1    0.0000
      9 C3         2.4827    4.2882   -0.9746 C.ar      1 RES1    0.0000
     10 C4         1.7802    1.8213   -1.6594 C.2       1 RES1    0.0000
     11 C5         1.7213    5.3505    1.4830 C.ar      1 RES1    0.0000
     12 C6         1.3064    4.0922    1.1665 C.ar      1 RES1    0.0000
     13 C7         1.1408   -1.6005   -3.0416 C.3       1 RES1    0.0000
     14 C8         2.4897    6.1126    0.5839 C.ar      1 RES1    0.0000
     15 C9         1.7450   -0.2426   -3.0416 C.2       1 RES1    0.0000
     16 H1         3.3938    6.1220   -1.2169 H         1 RES1    0.0000
     17 H2         1.4878    5.7191    2.3274 H         1 RES1    0.0000
     18 H3         0.7694    3.5929    1.7686 H         1 RES1    0.0000
     19 H4         0.3063   -1.5865   -3.5555 H         1 RES1    0.0000
     20 H5         0.9518   -1.8742   -2.1201 H         1 RES1    0.0000
     21 H6         1.7652   -2.2366   -3.4491 H         1 RES1    0.0000
     22 H7         2.7466    6.9961    0.8192 H         1 RES1    0.0000
@<TRIPOS>BOND
     1    1    2 1
     2    2    4 1
     3    3   10 1
     4    4    9 ar
     5    5    6 2
     6    6    9 1
     7    7    9 ar
     8    8   15 2
     9   10    2 2
    10   11   12 ar
    11   12    4 ar
    12   13   15 1
    13   14    7 ar
    14   15    3 1
    15   16    7 1
    16   17   11 1
    17   18   12 1
    18   19   13 1
    19   20   13 1
    20   21   13 1
    21   22   14 1
    22    5   10 1
    23   11   14 ar
@<TRIPOS>SUBSTRUCTURE
     1 RES1 1

@<TRIPOS>CRYSIN
   4.0178   15.5538   14.0228  90.0000  93.0040  90.0000 231 1

