# MOL2 file generated by ConQuest
# Please check atom types

@<TRIPOS>MOLECULE
UDEYAF
    26    26     1
SMALL
NO_CHARGES
****
Generated from CSD

@<TRIPOS>ATOM
      1 O1         6.1707    7.8503    6.3521 O.3       1 RES1    0.0000
      2 O2         4.9312    9.2920    2.6873 O.2       1 RES1    0.0000
      3 O3         4.5651   11.4381    2.6356 O.2       1 RES1    0.0000
      4 O4         7.1056   12.6520    2.5065 O.2       1 RES1    0.0000
      5 O5         7.6551   14.5197    3.4840 O.2       1 RES1    0.0000
      6 O6         6.1423   14.2388    6.1420 O.2       1 RES1    0.0000
      7 O7         8.2878   13.9371    6.4186 O.2       1 RES1    0.0000
      8 O8         8.3561   11.0398    5.9650 O.2       1 RES1    0.0000
      9 O9         9.2820   11.8518    4.1696 O.2       1 RES1    0.0000
     10 N1         5.6225    9.0560    5.9928 N.2       1 RES1    0.0000
     11 N2         7.1144    7.4258    5.4127 N.2       1 RES1    0.0000
     12 N3         5.9462   10.5808    4.2003 N.3       1 RES1    0.0000
     13 N4         5.0632   10.4349    3.0885 N.pl3     1 RES1    0.0000
     14 N5         7.3237   13.3556    3.4747 N.pl3     1 RES1    0.0000
     15 N6         7.2125   13.7124    5.9003 N.pl3     1 RES1    0.0000
     16 N7         8.3972   11.7693    4.9917 N.pl3     1 RES1    0.0000
     17 C1         6.2101    9.3661    4.8725 C.2       1 RES1    0.0000
     18 C2         7.1550    8.3584    4.5048 C.2       1 RES1    0.0000
     19 C3         5.8675   11.8335    4.9326 C.3       1 RES1    0.0000
     20 C4         7.1636   12.6478    4.8133 C.3       1 RES1    0.0000
     21 C5         8.0589    8.3181    3.3302 C.3       1 RES1    0.0000
     22 H1         8.6949    9.0530    3.3851 H         1 RES1    0.0000
     23 H2         7.5744    8.4571    2.5437 H         1 RES1    0.0000
     24 H3         8.5502    7.4825    3.3336 H         1 RES1    0.0000
     25 H4         5.7350   11.6314    5.8613 H         1 RES1    0.0000
     26 H5         5.1555   12.3542    4.6232 H         1 RES1    0.0000
@<TRIPOS>BOND
     1    1   10 1
     2    2   13 2
     3    3   13 2
     4    4   14 2
     5    5   14 2
     6    6   15 2
     7    7   15 2
     8    8   16 2
     9    9   16 2
    10   10   17 2
    11   11    1 1
    12   12   13 1
    13   14   20 1
    14   15   20 1
    15   16   20 1
    16   17   12 1
    17   18   11 2
    18   19   12 1
    19   20   19 1
    20   21   18 1
    21   22   21 1
    22   23   21 1
    23   24   21 1
    24   25   19 1
    25   26   19 1
    26   17   18 1
@<TRIPOS>SUBSTRUCTURE
     1 RES1 1

@<TRIPOS>CRYSIN
  10.1651    9.8338   11.5304  90.0000  97.4810  90.0000  14 1

