# MOL2 file generated by ConQuest
# Please check atom types

@<TRIPOS>MOLECULE
UDIFOC
    32    32     2
SMALL
NO_CHARGES
****
Generated from CSD

@<TRIPOS>ATOM
      1 N1         0.2309    3.6577   11.0090 N.pl3     1 RES1    0.0000
      2 C1        -0.1045    5.3467    8.7354 C.3       1 RES1    0.0000
      3 C2        -0.9934    5.4501    9.9528 C.3       1 RES1    0.0000
      4 C3         0.8172    6.6649    6.7571 C.ar      1 RES1    0.0000
      5 C4         2.0391    7.3015    6.6754 C.ar      1 RES1    0.0000
      6 C5         1.1441    3.4994    9.9006 C.3       1 RES1    0.0000
      7 C6         2.7816    7.2720    5.5147 C.ar      1 RES1    0.0000
      8 C7         1.2468    4.8004    9.1420 C.3       1 RES1    0.0000
      9 C8        -1.0894    4.1442   10.6978 C.3       1 RES1    0.0000
     10 C9         0.0018    6.6863    8.0131 C.3       1 RES1    0.0000
     11 C10        0.3658    6.0005    5.6351 C.ar      1 RES1    0.0000
     12 C11        1.1216    5.9595    4.4790 C.ar      1 RES1    0.0000
     13 C12        2.3180    6.5936    4.4290 C.ar      1 RES1    0.0000
     14 N2         0.6362    3.4846   12.2400 N.2       1 RES1    0.0000
     15 O1         1.6946    3.1869   12.5217 O.2       1 RES1    0.0000
     16 O2         0.0231    3.5626   13.0441 Du        2 SUP2    0.0000
     17 H1        -0.5067    4.7151    8.1381 H         1 RES1    0.0000
     18 H2        -1.8714    5.7446    9.7053 H         1 RES1    0.0000
     19 H3        -0.6143    6.1153   10.5275 H         1 RES1    0.0000
     20 H4         2.3678    7.8027    7.4226 H         1 RES1    0.0000
     21 H5         0.7662    2.8325    9.3260 H         1 RES1    0.0000
     22 H6         2.0063    3.1951   10.1868 H         1 RES1    0.0000
     23 H7         3.6316    7.7141    5.5147 H         1 RES1    0.0000
     24 H8         1.6806    5.4484    9.6985 H         1 RES1    0.0000
     25 H9         1.7876    4.6650    8.3629 H         1 RES1    0.0000
     26 H10       -1.5512    4.2935   11.5223 H         1 RES1    0.0000
     27 H11       -1.5864    3.5043   10.1845 H         1 RES1    0.0000
     28 H12        0.3876    7.3220    8.6173 H         1 RES1    0.0000
     29 H13       -0.8756    6.9972    7.7837 H         1 RES1    0.0000
     30 H14       -0.4891    5.5666    5.6328 H         1 RES1    0.0000
     31 H15        0.7899    5.4607    3.7317 H         1 RES1    0.0000
     32 H16        2.8363    6.6018    3.6227 H         1 RES1    0.0000
@<TRIPOS>BOND
     1    1    6 1
     2    2    3 1
     3    3    9 1
     4    4    5 ar
     5    5    7 ar
     6    6    8 1
     7    7   13 ar
     8    8    2 1
     9    9    1 1
    10   10    2 1
    11   11    4 ar
    12   12   11 ar
    13   13   12 ar
    14   14    1 1
    15   15   14 2
    16   17    2 1
    17   18    3 1
    18   19    3 1
    19   20    5 1
    20   21    6 1
    21   22    6 1
    22   23    7 1
    23   24    8 1
    24   25    8 1
    25   26    9 1
    26   27    9 1
    27   28   10 1
    28   29   10 1
    29   30   11 1
    30   31   12 1
    31   32   13 1
    32    4   10 1
@<TRIPOS>SUBSTRUCTURE
     1 RES1 1
     2 SUP2 16

@<TRIPOS>CRYSIN
   6.0760    8.2030   22.7130  90.0000  90.0000  90.0000  19 1

