# MOL2 file generated by ConQuest
# Please check atom types

@<TRIPOS>MOLECULE
UDIGUJ
    25    26     1
SMALL
NO_CHARGES
****
Generated from CSD

@<TRIPOS>ATOM
      1 C1        -2.5969    5.8694    4.8729 C.3       1 RES1    0.0000
      2 C2        -2.1275    6.0661    3.4367 C.3       1 RES1    0.0000
      3 N1        -1.0601    5.1297    3.0966 N.pl3     1 RES1    0.0000
      4 C3        -1.2149    3.7243    3.4405 C.3       1 RES1    0.0000
      5 C4        -1.7337    3.5576    4.8742 C.3       1 RES1    0.0000
      6 C5        -0.6895    3.9159    5.9291 C.3       1 RES1    0.0000
      7 C6        -0.3347    5.3963    5.9639 C.3       1 RES1    0.0000
      8 C7        -1.5655    6.2897    5.9188 C.3       1 RES1    0.0000
      9 C8        -2.9718    4.4061    5.0751 C.3       1 RES1    0.0000
     10 N2        -0.0018    5.6508    2.5015 N.2       1 RES1    0.0000
     11 O1         0.8882    4.8483    2.2220 O.2       1 RES1    0.0000
     12 H1        -3.3406    6.3885    4.9849 H         1 RES1    0.0000
     13 H2        -1.7191    6.9075    3.2331 H         1 RES1    0.0000
     14 H3        -2.8712    5.8694    2.7823 H         1 RES1    0.0000
     15 H4        -0.3170    3.3340    3.2975 H         1 RES1    0.0000
     16 H5        -1.8654    3.3739    2.8725 H         1 RES1    0.0000
     17 H6        -1.9690    2.5953    4.9798 H         1 RES1    0.0000
     18 H7         0.1402    3.4238    5.7965 H         1 RES1    0.0000
     19 H8        -1.0729    3.6534    6.8012 H         1 RES1    0.0000
     20 H9         0.2682    5.6298    5.2039 H         1 RES1    0.0000
     21 H10        0.1097    5.5799    6.7754 H         1 RES1    0.0000
     22 H11       -1.9568    6.2288    6.8269 H         1 RES1    0.0000
     23 H12       -1.3655    7.2170    5.7243 H         1 RES1    0.0000
     24 H13       -3.6576    4.1325    4.4530 H         1 RES1    0.0000
     25 H14       -3.4077    4.2224    6.0025 H         1 RES1    0.0000
@<TRIPOS>BOND
     1    1    2 1
     2    2    3 1
     3    3    4 1
     4    4    5 1
     5    5    6 1
     6    6    7 1
     7    7    8 1
     8    8    1 1
     9    9    1 1
    10   10    3 1
    11   11   10 2
    12   12    1 1
    13   13    2 1
    14   14    2 1
    15   15    4 1
    16   16    4 1
    17   17    5 1
    18   18    6 1
    19   19    6 1
    20   20    7 1
    21   21    7 1
    22   22    8 1
    23   23    8 1
    24   24    9 1
    25   25    9 1
    26    5    9 1
@<TRIPOS>SUBSTRUCTURE
     1 RES1 1

@<TRIPOS>CRYSIN
   6.0960    9.9820   12.8810  90.0000  90.0000  90.0000  19 1

