# MOL2 file generated by ConQuest
# Please check atom types

@<TRIPOS>MOLECULE
UDOQUC
    17    18     1
SMALL
NO_CHARGES
****
Generated from CSD

@<TRIPOS>ATOM
      1 C1         8.7080    2.7337    5.5181 C.2       1 RES1    0.0000
      2 C2         8.2495    3.2227    4.2828 C.2       1 RES1    0.0000
      3 C3         8.2237    6.0033    2.1774 C.2       1 RES1    0.0000
      4 C4         8.4847    4.4516    3.5145 C.2       1 RES1    0.0000
      5 N1         8.1622    1.6031    5.8191 N.2       1 RES1    0.0000
      6 N2         7.3781    2.3491    3.8183 N.2       1 RES1    0.0000
      7 N3         9.6890    3.3031    6.4178 N.pl3     1 RES1    0.0000
      8 N4         9.6321    5.1161    3.3732 N.pl3     1 RES1    0.0000
      9 H1        10.3416    5.0105    3.7132 H         1 RES1    0.0000
     10 N5         9.4945    6.1260    2.4974 N.2       1 RES1    0.0000
     11 N6         7.5442    5.0092    2.7595 N.2       1 RES1    0.0000
     12 N7         7.5786    6.9004    1.2478 N.pl3     1 RES1    0.0000
     13 O1         7.3329    1.3448    4.7599 O.3       1 RES1    0.0000
     14 O2        10.4361    4.1311    5.9065 O.2       1 RES1    0.0000
     15 O3         9.7221    2.9291    7.5694 O.2       1 RES1    0.0000
     16 O4         6.3693    6.8151    1.1590 O.2       1 RES1    0.0000
     17 O5         8.2711    7.6714    0.6158 O.2       1 RES1    0.0000
@<TRIPOS>BOND
     1    1    2 1
     2    2    4 1
     3    3   10 2
     4    4    8 1
     5    5    1 2
     6    6    2 2
     7    7    1 1
     8    8    9 1
     9   10    8 1
    10   11    3 1
    11   12    3 1
    12   13    5 1
    13   14    7 2
    14   15    7 2
    15   16   12 2
    16   17   12 2
    17    4   11 2
    18    6   13 1
@<TRIPOS>SUBSTRUCTURE
     1 RES1 1

@<TRIPOS>CRYSIN
   9.9248   12.4951   13.0059  90.0000  90.0000  90.0000  61 1

