# MOL2 file generated by ConQuest
# Please check atom types

@<TRIPOS>MOLECULE
UDOZUJ
    18    18     1
SMALL
NO_CHARGES
****
Generated from CSD

@<TRIPOS>ATOM
      1 N1         2.4035   -1.1809    1.1298 N.pl3     1 RES1    0.0000
      2 N2         2.0223   -2.2810    0.2955 N.3       1 RES1    0.0000
      3 O1         1.4865   -0.4164    1.4644 O.2       1 RES1    0.0000
      4 O2         3.2512   -2.9240   -0.0191 O.3       1 RES1    0.0000
      5 C1         3.6756   -1.2453    1.4503 C.2       1 RES1    0.0000
      6 C2         4.2744   -2.3362    0.7026 C.2       1 RES1    0.0000
      7 O3         5.3724   -2.7816    0.6529 O.2       1 RES1    0.0000
      8 C3         4.2960   -0.3196    2.4184 C.2       1 RES1    0.0000
      9 O4         3.6824    0.5437    2.9928 O.2       1 RES1    0.0000
     10 O5         5.5798   -0.5776    2.5379 O.3       1 RES1    0.0000
     11 C4         6.2998    0.2740    3.4757 C.3       1 RES1    0.0000
     12 H1         7.2246    0.0189    3.4944 H         1 RES1    0.0000
     13 H2         5.9223    0.1748    4.3528 H         1 RES1    0.0000
     14 H3         6.2253    1.1901    3.1980 H         1 RES1    0.0000
     15 C5         1.3805   -1.8409   -0.9475 C.3       1 RES1    0.0000
     16 H4         0.5945   -1.2797   -0.7524 H         1 RES1    0.0000
     17 H5         2.0090   -1.2821   -1.4165 H         1 RES1    0.0000
     18 H6         1.0926   -2.6509   -1.4287 H         1 RES1    0.0000
@<TRIPOS>BOND
     1    1    2 1
     2    2    4 1
     3    3    1 2
     4    4    6 1
     5    5    1 2
     6    6    5 1
     7    7    6 2
     8    8    5 1
     9    9    8 2
    10   10    8 1
    11   11   10 1
    12   12   11 1
    13   13   11 1
    14   14   11 1
    15   15    2 1
    16   16   15 1
    17   17   15 1
    18   18   15 1
@<TRIPOS>SUBSTRUCTURE
     1 RES1 1

@<TRIPOS>CRYSIN
  31.4450    4.8418    9.4870  90.0000  98.5700  90.0000  15 1

