# MOL2 file generated by ConQuest
# Please check atom types

@<TRIPOS>MOLECULE
UDUGIM
    44    48     1
SMALL
NO_CHARGES
****
Generated from CSD

@<TRIPOS>ATOM
      1 O1         3.4048    6.2117    3.6282 O.3       1 RES1    0.0000
      2 N1         5.1069    6.3227    5.2029 N.3       1 RES1    0.0000
      3 N2         3.2485    7.6699    3.8114 N.3       1 RES1    0.0000
      4 C1         4.3707    7.8091    1.1699 C.ar      1 RES1    0.0000
      5 C2         5.1961    8.1018    2.2634 C.ar      1 RES1    0.0000
      6 C3         6.5615    8.3154    2.0575 C.ar      1 RES1    0.0000
      7 H1         7.1065    8.5274    2.7802 H         1 RES1    0.0000
      8 C4         6.3052    7.8888   -0.2993 C.ar      1 RES1    0.0000
      9 H2         6.6717    7.7940   -1.1492 H         1 RES1    0.0000
     10 C5         5.4380    7.5814    4.7544 C.2       1 RES1    0.0000
     11 C6         6.9135    6.9389    6.3407 C.2       1 RES1    0.0000
     12 C7         4.9533    7.7074   -0.1020 C.ar      1 RES1    0.0000
     13 H3         4.4119    7.5121   -0.8328 H         1 RES1    0.0000
     14 C8         2.8193    5.7987    5.9640 C.3       1 RES1    0.0000
     15 H4         2.6985    6.7260    6.1808 H         1 RES1    0.0000
     16 H5         3.1258    5.3256    6.7410 H         1 RES1    0.0000
     17 H6         1.9840    5.4269    5.6717 H         1 RES1    0.0000
     18 C9         4.6063    8.2258    3.6779 C.3       1 RES1    0.0000
     19 H7         4.5514    9.1816    3.8866 H         1 RES1    0.0000
     20 C10        7.3282    4.3992    7.5645 C.3       1 RES1    0.0000
     21 H8         7.2557    3.6740    8.2046 H         1 RES1    0.0000
     22 H9         7.9680    4.1341    6.8852 H         1 RES1    0.0000
     23 C11        5.9945    5.9347    6.1792 C.2       1 RES1    0.0000
     24 C12        7.1188    8.2150    0.7828 C.ar      1 RES1    0.0000
     25 H10        8.0277    8.3651    0.6568 H         1 RES1    0.0000
     26 C13        3.8456    5.6685    4.8554 C.3       1 RES1    0.0000
     27 H11        4.0260    4.7149    4.7184 H         1 RES1    0.0000
     28 C14        2.8918    7.5890    1.3418 C.3       1 RES1    0.0000
     29 H12        2.6985    6.6430    1.2477 H         1 RES1    0.0000
     30 H13        2.4165    8.0609    0.6401 H         1 RES1    0.0000
     31 C15        5.9659    4.6294    6.9092 C.3       1 RES1    0.0000
     32 H14        5.7708    3.9086    6.2899 H         1 RES1    0.0000
     33 H15        5.2716    4.6453    7.5865 H         1 RES1    0.0000
     34 C16        8.0406    6.8361    7.3256 C.3       1 RES1    0.0000
     35 H16        8.0909    7.6532    7.8459 H         1 RES1    0.0000
     36 H17        8.8788    6.7323    6.8479 H         1 RES1    0.0000
     37 C17        6.5553    7.9865    5.4399 C.2       1 RES1    0.0000
     38 H18        6.9992    8.7973    5.3364 H         1 RES1    0.0000
     39 C18        2.3883    8.0693    2.6959 C.3       1 RES1    0.0000
     40 H19        2.3222    9.0369    2.6816 H         1 RES1    0.0000
     41 H20        1.4976    7.7146    2.8439 H         1 RES1    0.0000
     42 C19        7.8376    5.6372    8.2708 C.3       1 RES1    0.0000
     43 H21        8.6816    5.4292    8.7016 H         1 RES1    0.0000
     44 H22        7.2059    5.8865    8.9638 H         1 RES1    0.0000
@<TRIPOS>BOND
     1    1    3 1
     2    2   10 1
     3    3   18 1
     4    4    5 ar
     5    5    6 ar
     6    6    7 1
     7    8    9 1
     8   10   18 1
     9   11   23 2
    10   12    4 ar
    11   13   12 1
    12   14   15 1
    13   16   14 1
    14   17   14 1
    15   18    5 1
    16   19   18 1
    17   20   21 1
    18   22   20 1
    19   23    2 1
    20   24    6 ar
    21   25   24 1
    22   26    1 1
    23   27   26 1
    24   28    4 1
    25   29   28 1
    26   30   28 1
    27   31   20 1
    28   32   31 1
    29   33   31 1
    30   34   11 1
    31   35   34 1
    32   36   34 1
    33   37   10 2
    34   38   37 1
    35   39    3 1
    36   40   39 1
    37   41   39 1
    38   42   20 1
    39   43   42 1
    40   44   42 1
    41    2   26 1
    42    8   12 ar
    43    8   24 ar
    44   11   37 1
    45   14   26 1
    46   23   31 1
    47   28   39 1
    48   34   42 1
@<TRIPOS>SUBSTRUCTURE
     1 RES1 1

@<TRIPOS>CRYSIN
   8.5732   18.8686    9.5700  90.0000  99.3590  90.0000  14 1

