# MOL2 file generated by ConQuest
# Please check atom types

@<TRIPOS>MOLECULE
UDUQUG
    18    18     1
SMALL
NO_CHARGES
****
Generated from CSD

@<TRIPOS>ATOM
      1 N1         2.5226   13.2951    8.2110 N.pl3     1 RES1    0.0000
      2 C1         2.7305   14.4618    9.0753 C.3       1 RES1    0.0000
      3 H1         2.1417   15.1910    8.8385 H         1 RES1    0.0000
      4 H2         3.6292   14.7499    9.0136 H         1 RES1    0.0000
      5 H3         2.5276   14.2163    9.9673 H         1 RES1    0.0000
      6 C2         2.9554   13.1586    6.9185 C.2       1 RES1    0.0000
      7 O1         3.6805   14.1406    6.3786 O.3       1 RES1    0.0000
      8 C3         4.0595   13.8952    4.9963 C.3       1 RES1    0.0000
      9 H4         3.2634   13.8646    4.4534 H         1 RES1    0.0000
     10 H5         4.5665   13.0627    4.9600 H         1 RES1    0.0000
     11 H6         4.6236   14.6604    4.7430 H         1 RES1    0.0000
     12 N2         2.5934   12.0356    6.3500 N.2       1 RES1    0.0000
     13 C4         1.8791   11.4191    7.3532 C.2       1 RES1    0.0000
     14 N3         1.2883   10.1429    7.1323 N.pl3     1 RES1    0.0000
     15 O2         1.4782    9.5828    6.0483 O.2       1 RES1    0.0000
     16 O3         0.6060    9.6544    8.0490 O.2       1 RES1    0.0000
     17 C5         1.8176   12.1562    8.5080 C.2       1 RES1    0.0000
     18 H7         1.4354   11.9908    9.3484 H         1 RES1    0.0000
@<TRIPOS>BOND
     1    1    2 1
     2    2    3 1
     3    4    2 1
     4    5    2 1
     5    6    1 1
     6    7    6 1
     7    8    7 1
     8    9    8 1
     9   10    8 1
    10   11    8 1
    11   12    6 2
    12   13   12 1
    13   14   13 1
    14   15   14 2
    15   16   14 2
    16   17    1 1
    17   18   17 1
    18   13   17 2
@<TRIPOS>SUBSTRUCTURE
     1 RES1 1

@<TRIPOS>CRYSIN
   3.9935   15.4223   11.1724  90.0000  99.7100  90.0000  14 1

