# MOL2 file generated by ConQuest
# Please check atom types

@<TRIPOS>MOLECULE
UDUROB
    60    63     1
SMALL
NO_CHARGES
****
Generated from CSD

@<TRIPOS>ATOM
      1 O1         2.9522    6.3386    9.3160 O.2       1 RES1    0.0000
      2 O2         0.8562    5.7235    8.7879 O.3       1 RES1    0.0000
      3 O3        -2.7126    2.2408    9.9275 O.2       1 RES1    0.0000
      4 O4        -2.2890    0.4198   11.0117 O.2       1 RES1    0.0000
      5 O5        -0.4067    2.3392    5.7531 O.2       1 RES1    0.0000
      6 O6         1.1010    1.3504    4.4059 O.3       1 RES1    0.0000
      7 O7         3.5133   -0.4609    2.3795 O.2       1 RES1    0.0000
      8 O8         0.0351   -2.4461    4.5912 O.2       1 RES1    0.0000
      9 N1         4.1581    3.2613    6.5979 N.3       1 RES1    0.0000
     10 N2        -1.9434    1.3659   10.3087 N.pl3     1 RES1    0.0000
     11 N3         1.5442   -1.2289    3.3383 N.am      1 RES1    0.0000
     12 C1         5.0483    5.0761    7.9379 C.3       1 RES1    0.0000
     13 H1         4.8809    6.0102    7.7943 H         1 RES1    0.0000
     14 H2         5.8225    4.8085    7.4370 H         1 RES1    0.0000
     15 H3         5.2020    4.9181    8.8715 H         1 RES1    0.0000
     16 C2         3.8589    4.2783    7.4845 C.2       1 RES1    0.0000
     17 C3         2.5708    4.4723    7.8475 C.2       1 RES1    0.0000
     18 C4         1.4799    3.5074    7.4129 C.3       1 RES1    0.0000
     19 H4         0.6829    4.0324    7.1887 H         1 RES1    0.0000
     20 C5         1.8948    2.7317    6.1711 C.2       1 RES1    0.0000
     21 C6         3.2039    2.5814    5.8554 C.2       1 RES1    0.0000
     22 C7         3.7994    1.7415    4.7659 C.3       1 RES1    0.0000
     23 H5         3.6011    0.8170    4.9306 H         1 RES1    0.0000
     24 H6         4.7507    1.8664    4.7484 H         1 RES1    0.0000
     25 H7         3.4266    2.0023    3.9213 H         1 RES1    0.0000
     26 C8         2.2032    5.5953    8.7146 C.2       1 RES1    0.0000
     27 C9         0.3678    6.8243    9.5879 C.3       1 RES1    0.0000
     28 H8         0.5673    6.6618   10.5132 H         1 RES1    0.0000
     29 H9        -0.5821    6.9041    9.4753 H         1 RES1    0.0000
     30 H10        0.7931    7.6375    9.3074 H         1 RES1    0.0000
     31 C10        1.1047    2.5308    8.5314 C.ar      1 RES1    0.0000
     32 C11       -0.2136    2.4077    8.9426 C.ar      1 RES1    0.0000
     33 H11       -0.8737    2.9519    8.5785 H         1 RES1    0.0000
     34 C12       -0.5341    1.4643    9.9028 C.ar      1 RES1    0.0000
     35 C13        0.4025    0.6252   10.4820 C.ar      1 RES1    0.0000
     36 H12        0.1563   -0.0147   11.1099 H         1 RES1    0.0000
     37 C14        1.7190    0.7760   10.0888 C.ar      1 RES1    0.0000
     38 H13        2.3796    0.2456   10.4722 H         1 RES1    0.0000
     39 C15        2.0600    1.7138    9.1254 C.ar      1 RES1    0.0000
     40 H14        2.9508    1.7976    8.8697 H         1 RES1    0.0000
     41 C16        0.7564    2.1418    5.4499 C.2       1 RES1    0.0000
     42 C17        0.0080    0.6498    3.7665 C.3       1 RES1    0.0000
     43 H15       -0.5915    1.2803    3.3371 H         1 RES1    0.0000
     44 H16       -0.4964    0.1424    4.4215 H         1 RES1    0.0000
     45 C18        0.6145   -0.2769    2.7406 C.3       1 RES1    0.0000
     46 H17       -0.0943   -0.7629    2.2920 H         1 RES1    0.0000
     47 H18        1.0828    0.2489    2.0741 H         1 RES1    0.0000
     48 C19        2.9322   -1.1881    3.1549 C.2       1 RES1    0.0000
     49 C20        3.4918   -2.1927    4.0942 C.ar      1 RES1    0.0000
     50 C21        4.8056   -2.5088    4.3761 C.ar      1 RES1    0.0000
     51 H19        5.5084   -2.1022    3.9230 H         1 RES1    0.0000
     52 C22        5.0371   -3.4591    5.3661 C.ar      1 RES1    0.0000
     53 H20        5.9102   -3.6935    5.5826 H         1 RES1    0.0000
     54 C23        3.9836   -4.0616    6.0335 C.ar      1 RES1    0.0000
     55 H21        4.1669   -4.6955    6.6885 H         1 RES1    0.0000
     56 C24        2.6628   -3.7459    5.7515 C.ar      1 RES1    0.0000
     57 H22        1.9588   -4.1536    6.2008 H         1 RES1    0.0000
     58 C25        2.4412   -2.7972    4.7720 C.ar      1 RES1    0.0000
     59 C26        1.1760   -2.1958    4.2741 C.2       1 RES1    0.0000
     60 H23        5.0188    3.1729    6.3919 H         1 RES1    0.0000
@<TRIPOS>BOND
     1    1   26 2
     2    2   26 1
     3    3   10 2
     4    4   10 2
     5    5   41 2
     6    6   41 1
     7    7   48 2
     8    8   59 2
     9    9   16 1
    10   10   34 1
    11   11   45 1
    12   12   13 1
    13   14   12 1
    14   15   12 1
    15   16   12 1
    16   17   16 2
    17   18   17 1
    18   19   18 1
    19   20   18 1
    20   21    9 1
    21   22   21 1
    22   23   22 1
    23   24   22 1
    24   25   22 1
    25   26   17 1
    26   27    2 1
    27   28   27 1
    28   29   27 1
    29   30   27 1
    30   31   18 1
    31   32   31 ar
    32   33   32 1
    33   34   32 ar
    34   35   34 ar
    35   36   35 1
    36   37   35 ar
    37   38   37 1
    38   39   31 ar
    39   40   39 1
    40   41   20 1
    41   42    6 1
    42   43   42 1
    43   44   42 1
    44   45   42 1
    45   46   45 1
    46   47   45 1
    47   48   11 1
    48   49   48 1
    49   50   49 ar
    50   51   50 1
    51   52   50 ar
    52   53   52 1
    53   54   52 ar
    54   55   54 1
    55   56   54 ar
    56   57   56 1
    57   58   49 ar
    58   59   11 1
    59   60    9 1
    60   20   21 2
    61   37   39 ar
    62   56   58 ar
    63   58   59 1
@<TRIPOS>SUBSTRUCTURE
     1 RES1 1

@<TRIPOS>CRYSIN
   7.7713   16.3720   17.9450  90.0000  95.4300  90.0000 231 1

