# MOL2 file generated by ConQuest
# Please check atom types

@<TRIPOS>MOLECULE
UFAJOB
    32    34     1
SMALL
NO_CHARGES
****
Generated from CSD

@<TRIPOS>ATOM
      1 O1         2.8035   14.0921    8.1107 O.3       1 RES1    0.0000
      2 N1         2.2391    9.9793   12.2737 N.2       1 RES1    0.0000
      3 N2         2.8026   11.5211   10.7798 N.pl3     1 RES1    0.0000
      4 N3         3.2056   12.8754    7.5905 N.2       1 RES1    0.0000
      5 C1         1.1121   10.3586   11.5684 C.ar      1 RES1    0.0000
      6 C2        -0.1978    9.9263   11.6830 C.ar      1 RES1    0.0000
      7 C3        -1.1167   10.4714   10.8667 C.ar      1 RES1    0.0000
      8 C4        -0.7883   11.4488    9.9308 C.ar      1 RES1    0.0000
      9 C5         0.5047   11.9093    9.7923 C.ar      1 RES1    0.0000
     10 C6         1.4498   11.3303   10.6312 C.ar      1 RES1    0.0000
     11 C7         3.2019   10.6870   11.7611 C.2       1 RES1    0.0000
     12 C8         3.6469   12.4172    9.9598 C.3       1 RES1    0.0000
     13 C9         3.5872   12.0605    8.5276 C.2       1 RES1    0.0000
     14 C10        3.9277   10.6825    8.0716 C.ar      1 RES1    0.0000
     15 C11        4.8672    9.9240    8.7203 C.ar      1 RES1    0.0000
     16 C12        5.1583    8.6261    8.2656 C.ar      1 RES1    0.0000
     17 C13        4.5313    8.1205    7.1811 C.ar      1 RES1    0.0000
     18 C14        3.5965    8.8665    6.5374 C.ar      1 RES1    0.0000
     19 C15        3.2812   10.1317    6.9833 C.ar      1 RES1    0.0000
     20 H1         2.4350   14.5368    7.4570 H         1 RES1    0.0000
     21 H2        -0.4348    9.2773   12.3052 H         1 RES1    0.0000
     22 H3        -2.0002   10.1870   10.9297 H         1 RES1    0.0000
     23 H4        -1.4563   11.7998    9.3854 H         1 RES1    0.0000
     24 H5         0.7305   12.5673    9.1763 H         1 RES1    0.0000
     25 H6         4.0770   10.7333   12.0798 H         1 RES1    0.0000
     26 H7         5.3122   10.2683    9.4610 H         1 RES1    0.0000
     27 H8         5.7880    8.1115    8.7166 H         1 RES1    0.0000
     28 H9         4.7385    7.2672    6.8763 H         1 RES1    0.0000
     29 H10        3.1655    8.5212    5.7892 H         1 RES1    0.0000
     30 H11        2.6235   10.6215    6.5450 H         1 RES1    0.0000
     31 H12        4.5155   12.2795   10.2911 H         1 RES1    0.0000
     32 H13        3.3679   13.3178   10.1525 H         1 RES1    0.0000
@<TRIPOS>BOND
     1    1    4 1
     2    2    5 1
     3    3   10 1
     4    4   13 2
     5    5    6 ar
     6    6    7 ar
     7    7    8 ar
     8    8    9 ar
     9    9   10 ar
    10   10    5 ar
    11   11    2 2
    12   12    3 1
    13   13   12 1
    14   14   13 1
    15   15   14 ar
    16   16   15 ar
    17   17   16 ar
    18   18   17 ar
    19   19   14 ar
    20   20    1 1
    21   21    6 1
    22   22    7 1
    23   23    8 1
    24   24    9 1
    25   25   11 1
    26   26   15 1
    27   27   16 1
    28   28   17 1
    29   29   18 1
    30   30   19 1
    31   31   12 1
    32   32   12 1
    33    3   11 1
    34   18   19 ar
@<TRIPOS>SUBSTRUCTURE
     1 RES1 1

@<TRIPOS>CRYSIN
   9.3295   11.2863   12.5962  90.0000  90.0000  90.0000  33 1

