# MOL2 file generated by ConQuest
# Please check atom types

@<TRIPOS>MOLECULE
UFEFAM
    33    35     1
SMALL
NO_CHARGES
****
Generated from CSD

@<TRIPOS>ATOM
      1 O1         6.3959   -1.6135    0.9020 O.3       1 RES1    0.0000
      2 O2         4.2525   -0.5314   -4.1101 O.2       1 RES1    0.0000
      3 O3         5.1967   -2.1352   -2.9909 O.2       1 RES1    0.0000
      4 N1         5.9772   -1.7788   -0.4148 N.2       1 RES1    0.0000
      5 N2         6.2248   -0.3359    1.3503 N.2       1 RES1    0.0000
      6 N3         5.3467    2.5326    1.3371 N.3       1 RES1    0.0000
      7 N4         4.7924   -0.9828   -3.0873 N.pl3     1 RES1    0.0000
      8 C1         5.5418   -0.5832   -0.7652 C.2       1 RES1    0.0000
      9 C2         5.7004    0.3272    0.3434 C.2       1 RES1    0.0000
     10 C3         5.2731    1.7032    0.2834 C.2       1 RES1    0.0000
     11 C4         4.7097    2.0812   -0.9516 C.2       1 RES1    0.0000
     12 H1         4.4218    2.9582   -1.0590 H         1 RES1    0.0000
     13 C5         4.5660    1.2031   -2.0122 C.2       1 RES1    0.0000
     14 H2         4.1781    1.5207   -2.7967 H         1 RES1    0.0000
     15 C6         4.9678   -0.1156   -1.9710 C.2       1 RES1    0.0000
     16 C7         4.6226    3.8114    1.3260 C.3       1 RES1    0.0000
     17 H3         4.3218    4.0101    2.2269 H         1 RES1    0.0000
     18 H4         3.8368    3.7228    0.7652 H         1 RES1    0.0000
     19 C8         5.4594    4.9735    0.8219 C.3       1 RES1    0.0000
     20 H5         5.9275    4.6927    0.0194 H         1 RES1    0.0000
     21 H6         4.8655    5.6993    0.5743 H         1 RES1    0.0000
     22 C9         6.4769    5.4973    1.8183 C.3       1 RES1    0.0000
     23 H7         7.0185    6.1723    1.3812 H         1 RES1    0.0000
     24 H8         6.0021    5.9293    2.5447 H         1 RES1    0.0000
     25 C10        7.3960    4.4443    2.4030 C.3       1 RES1    0.0000
     26 H9         8.0769    4.8849    2.9355 H         1 RES1    0.0000
     27 H10        7.8446    3.9831    1.6765 H         1 RES1    0.0000
     28 C11        6.6821    3.4139    3.2726 C.3       1 RES1    0.0000
     29 H11        7.3047    3.1007    3.9468 H         1 RES1    0.0000
     30 H12        5.9540    3.8578    3.7335 H         1 RES1    0.0000
     31 C12        6.1235    2.2140    2.5491 C.3       1 RES1    0.0000
     32 H13        6.8584    1.6319    2.3015 H         1 RES1    0.0000
     33 H14        5.5534    1.7216    3.1622 H         1 RES1    0.0000
@<TRIPOS>BOND
     1    1    4 1
     2    2    7 2
     3    3    7 2
     4    4    8 2
     5    5    1 1
     6    6   10 1
     7    7   15 1
     8    8    9 1
     9    9    5 2
    10   10    9 1
    11   11   10 2
    12   12   11 1
    13   13   11 1
    14   14   13 1
    15   15    8 1
    16   16    6 1
    17   17   16 1
    18   18   16 1
    19   19   16 1
    20   20   19 1
    21   21   19 1
    22   22   19 1
    23   23   22 1
    24   24   22 1
    25   25   22 1
    26   26   25 1
    27   27   25 1
    28   28   25 1
    29   29   28 1
    30   30   28 1
    31   31    6 1
    32   32   31 1
    33   33   31 1
    34   13   15 2
    35   28   31 1
@<TRIPOS>SUBSTRUCTURE
     1 RES1 1

@<TRIPOS>CRYSIN
   7.4909   10.8002   15.1001  90.0000  98.9580  90.0000  14 1

