# MOL2 file generated by ConQuest
# Please check atom types

@<TRIPOS>MOLECULE
UFIXEM
    22    23     1
SMALL
NO_CHARGES
****
Generated from CSD

@<TRIPOS>ATOM
      1 O1         7.2316    4.0875    0.5823 O.3       1 RES1    0.0000
      2 N1         9.6611    8.0979    1.3597 N.1       1 RES1    0.0000
      3 N2         5.9050    4.0029    0.1422 N.2       1 RES1    0.0000
      4 C1         3.1039    4.5815   -0.1708 C.ar      1 RES1    0.0000
      5 H1         3.3203    3.7709    0.2308 H         1 RES1    0.0000
      6 C2         1.7989    4.8221   -0.5394 C.ar      1 RES1    0.0000
      7 H2         1.1423    4.1848   -0.3780 H         1 RES1    0.0000
      8 C3         1.4710    6.0265   -1.1568 C.ar      1 RES1    0.0000
      9 H3         0.5942    6.1958   -1.4168 H         1 RES1    0.0000
     10 C4         2.4563    6.9678   -1.3804 C.ar      1 RES1    0.0000
     11 H4         2.2386    7.7715   -1.7941 H         1 RES1    0.0000
     12 C5         3.7596    6.7300   -0.9967 C.ar      1 RES1    0.0000
     13 H5         4.4117    7.3766   -1.1461 H         1 RES1    0.0000
     14 C6         4.1054    5.5222   -0.3851 C.ar      1 RES1    0.0000
     15 C7         5.4885    5.2580    0.0236 C.2       1 RES1    0.0000
     16 C8         6.5259    6.1676    0.3758 C.2       1 RES1    0.0000
     17 H6         6.4898    7.0968    0.3665 H         1 RES1    0.0000
     18 C9         7.5572    5.4036    0.7195 C.2       1 RES1    0.0000
     19 C10        8.9464    5.6074    1.2389 C.3       1 RES1    0.0000
     20 H7         9.0099    5.2257    2.1285 H         1 RES1    0.0000
     21 H8         9.5700    5.1325    0.6673 H         1 RES1    0.0000
     22 C11        9.3327    7.0116    1.2968 C.1       1 RES1    0.0000
@<TRIPOS>BOND
     1    1    3 1
     2    2   22 3
     3    3   15 2
     4    4    5 1
     5    6    4 ar
     6    7    6 1
     7    8    6 ar
     8    9    8 1
     9   10    8 ar
    10   11   10 1
    11   12   10 ar
    12   13   12 1
    13   14    4 ar
    14   15   14 1
    15   16   15 1
    16   17   16 1
    17   18    1 1
    18   19   18 1
    19   20   19 1
    20   21   19 1
    21   22   19 1
    22   12   14 ar
    23   16   18 2
@<TRIPOS>SUBSTRUCTURE
     1 RES1 1

@<TRIPOS>CRYSIN
  21.7371    5.7571    7.1457  90.0000  90.8230  90.0000  14 1

