# MOL2 file generated by ConQuest
# Please check atom types

@<TRIPOS>MOLECULE
UFOHEE
    47    50     1
SMALL
NO_CHARGES
****
Generated from CSD

@<TRIPOS>ATOM
      1 C1         1.4359    2.9933    1.8031 C.3       1 RES1    0.0000
      2 H1         1.5136    3.3913    2.7169 H         1 RES1    0.0000
      3 C2         0.0543    3.2886    1.2188 C.3       1 RES1    0.0000
      4 H2        -0.1300    4.2587    1.2954 H         1 RES1    0.0000
      5 H3         0.0516    3.0540    0.2569 H         1 RES1    0.0000
      6 C3        -1.0443    2.5151    1.9242 C.3       1 RES1    0.0000
      7 H4        -1.8736    2.5717    1.3687 H         1 RES1    0.0000
      8 C4        -0.6855    1.0277    2.1086 C.3       1 RES1    0.0000
      9 H5        -1.3462    0.6348    2.7485 H         1 RES1    0.0000
     10 C5         2.5565    3.4908    0.9256 C.ar      1 RES1    0.0000
     11 C6         2.8586    2.8335   -0.2668 C.ar      1 RES1    0.0000
     12 H6         2.3520    2.0732   -0.5287 H         1 RES1    0.0000
     13 C7         3.8945    3.2838   -1.0724 C.ar      1 RES1    0.0000
     14 H7         4.1042    2.8211   -1.8754 H         1 RES1    0.0000
     15 C8         4.6218    4.4010   -0.7131 C.ar      1 RES1    0.0000
     16 H8         5.3249    4.7122   -1.2710 H         1 RES1    0.0000
     17 C9         4.3221    5.0645    0.4641 C.ar      1 RES1    0.0000
     18 H9         4.8187    5.8356    0.7139 H         1 RES1    0.0000
     19 C10        3.2958    4.6052    1.2820 C.ar      1 RES1    0.0000
     20 H10        3.1011    5.0594    2.0929 H         1 RES1    0.0000
     21 C11       -0.8134    0.2630    0.7853 C.ar      1 RES1    0.0000
     22 C12       -2.0613    0.2485    0.1592 C.ar      1 RES1    0.0000
     23 H11       -2.7989    0.6834    0.5705 H         1 RES1    0.0000
     24 C13       -2.2343   -0.3968   -1.0590 C.ar      1 RES1    0.0000
     25 H12       -3.0808   -0.3799   -1.4893 H         1 RES1    0.0000
     26 C14       -1.1768   -1.0605   -1.6429 C.ar      1 RES1    0.0000
     27 H13       -1.2943   -1.4988   -2.4782 H         1 RES1    0.0000
     28 C15        0.0540   -1.0900   -1.0141 C.ar      1 RES1    0.0000
     29 H14        0.7762   -1.5649   -1.4097 H         1 RES1    0.0000
     30 C16        0.2394   -0.4274    0.1946 C.ar      1 RES1    0.0000
     31 H15        1.0896   -0.4470    0.6186 H         1 RES1    0.0000
     32 C17        1.1329   -0.1614    3.3607 C.ar      1 RES1    0.0000
     33 C18        0.2806   -1.1610    3.8343 C.ar      1 RES1    0.0000
     34 H16       -0.6532   -1.1071    3.6696 H         1 RES1    0.0000
     35 C19        0.8004   -2.2361    4.5490 C.ar      1 RES1    0.0000
     36 H17        0.2124   -2.9016    4.8862 H         1 RES1    0.0000
     37 C20        2.1548   -2.3498    4.7744 C.ar      1 RES1    0.0000
     38 H18        2.5025   -3.0885    5.2605 H         1 RES1    0.0000
     39 C21        2.9999   -1.3743    4.2811 C.ar      1 RES1    0.0000
     40 H19        3.9362   -1.4549    4.4182 H         1 RES1    0.0000
     41 C22        2.5049   -0.2782    3.5900 C.ar      1 RES1    0.0000
     42 H20        3.0990    0.3928    3.2733 H         1 RES1    0.0000
     43 N1         0.6220    1.0189    2.7638 N.3       1 RES1    0.0000
     44 N2        -1.3515    3.0932    3.3038 N.pl3     1 RES1    0.0000
     45 O1         1.6135    1.5619    1.8706 O.3       1 RES1    0.0000
     46 O2        -2.1323    2.4729    4.0142 O.2       1 RES1    0.0000
     47 O3        -0.8417    4.1510    3.6309 O.2       1 RES1    0.0000
@<TRIPOS>BOND
     1    1    2 1
     2    3    1 1
     3    4    3 1
     4    5    3 1
     5    6    3 1
     6    7    6 1
     7    8    6 1
     8    9    8 1
     9   10    1 1
    10   11   10 ar
    11   12   11 1
    12   13   11 ar
    13   14   13 1
    14   15   13 ar
    15   16   15 1
    16   17   15 ar
    17   18   17 1
    18   19   10 ar
    19   20   19 1
    20   21    8 1
    21   22   21 ar
    22   23   22 1
    23   24   22 ar
    24   25   24 1
    25   26   24 ar
    26   27   26 1
    27   28   26 ar
    28   29   28 1
    29   30   21 ar
    30   31   30 1
    31   32   33 ar
    32   33   34 1
    33   35   33 ar
    34   36   35 1
    35   37   35 ar
    36   38   37 1
    37   39   37 ar
    38   40   39 1
    39   41   32 ar
    40   42   41 1
    41   43    8 1
    42   44    6 1
    43   45    1 1
    44   46   44 2
    45   47   44 2
    46   17   19 ar
    47   28   30 ar
    48   32   43 1
    49   39   41 ar
    50   43   45 1
@<TRIPOS>SUBSTRUCTURE
     1 RES1 1

@<TRIPOS>CRYSIN
   7.3566    8.0059    9.0060  65.6240  71.7720  81.2920   1 1

