# MOL2 file generated by ConQuest
# Please check atom types

@<TRIPOS>MOLECULE
UFOHAA
    53    56     1
SMALL
NO_CHARGES
****
Generated from CSD

@<TRIPOS>ATOM
      1 C1         5.1530    6.8542    5.5850 C.3       1 RES1    0.0000
      2 H1         4.6522    7.7137    5.6869 H         1 RES1    0.0000
      3 C2         4.7320    6.1549    4.2944 C.3       1 RES1    0.0000
      4 H2         5.1434    5.2551    4.2629 H         1 RES1    0.0000
      5 H3         3.7490    6.0387    4.2934 H         1 RES1    0.0000
      6 C3         5.1431    6.9349    3.0538 C.3       1 RES1    0.0000
      7 C4         6.5762    7.5152    3.1304 C.3       1 RES1    0.0000
      8 H4         6.5926    8.2775    2.4833 H         1 RES1    0.0000
      9 C5         4.9339    5.9857    6.7964 C.ar      1 RES1    0.0000
     10 C6         5.5659    4.7471    6.8930 C.ar      1 RES1    0.0000
     11 H5         6.1740    4.4751    6.2166 H         1 RES1    0.0000
     12 C7         5.3156    3.9125    7.9631 C.ar      1 RES1    0.0000
     13 H6         5.7568    3.0731    8.0222 H         1 RES1    0.0000
     14 C8         4.4258    4.2947    8.9483 C.ar      1 RES1    0.0000
     15 H7         4.2360    3.7071    9.6706 H         1 RES1    0.0000
     16 C9         3.8133    5.5296    8.8857 C.ar      1 RES1    0.0000
     17 H8         3.2148    5.8004    9.5729 H         1 RES1    0.0000
     18 C10        4.0738    6.3784    7.8123 C.ar      1 RES1    0.0000
     19 H9         3.6596    7.2325    7.7749 H         1 RES1    0.0000
     20 C11        7.6606    6.5581    2.6625 C.ar      1 RES1    0.0000
     21 C12        8.2554    6.8125    1.4236 C.ar      1 RES1    0.0000
     22 H10        7.9801    7.5715    0.9219 H         1 RES1    0.0000
     23 C13        9.2355    5.9823    0.9113 C.ar      1 RES1    0.0000
     24 H11        9.6256    6.1733    0.0656 H         1 RES1    0.0000
     25 C14        9.6482    4.8771    1.6276 C.ar      1 RES1    0.0000
     26 H12       10.3170    4.3006    1.2760 H         1 RES1    0.0000
     27 C15        9.0796    4.6164    2.8624 C.ar      1 RES1    0.0000
     28 H13        9.3627    3.8572    3.3578 H         1 RES1    0.0000
     29 C16        8.0995    5.4517    3.3861 C.ar      1 RES1    0.0000
     30 H14        7.7275    5.2674    4.2400 H         1 RES1    0.0000
     31 C17        7.9864    8.7884    4.6752 C.ar      1 RES1    0.0000
     32 C18        8.3188    9.8316    3.8102 C.ar      1 RES1    0.0000
     33 H15        7.7267   10.0728    3.1075 H         1 RES1    0.0000
     34 C19        9.5122   10.5162    3.9749 C.ar      1 RES1    0.0000
     35 H16        9.7445   11.2113    3.3700 H         1 RES1    0.0000
     36 C20       10.3704   10.1953    5.0157 C.ar      1 RES1    0.0000
     37 H17       11.1910   10.6610    5.1222 H         1 RES1    0.0000
     38 C21       10.0184    9.1892    5.8970 C.ar      1 RES1    0.0000
     39 H18       10.5910    8.9840    6.6271 H         1 RES1    0.0000
     40 C22        8.8367    8.4737    5.7294 C.ar      1 RES1    0.0000
     41 H19        8.6119    7.7742    6.3310 H         1 RES1    0.0000
     42 C23        4.9897    6.0516    1.7981 C.2       1 RES1    0.0000
     43 C24        4.8773    6.0617   -0.5533 C.3       1 RES1    0.0000
     44 H20        5.6688    5.4929   -0.6548 H         1 RES1    0.0000
     45 H21        4.8298    6.6913   -1.3034 H         1 RES1    0.0000
     46 H22        4.0727    5.5032   -0.5449 H         1 RES1    0.0000
     47 N1         6.7341    8.1277    4.4717 N.3       1 RES1    0.0000
     48 N2         4.1335    8.0992    2.8474 N.pl3     1 RES1    0.0000
     49 O1         6.5727    7.1179    5.4946 O.3       1 RES1    0.0000
     50 O2         4.5436    9.2212    2.5922 O.2       1 RES1    0.0000
     51 O3         2.9556    7.7901    2.9164 O.2       1 RES1    0.0000
     52 O4         4.9291    4.8587    1.8305 O.2       1 RES1    0.0000
     53 O5         4.9678    6.8025    0.6987 O.3       1 RES1    0.0000
@<TRIPOS>BOND
     1    1    2 1
     2    3    1 1
     3    4    3 1
     4    5    3 1
     5    6    3 1
     6    7    6 1
     7    8    7 1
     8    9    1 1
     9   10    9 ar
    10   11   10 1
    11   12   10 ar
    12   13   12 1
    13   14   12 ar
    14   15   14 1
    15   16   14 ar
    16   17   16 1
    17   18    9 ar
    18   19   18 1
    19   20    7 1
    20   21   20 ar
    21   22   21 1
    22   23   21 ar
    23   24   23 1
    24   25   23 ar
    25   26   25 1
    26   27   25 ar
    27   28   27 1
    28   29   20 ar
    29   30   29 1
    30   31   32 ar
    31   32   33 1
    32   34   32 ar
    33   35   34 1
    34   36   34 ar
    35   37   36 1
    36   38   36 ar
    37   39   38 1
    38   40   31 ar
    39   41   40 1
    40   42    6 1
    41   43   44 1
    42   45   43 1
    43   46   43 1
    44   47    7 1
    45   48    6 1
    46   49    1 1
    47   50   48 2
    48   51   48 2
    49   52   42 2
    50   53   42 1
    51   16   18 ar
    52   27   29 ar
    53   31   47 1
    54   38   40 ar
    55   43   53 1
    56   47   49 1
@<TRIPOS>SUBSTRUCTURE
     1 RES1 1

@<TRIPOS>CRYSIN
   8.2132    8.7380   15.5338  84.5670  79.3980  67.7330   2 1

