# MOL2 file generated by ConQuest
# Please check atom types

@<TRIPOS>MOLECULE
UGAHOZ
    50    42     2
SMALL
NO_CHARGES
****
Generated from CSD

@<TRIPOS>ATOM
      1 O1         5.8840    8.2205   13.7035 O.3       1 RES1    0.0000
      2 C1         6.1028    9.0289   12.5236 C.3       1 RES1    0.0000
      3 N1         7.8224   10.9718   12.9432 N.1       1 RES1    0.0000
      4 N2         4.8216    5.1640   19.1904 N.pl3     1 RES1    0.0000
      5 O2         5.4171    9.9922   15.0050 O.2       1 RES1    0.0000
      6 C2         4.8096    9.5910   11.9910 C.3       1 RES1    0.0000
      7 O3         4.9240    3.9731   18.9832 O.2       1 RES1    0.0000
      8 C3         3.8673    8.4866   11.5029 C.3       1 RES1    0.0000
      9 O4         4.5561    5.6506   20.2676 O.2       1 RES1    0.0000
     10 C4         5.8069    7.0261   11.0508 C.3       1 RES1    0.0000
     11 C5         6.7616    8.1130   11.5218 C.3       1 RES1    0.0000
     12 C6         7.0566   10.1346   12.8421 C.1       1 RES1    0.0000
     13 C7         2.9065    5.7409   10.5645 C.2       1 RES1    0.0000
     14 C8         4.5159    7.8324   10.2716 C.3       1 RES1    0.0000
     15 C9         3.3348    6.9056   10.0199 C.2       1 RES1    0.0000
     16 C10        2.6240    7.3401    8.7321 C.3       1 RES1    0.0000
     17 C11        5.5437    8.7906   14.8697 C.2       1 RES1    0.0000
     18 C12        5.3689    7.8111   15.9674 C.ar      1 RES1    0.0000
     19 C13        5.3405    6.4435   15.7414 C.ar      1 RES1    0.0000
     20 C14        5.1682    5.5702   16.8032 C.ar      1 RES1    0.0000
     21 C15        5.0094    6.0941   18.0516 C.ar      1 RES1    0.0000
     22 C16        5.0286    7.4352   18.3050 C.ar      1 RES1    0.0000
     23 C17        5.1970    8.2991   17.2518 C.ar      1 RES1    0.0000
     24 H1         5.0010   10.1951   11.2563 H         1 RES1    0.0000
     25 H2         4.3704   10.1000   12.6897 H         1 RES1    0.0000
     26 H3         3.0046    8.8623   11.2666 H         1 RES1    0.0000
     27 H4         3.7342    7.8268   12.2016 H         1 RES1    0.0000
     28 H5         5.4800    6.5117   11.8060 H         1 RES1    0.0000
     29 H6         6.2538    6.4248   10.4343 H         1 RES1    0.0000
     30 H7         7.5412    7.7024   11.9259 H         1 RES1    0.0000
     31 H8         7.0588    8.6319   10.7580 H         1 RES1    0.0000
     32 H9         3.2882    5.4449   11.3899 H         1 RES1    0.0000
     33 H10        2.1689    5.2845   10.1946 H         1 RES1    0.0000
     34 H11        4.7615    8.4346    9.5387 H         1 RES1    0.0000
     35 H12        3.1857    7.9410    8.2406 H         1 RES1    0.0000
     36 H13        1.8004    7.7843    8.9564 H         1 RES1    0.0000
     37 H14        2.4312    6.5672    8.1944 H         1 RES1    0.0000
     38 H15        5.4374    6.1126   14.8783 H         1 RES1    0.0000
     39 H16        5.1610    4.6505   16.6679 H         1 RES1    0.0000
     40 H17        4.9290    7.7567   19.1716 H         1 RES1    0.0000
     41 H18        5.1958    9.2172   17.4008 H         1 RES1    0.0000
     42 C18        4.5420    7.5332   10.4874 Du        2 SUP2    0.0000
     43 C19        3.9471    6.2565    9.8846 Du        2 SUP2    0.0000
     44 C20        4.4668    5.5371    8.6208 Du        2 SUP2    0.0000
     45 H19        2.4480    4.9719   10.3093 Du        2 SUP2    0.0000
     46 H20        2.5822    6.2237   11.3694 Du        2 SUP2    0.0000
     47 H21        4.7962    8.0933    9.7236 Du        2 SUP2    0.0000
     48 H22        5.0129    6.1359    8.1104 Du        2 SUP2    0.0000
     49 H23        3.7231    5.2449    8.0882 Du        2 SUP2    0.0000
     50 H24        4.9895    4.7716    8.8811 Du        2 SUP2    0.0000
@<TRIPOS>BOND
     1    1    2 1
     2    2    6 1
     3    3   12 3
     4    4    7 2
     5    5   17 2
     6    6    8 1
     7    8   14 1
     8    9    4 2
     9   10   11 1
    10   11    2 1
    11   12    2 1
    12   13   15 2
    13   14   10 1
    14   15   14 1
    15   16   15 1
    16   17    1 1
    17   18   17 1
    18   19   18 ar
    19   20   19 ar
    20   21    4 1
    21   22   21 ar
    22   23   18 ar
    23   24    6 1
    24   25    6 1
    25   26    8 1
    26   27    8 1
    27   28   10 1
    28   29   10 1
    29   30   11 1
    30   31   11 1
    31   32   13 1
    32   33   13 1
    33   34   14 1
    34   35   16 1
    35   36   16 1
    36   37   16 1
    37   38   19 1
    38   39   20 1
    39   40   22 1
    40   41   23 1
    41   20   21 ar
    42   22   23 ar
@<TRIPOS>SUBSTRUCTURE
     1 RES1 1
     2 SUP2 42

@<TRIPOS>CRYSIN
   6.8616    7.1533   17.5640  80.6220  80.2390  83.0770   2 1

