# MOL2 file generated by ConQuest
# Please check atom types

@<TRIPOS>MOLECULE
UGAVUW
    23    22     2
SMALL
NO_CHARGES
****
Generated from CSD

@<TRIPOS>ATOM
      1 N1         1.6346    3.7487    5.4442 N.3       1 RES1    0.0000
      2 N2         3.3104    2.6120    4.1855 N.3       1 RES1    0.0000
      3 O1         0.2699    4.8876    7.2721 O.2       1 RES1    0.0000
      4 O2         4.8446    3.6847    5.4417 O.2       1 RES1    0.0000
      5 N3         4.4030    2.6120    5.1091 N.pl3     1 RES1    0.0000
      6 N4         0.0584    3.8125    7.8220 N.pl3     1 RES1    0.0000
      7 C1         1.2421    2.6120    5.9963 C.2       1 RES1    0.0000
      8 C2         0.4281    2.6120    7.1978 C.2       1 RES1    0.0000
      9 C3         2.4800    3.8020    4.2675 C.3       1 RES1    0.0000
     10 H1         1.2606    4.4404    5.8995 H         1 RES1    0.0000
     11 O3        -0.7649    4.0141    8.6818 O.2       1 RES1    0.0000
     12 H2         1.8732    3.7508    3.4395 H         1 RES1    0.0000
     13 H3         2.9558    4.5658    4.3164 H         1 RES1    0.0000
     14 O4        -0.1852    3.6004    9.1021 Du        2 SUP2    0.0000
     15 N1F        1.6346    1.4753    5.4442 N.3       1 RES1    0.0000
     16 O1F        0.2699    0.3364    7.2721 O.2       1 RES1    0.0000
     17 O2F        4.8446    1.5393    5.4417 O.2       1 RES1    0.0000
     18 N4F        0.0584    1.4115    7.8220 N.pl3     1 RES1    0.0000
     19 C3F        2.4800    1.4220    4.2675 C.3       1 RES1    0.0000
     20 H1F        1.2606    0.7836    5.8995 H         1 RES1    0.0000
     21 O3F       -0.7649    1.2099    8.6818 O.2       1 RES1    0.0000
     22 H2F        1.8732    1.4732    3.4395 H         1 RES1    0.0000
     23 H3F        2.9558    0.6582    4.3164 H         1 RES1    0.0000
@<TRIPOS>BOND
     1    1    7 1
     2    2    5 1
     3    3    6 2
     4    4    5 2
     5    5   17 2
     6    6    8 1
     7    7    8 2
     8    8   18 1
     9    9    1 1
    10   10    1 1
    11   11    6 2
    12   12    9 1
    13   13    9 1
    14   15    7 1
    15   16   18 2
    16   18   21 2
    17   19    2 1
    18   20   15 1
    19   22   19 1
    20   23   19 1
    21    2    9 1
    22   15   19 1
@<TRIPOS>SUBSTRUCTURE
     1 RES1 1
     2 SUP2 14

@<TRIPOS>CRYSIN
   7.1223   10.4480   11.3890  90.0000  90.0000  90.0000  62 1

