# MOL2 file generated by ConQuest
# Please check atom types

@<TRIPOS>MOLECULE
UGAZEJ
    45    47     1
SMALL
NO_CHARGES
****
Generated from CSD

@<TRIPOS>ATOM
      1 N1         3.2358    2.8571    0.8224 N.2       1 RES1    0.0000
      2 C1         2.0379    4.6310   -0.3609 C.ar      1 RES1    0.0000
      3 N2         3.8991    2.7234    1.9866 N.3       1 RES1    0.0000
      4 O1         5.2914   -0.8147    1.1257 O.3       1 RES1    0.0000
      5 H1         5.4158   -1.4049    0.5694 H         1 RES1    0.0000
      6 C2         2.2268    0.3103    2.5777 C.ar      1 RES1    0.0000
      7 O2         4.7082    5.3761    4.2351 O.3       1 RES1    0.0000
      8 N3         3.9740   -0.8404    1.5374 N.2       1 RES1    0.0000
      9 C3         3.6204    0.2750    2.1011 C.2       1 RES1    0.0000
     10 C4         3.9615    3.9031    2.6511 C.2       1 RES1    0.0000
     11 C5         2.8426    4.1348    0.7608 C.2       1 RES1    0.0000
     12 C6         1.8760    0.9991    3.7384 C.ar      1 RES1    0.0000
     13 H2         2.5284    1.4626    4.2115 H         1 RES1    0.0000
     14 C7         3.2931    4.8271    1.8896 C.2       1 RES1    0.0000
     15 H3         3.1658    5.7272    2.0827 H         1 RES1    0.0000
     16 O3         5.0983    3.2194    4.6331 O.2       1 RES1    0.0000
     17 C8         4.6515    4.0848    3.9364 C.2       1 RES1    0.0000
     18 C9         1.2240   -0.3452    1.8707 C.ar      1 RES1    0.0000
     19 H4         1.4285   -0.7866    1.0775 H         1 RES1    0.0000
     20 C10        4.5431    1.4453    2.2827 C.3       1 RES1    0.0000
     21 H5         4.8636    1.4568    3.1975 H         1 RES1    0.0000
     22 H6         5.3114    1.3356    1.7017 H         1 RES1    0.0000
     23 C11        0.5758    1.0020    4.1924 C.ar      1 RES1    0.0000
     24 H7         0.3554    1.4674    4.9670 H         1 RES1    0.0000
     25 C12        1.6229    5.9397   -0.4052 C.ar      1 RES1    0.0000
     26 H8         1.8824    6.5253    0.2694 H         1 RES1    0.0000
     27 C13       -0.0784   -0.3404    2.3440 C.ar      1 RES1    0.0000
     28 H9        -0.7432   -0.7875    1.8725 H         1 RES1    0.0000
     29 C14        1.6428    3.8280   -1.3955 C.ar      1 RES1    0.0000
     30 H10        1.9224    2.9405   -1.4104 H         1 RES1    0.0000
     31 C15        0.4329    5.5849   -2.4369 C.ar      1 RES1    0.0000
     32 H11       -0.1070    5.9041   -3.1230 H         1 RES1    0.0000
     33 C16        0.8261    6.3984   -1.4330 C.ar      1 RES1    0.0000
     34 H12        0.5535    7.2878   -1.4345 H         1 RES1    0.0000
     35 C17        0.8389    4.2992   -2.4218 C.ar      1 RES1    0.0000
     36 H13        0.5774    3.7242   -3.1055 H         1 RES1    0.0000
     37 C18        5.4440    5.7426    5.4407 C.3       1 RES1    0.0000
     38 H14        6.3318    5.3531    5.4291 H         1 RES1    0.0000
     39 H15        4.9780    5.4300    6.2329 H         1 RES1    0.0000
     40 C19       -0.3921    0.3202    3.5043 C.ar      1 RES1    0.0000
     41 H16       -1.2644    0.3048    3.8238 H         1 RES1    0.0000
     42 C20        5.5251    7.2272    5.4357 C.3       1 RES1    0.0000
     43 H17        6.0077    7.5186    4.6582 H         1 RES1    0.0000
     44 H18        5.9807    7.5253    6.2263 H         1 RES1    0.0000
     45 H19        4.6386    7.5955    5.4182 H         1 RES1    0.0000
@<TRIPOS>BOND
     1    1    3 1
     2    2   11 1
     3    3   10 1
     4    4    5 1
     5    6    9 1
     6    7   17 1
     7    8    4 1
     8    9    8 2
     9   10   14 2
    10   11    1 2
    11   12    6 ar
    12   13   12 1
    13   14   11 1
    14   15   14 1
    15   16   17 2
    16   17   10 1
    17   18    6 ar
    18   19   18 1
    19   20    3 1
    20   21   20 1
    21   22   20 1
    22   23   12 ar
    23   24   23 1
    24   25    2 ar
    25   26   25 1
    26   27   18 ar
    27   28   27 1
    28   29    2 ar
    29   30   29 1
    30   31   32 1
    31   33   25 ar
    32   34   33 1
    33   35   29 ar
    34   36   35 1
    35   37    7 1
    36   38   37 1
    37   39   37 1
    38   40   23 ar
    39   41   40 1
    40   42   37 1
    41   43   42 1
    42   44   42 1
    43   45   42 1
    44    9   20 1
    45   27   40 ar
    46   31   33 ar
    47   31   35 ar
@<TRIPOS>SUBSTRUCTURE
     1 RES1 1

@<TRIPOS>CRYSIN
   8.6343    9.6158   22.1900  90.0000  99.2650  90.0000  13 1

