# MOL2 file generated by ConQuest
# Please check atom types

@<TRIPOS>MOLECULE
UGECOZ
    62    63     1
SMALL
NO_CHARGES
****
Generated from CSD

@<TRIPOS>ATOM
      1 O1         5.3302    8.9542    7.1747 O.2       1 RES1    0.0000
      2 O2         2.7138    7.2051   13.5848 O.2       1 RES1    0.0000
      3 O3         4.5343    6.1221   13.4877 O.2       1 RES1    0.0000
      4 N1         3.6911    6.8405   12.9974 N.pl3     1 RES1    0.0000
      5 C1         4.3354    8.3236    7.5378 C.2       1 RES1    0.0000
      6 C2         3.3132    7.9227    6.5595 C.2       1 RES1    0.0000
      7 C3         2.5016    6.9008    6.8589 C.2       1 RES1    0.0000
      8 C4         1.7634    5.9335    7.1219 C.2       1 RES1    0.0000
      9 C5         0.9201    4.9507    7.4831 C.2       1 RES1    0.0000
     10 C6         4.1555    7.9758    8.9738 C.ar      1 RES1    0.0000
     11 C7         5.1940    7.3260    9.6352 C.ar      1 RES1    0.0000
     12 H1         5.9905    7.1467    9.1900 H         1 RES1    0.0000
     13 C8         5.0380    6.9449   10.9606 C.ar      1 RES1    0.0000
     14 H2         5.7168    6.4920   11.4066 H         1 RES1    0.0000
     15 C9         3.8778    7.2467   11.5894 C.ar      1 RES1    0.0000
     16 C10        2.8634    7.9417   10.9883 C.ar      1 RES1    0.0000
     17 H3         2.1033    8.1864   11.4637 H         1 RES1    0.0000
     18 C11        3.0022    8.2688    9.6513 C.ar      1 RES1    0.0000
     19 H4         2.3038    8.6927    9.2063 H         1 RES1    0.0000
     20 C12        3.3149    8.6187    5.2230 C.3       1 RES1    0.0000
     21 H5         3.3604    9.5752    5.3769 H         1 RES1    0.0000
     22 H6         4.1205    8.3625    4.7487 H         1 RES1    0.0000
     23 C13        2.1433    8.3417    4.3423 C.3       1 RES1    0.0000
     24 H7         1.3346    8.6126    4.8031 H         1 RES1    0.0000
     25 H8         2.0880    7.3859    4.1884 H         1 RES1    0.0000
     26 C14        2.1997    9.0462    3.0097 C.3       1 RES1    0.0000
     27 H9         2.2585   10.0013    3.1658 H         1 RES1    0.0000
     28 H10        3.0097    8.7746    2.5511 H         1 RES1    0.0000
     29 C15        1.0512    8.7853    2.1287 C.3       1 RES1    0.0000
     30 H11        0.2435    9.0893    2.5729 H         1 RES1    0.0000
     31 H12        0.9714    7.8281    1.9963 H         1 RES1    0.0000
     32 C16        1.1473    9.4592    0.7751 C.3       1 RES1    0.0000
     33 H13        1.1897   10.4105    0.8948 H         1 RES1    0.0000
     34 H14        0.3739    9.2363    0.2502 H         1 RES1    0.0000
     35 H15        1.9382    9.1572    0.3236 H         1 RES1    0.0000
     36 C17       -0.1487    4.4852    6.5173 C.3       1 RES1    0.0000
     37 H16       -0.0897    3.5202    6.4403 H         1 RES1    0.0000
     38 H17       -1.0160    4.6927    6.9000 H         1 RES1    0.0000
     39 C18       -0.0882    5.0746    5.1341 C.3       1 RES1    0.0000
     40 H18        0.7493    4.8161    4.7187 H         1 RES1    0.0000
     41 H19       -0.0964    6.0425    5.2056 H         1 RES1    0.0000
     42 C19       -1.2318    4.6395    4.2422 C.3       1 RES1    0.0000
     43 H20       -1.2163    3.6729    4.1639 H         1 RES1    0.0000
     44 H21       -2.0689    4.8875    4.6644 H         1 RES1    0.0000
     45 C20       -1.1936    5.2358    2.8606 C.3       1 RES1    0.0000
     46 H22       -0.3779    4.9503    2.4206 H         1 RES1    0.0000
     47 H23       -1.1642    6.2023    2.9373 H         1 RES1    0.0000
     48 C21       -2.3801    4.8483    1.9944 C.3       1 RES1    0.0000
     49 H24       -2.3509    3.9062    1.8141 H         1 RES1    0.0000
     50 H25       -2.3444    5.3342    1.1668 H         1 RES1    0.0000
     51 H26       -3.1955    5.0611    2.4559 H         1 RES1    0.0000
     52 C22        0.9773    4.3920    8.8465 C.ar      1 RES1    0.0000
     53 C23        2.0637    4.6413    9.6820 C.ar      1 RES1    0.0000
     54 H27        2.7984    5.1079    9.3559 H         1 RES1    0.0000
     55 C24        2.0582    4.2055   10.9790 C.ar      1 RES1    0.0000
     56 H28        2.7942    4.3777   11.5208 H         1 RES1    0.0000
     57 C25        0.9882    3.5188   11.4963 C.ar      1 RES1    0.0000
     58 H29        0.9822    3.2551   12.3884 H         1 RES1    0.0000
     59 C26       -0.0761    3.2279   10.6733 C.ar      1 RES1    0.0000
     60 H30       -0.7966    2.7448   11.0095 H         1 RES1    0.0000
     61 C27       -0.0887    3.6437    9.3545 C.ar      1 RES1    0.0000
     62 H31       -0.8061    3.4253    8.8065 H         1 RES1    0.0000
@<TRIPOS>BOND
     1    1    5 2
     2    2    4 2
     3    3    4 2
     4    4   15 1
     5    5    6 1
     6    6    7 2
     7    7    8 2
     8    8    9 2
     9    9   36 1
    10   10    5 1
    11   11   10 ar
    12   12   11 1
    13   13   11 ar
    14   14   13 1
    15   15   13 ar
    16   16   15 ar
    17   17   16 1
    18   18   10 ar
    19   19   18 1
    20   20    6 1
    21   21   20 1
    22   22   20 1
    23   23   20 1
    24   24   23 1
    25   25   23 1
    26   26   23 1
    27   27   26 1
    28   28   26 1
    29   29   26 1
    30   30   29 1
    31   31   29 1
    32   32   29 1
    33   33   32 1
    34   34   32 1
    35   35   32 1
    36   36   37 1
    37   38   36 1
    38   39   36 1
    39   40   39 1
    40   41   39 1
    41   42   39 1
    42   43   42 1
    43   44   42 1
    44   45   42 1
    45   46   45 1
    46   47   45 1
    47   48   45 1
    48   49   48 1
    49   50   48 1
    50   51   48 1
    51   52    9 1
    52   53   52 ar
    53   54   53 1
    54   55   53 ar
    55   56   55 1
    56   57   55 ar
    57   58   57 1
    58   59   57 ar
    59   60   59 1
    60   61   52 ar
    61   62   61 1
    62   16   18 ar
    63   59   61 ar
@<TRIPOS>SUBSTRUCTURE
     1 RES1 1

@<TRIPOS>CRYSIN
   5.7676    7.6960   27.2490  87.5390  87.2320  84.0040   2 1

