# MOL2 file generated by ConQuest
# Please check atom types

@<TRIPOS>MOLECULE
UGEDIV
    24    24     1
SMALL
USER_CHARGES
****
Generated from CSD

@<TRIPOS>ATOM
      1 O1         4.3665    1.6847   12.7587 O.3       1 RES1    0.0000
      2 O2         3.0976    1.6847    8.9695 O.2       1 RES1   -1.0000
      3 N1         5.7617    1.6847   12.5809 N.2       1 RES1    0.0000
      4 N2         3.7172    1.6847   11.5578 N.2       1 RES1    0.0000
      5 N3         7.1464    1.6847   10.6912 N.pl3     1 RES1    0.0000
      6 H1         7.2138    1.6847    9.8079 H         1 RES1    0.0000
      7 H2         7.8769    1.6847   11.1142 H         1 RES1    0.0000
      8 N4         4.3187    1.6847    9.2683 N.pl3     1 RES1    1.0000
      9 N5         5.3378    1.6847    8.5104 N.2       1 RES1    0.0000
     10 C1         5.9468    1.6847   11.2860 C.2       1 RES1    0.0000
     11 C2         4.6559    1.6847   10.6690 C.2       1 RES1    0.0000
     12 C3         5.1113    1.6847    7.0396 C.3       1 RES1    0.0000
     13 C4         6.5273    1.6847    6.4637 C.3       1 RES1    0.0000
     14 H3         6.5298    1.6847    5.4078 H         1 RES1    0.0000
     15 H4         7.0383    0.8484    6.8240 H         1 RES1    0.0000
     16 C5         4.3764    0.4185    6.6045 C.3       1 RES1    0.0000
     17 H5         4.3498    0.3767    5.6255 H         1 RES1    0.0000
     18 H6         3.4615    0.4353    6.9557 H         1 RES1    0.0000
     19 H7         4.8458   -0.3679    6.9526 H         1 RES1    0.0000
     20 H4C        7.0383    2.5210    6.8240 H         1 RES1    0.0000
     21 C5C        4.3764    2.9509    6.6045 C.3       1 RES1    0.0000
     22 H5C        4.3498    2.9927    5.6255 H         1 RES1    0.0000
     23 H6C        3.4615    2.9341    6.9557 H         1 RES1    0.0000
     24 H7C        4.8458    3.7373    6.9526 H         1 RES1    0.0000
@<TRIPOS>BOND
     1    1    3 1
     2    2    8 1
     3    3   10 2
     4    4    1 1
     5    5    6 1
     6    7    5 1
     7    8    9 2
     8    9   12 1
     9   10    5 1
    10   11    4 2
    11   12   13 1
    12   13   14 1
    13   15   13 1
    14   16   12 1
    15   17   16 1
    16   18   16 1
    17   19   16 1
    18   20   13 1
    19   21   12 1
    20   22   21 1
    21   23   21 1
    22   24   21 1
    23    8   11 1
    24   10   11 1
@<TRIPOS>SUBSTRUCTURE
     1 RES1 1

@<TRIPOS>CRYSIN
   6.4208    6.7388   10.3678  90.0000  90.2060  90.0000  11 1

