# MOL2 file generated by ConQuest
# Please check atom types

@<TRIPOS>MOLECULE
UGELEZ
    27    29     1
SMALL
NO_CHARGES
****
Generated from CSD

@<TRIPOS>ATOM
      1 N1         5.9018    1.9459    3.9017 N.pl3     1 RES1    0.0000
      2 C1         7.3540    1.8891    4.1572 C.3       1 RES1    0.0000
      3 H1         7.7816    2.6665    3.7651 H         1 RES1    0.0000
      4 H2         7.7250    1.0983    3.7355 H         1 RES1    0.0000
      5 C2         7.6426    1.8508    5.6328 C.3       1 RES1    0.0000
      6 H3         7.5888    2.7501    5.9943 H         1 RES1    0.0000
      7 H4         8.5447    1.5253    5.7748 H         1 RES1    0.0000
      8 C3         5.2554    1.4800    6.1639 C.ar      1 RES1    0.0000
      9 C4         6.6611    0.9539    6.3692 C.3       1 RES1    0.0000
     10 H5         6.7258    0.0468    6.0306 H         1 RES1    0.0000
     11 H6         6.8730    0.9406    7.3161 H         1 RES1    0.0000
     12 C5         4.2849    1.4761    7.1935 C.ar      1 RES1    0.0000
     13 H7         4.5019    1.1069    8.0188 H         1 RES1    0.0000
     14 C6         2.7179    2.6298    5.7985 C.ar      1 RES1    0.0000
     15 C7         3.0424    1.9968    7.0083 C.ar      1 RES1    0.0000
     16 H8         2.4067    1.9343    7.6836 H         1 RES1    0.0000
     17 C8         1.4643    3.2520    5.5743 C.ar      1 RES1    0.0000
     18 H9         0.7903    3.1888    6.2123 H         1 RES1    0.0000
     19 C9         1.2543    3.9358    4.4346 C.ar      1 RES1    0.0000
     20 H10        0.4333    4.3401    4.2685 H         1 RES1    0.0000
     21 C10        2.3023    4.0271    3.5006 C.ar      1 RES1    0.0000
     22 H11        2.1590    4.5439    2.7407 H         1 RES1    0.0000
     23 C11        3.6830    2.7063    4.7583 C.ar      1 RES1    0.0000
     24 N2         3.4807    3.4294    3.6217 N.ar      1 RES1    0.0000
     25 C12        4.9383    2.0381    4.9561 C.ar      1 RES1    0.0000
     26 N3         5.4198    1.6510    2.6972 N.2       1 RES1    0.0000
     27 O1         6.3025    1.5432    1.8255 O.2       1 RES1    0.0000
@<TRIPOS>BOND
     1    1    2 1
     2    2    3 1
     3    4    2 1
     4    5    2 1
     5    6    5 1
     6    7    5 1
     7    8    9 1
     8    9    5 1
     9   10    9 1
    10   11    9 1
    11   12    8 ar
    12   13   12 1
    13   14   15 ar
    14   15   12 ar
    15   16   15 1
    16   17   14 ar
    17   18   17 1
    18   19   17 ar
    19   20   19 1
    20   21   19 ar
    21   22   21 1
    22   23   14 ar
    23   24   21 ar
    24   25    1 1
    25   26    1 1
    26   27   26 2
    27    8   25 ar
    28   23   24 ar
    29   23   25 ar
@<TRIPOS>SUBSTRUCTURE
     1 RES1 1

@<TRIPOS>CRYSIN
   9.7790    7.8060   13.7350  90.0000 101.4600  90.0000 231 1

