# MOL2 file generated by ConQuest
# Please check atom types

@<TRIPOS>MOLECULE
UGELID
    32    34     1
SMALL
NO_CHARGES
****
Generated from CSD

@<TRIPOS>ATOM
      1 N1         5.0801   10.6328    5.5965 N.pl3     1 RES1    0.0000
      2 C1         6.4158   10.7568    6.1886 C.3       1 RES1    0.0000
      3 H1         6.4081   11.4573    6.8592 H         1 RES1    0.0000
      4 H2         7.0530   11.0068    5.5004 H         1 RES1    0.0000
      5 C2         6.8442    9.4582    6.8218 C.3       1 RES1    0.0000
      6 H3         6.4015    9.3507    7.6788 H         1 RES1    0.0000
      7 H4         7.8017    9.4688    6.9746 H         1 RES1    0.0000
      8 C3         4.9836    8.2390    5.7822 C.ar      1 RES1    0.0000
      9 C4         6.4811    8.2983    5.9067 C.3       1 RES1    0.0000
     10 H5         6.8812    8.4279    5.0329 H         1 RES1    0.0000
     11 H6         6.8161    7.4663    6.2757 H         1 RES1    0.0000
     12 C5         4.2751    7.0518    5.7777 C.ar      1 RES1    0.0000
     13 H7         4.7314    6.2436    5.8426 H         1 RES1    0.0000
     14 C6         4.2866    9.4473    5.7143 C.ar      1 RES1    0.0000
     15 N2         4.6316   11.5719    4.7778 N.2       1 RES1    0.0000
     16 O1         5.3718   12.5653    4.7075 O.2       1 RES1    0.0000
     17 N1A        2.0922   10.6328    5.8611 N.pl3     1 RES1    0.0000
     18 C1A        0.7564   10.7568    5.2689 C.3       1 RES1    0.0000
     19 H1A        0.7642   11.4573    4.5983 H         1 RES1    0.0000
     20 H2A        0.1193   11.0068    5.9572 H         1 RES1    0.0000
     21 C2A        0.3281    9.4582    4.6357 C.3       1 RES1    0.0000
     22 H3A        0.7708    9.3507    3.7787 H         1 RES1    0.0000
     23 H4A       -0.6294    9.4688    4.4830 H         1 RES1    0.0000
     24 C3A        2.1886    8.2390    5.6753 C.ar      1 RES1    0.0000
     25 C4A        0.6911    8.2983    5.5508 C.3       1 RES1    0.0000
     26 H5A        0.2910    8.4279    6.4246 H         1 RES1    0.0000
     27 H6A        0.3561    7.4663    5.1819 H         1 RES1    0.0000
     28 C5A        2.8971    7.0518    5.6799 C.ar      1 RES1    0.0000
     29 H7A        2.4409    6.2436    5.6150 H         1 RES1    0.0000
     30 C6A        2.8856    9.4473    5.7433 C.ar      1 RES1    0.0000
     31 N2A        2.5406   11.5719    6.6797 N.2       1 RES1    0.0000
     32 O1A        1.8004   12.5653    6.7500 O.2       1 RES1    0.0000
@<TRIPOS>BOND
     1    1    2 1
     2    2    3 1
     3    4    2 1
     4    5    2 1
     5    6    5 1
     6    7    5 1
     7    8    9 1
     8    9    5 1
     9   10    9 1
    10   11    9 1
    11   12    8 ar
    12   13   12 1
    13   14    1 1
    14   15    1 1
    15   16   15 2
    16   17   18 1
    17   18   19 1
    18   20   18 1
    19   21   18 1
    20   22   21 1
    21   23   21 1
    22   24   25 1
    23   25   21 1
    24   26   25 1
    25   27   25 1
    26   28   12 ar
    27   29   28 1
    28   30   14 ar
    29   31   17 1
    30   32   31 2
    31    8   14 ar
    32   17   30 1
    33   24   28 ar
    34   24   30 ar
@<TRIPOS>SUBSTRUCTURE
     1 RES1 1

@<TRIPOS>CRYSIN
   9.9107   15.5353    7.8535  90.0000 103.4420  90.0000  15 1

