# MOL2 file generated by ConQuest
# Please check atom types

@<TRIPOS>MOLECULE
UGICET
    53    58     1
SMALL
NO_CHARGES
****
Generated from CSD

@<TRIPOS>ATOM
      1 O1         5.1255    3.3972    3.7871 O.3       1 RES1    0.0000
      2 O2         1.7502    2.2062    1.2166 O.3       1 RES1    0.0000
      3 N1         5.4001    1.9577    3.8444 N.3       1 RES1    0.0000
      4 C1         2.8358    0.4151    0.0408 C.ar      1 RES1    0.0000
      5 C2         3.8619   -0.4681   -0.1842 C.ar      1 RES1    0.0000
      6 H1         4.6574   -0.3991    0.3270 H         1 RES1    0.0000
      7 C3         3.7536   -1.4507   -1.1383 C.ar      1 RES1    0.0000
      8 H2         4.4768   -2.0533   -1.2735 H         1 RES1    0.0000
      9 C4         2.6188   -1.5734   -1.8972 C.ar      1 RES1    0.0000
     10 H3         2.5440   -2.2611   -2.5485 H         1 RES1    0.0000
     11 C5         1.6006   -0.6871   -1.6963 C.ar      1 RES1    0.0000
     12 H4         0.8145   -0.7475   -2.2245 H         1 RES1    0.0000
     13 C6         1.7019    0.2874   -0.7424 C.ar      1 RES1    0.0000
     14 H5         0.9783    0.8894   -0.6149 H         1 RES1    0.0000
     15 C7         6.2211    1.7066    1.4697 C.ar      1 RES1    0.0000
     16 C8         6.2467    2.9457    0.8500 C.ar      1 RES1    0.0000
     17 H6         5.5550    3.5742    1.0248 H         1 RES1    0.0000
     18 C9         7.2686    3.2745   -0.0219 C.ar      1 RES1    0.0000
     19 H7         7.2803    4.1275   -0.4401 H         1 RES1    0.0000
     20 C10        8.2638    2.3678   -0.2811 C.ar      1 RES1    0.0000
     21 H8         8.9628    2.5942   -0.8802 H         1 RES1    0.0000
     22 C11        8.2525    1.1423    0.3176 C.ar      1 RES1    0.0000
     23 H9         8.9427    0.5144    0.1311 H         1 RES1    0.0000
     24 C12        7.2348    0.8166    1.1964 C.ar      1 RES1    0.0000
     25 H10        7.2360   -0.0345    1.6187 H         1 RES1    0.0000
     26 C13        6.7316    1.7757    4.3449 C.ar      1 RES1    0.0000
     27 C14        7.6896    2.7638    4.3217 C.ar      1 RES1    0.0000
     28 H11        7.4950    3.6045    3.9230 H         1 RES1    0.0000
     29 C15        8.9309    2.5343    4.8760 C.ar      1 RES1    0.0000
     30 H12        9.5866    3.2214    4.8725 H         1 RES1    0.0000
     31 C16        9.2211    1.3174    5.4324 C.ar      1 RES1    0.0000
     32 H13       10.0784    1.1614    5.8145 H         1 RES1    0.0000
     33 C17        8.2770    0.3257    5.4373 C.ar      1 RES1    0.0000
     34 H14        8.4803   -0.5218    5.8145 H         1 RES1    0.0000
     35 C18        7.0320    0.5533    4.8954 C.ar      1 RES1    0.0000
     36 H15        6.3794   -0.1363    4.9027 H         1 RES1    0.0000
     37 C19        3.7009    3.4774    3.9972 C.3       1 RES1    0.0000
     38 H16        3.4615    3.0623    4.8740 H         1 RES1    0.0000
     39 C20        3.1729    4.8843    3.9295 C.3       1 RES1    0.0000
     40 H17        3.5278    5.3358    3.1228 H         1 RES1    0.0000
     41 H18        3.4712    5.3925    4.7248 H         1 RES1    0.0000
     42 C21        1.6376    4.8547    3.8783 C.3       1 RES1    0.0000
     43 H19        1.3008    4.3767    4.6781 H         1 RES1    0.0000
     44 H20        1.3006    5.7842    3.9185 H         1 RES1    0.0000
     45 C22        1.0724    4.1768    2.6219 C.3       1 RES1    0.0000
     46 H21        0.1381    3.8839    2.7837 H         1 RES1    0.0000
     47 H22        1.0760    4.8115    1.8628 H         1 RES1    0.0000
     48 C23        1.9290    3.0050    2.3094 C.2       1 RES1    0.0000
     49 C24        3.0936    2.7151    2.8941 C.2       1 RES1    0.0000
     50 C25        3.7453    1.7233    2.1258 C.2       1 RES1    0.0000
     51 C26        5.1660    1.3520    2.4941 C.3       1 RES1    0.0000
     52 H23        5.1880    0.3590    2.6088 H         1 RES1    0.0000
     53 C27        2.8892    1.4087    1.1067 C.2       1 RES1    0.0000
@<TRIPOS>BOND
     1    1    3 1
     2    2   48 1
     3    3   26 1
     4    4    5 ar
     5    5    6 1
     6    7    5 ar
     7    8    7 1
     8    9    7 ar
     9   10    9 1
    10   11    9 ar
    11   12   11 1
    12   13    4 ar
    13   14   13 1
    14   15   16 ar
    15   16   17 1
    16   18   16 ar
    17   19   18 1
    18   20   18 ar
    19   21   20 1
    20   22   20 ar
    21   23   22 1
    22   24   15 ar
    23   25   24 1
    24   26   27 ar
    25   27   28 1
    26   29   27 ar
    27   30   29 1
    28   31   29 ar
    29   32   31 1
    30   33   31 ar
    31   34   33 1
    32   35   26 ar
    33   36   35 1
    34   37    1 1
    35   38   37 1
    36   39   37 1
    37   40   39 1
    38   41   39 1
    39   42   39 1
    40   43   42 1
    41   44   42 1
    42   45   42 1
    43   46   45 1
    44   47   45 1
    45   48   45 1
    46   49   37 1
    47   50   49 1
    48   51    3 1
    49   52   51 1
    50   53    2 1
    51    4   53 1
    52   11   13 ar
    53   15   51 1
    54   22   24 ar
    55   33   35 ar
    56   48   49 2
    57   50   51 1
    58   50   53 2
@<TRIPOS>SUBSTRUCTURE
     1 RES1 1

@<TRIPOS>CRYSIN
  44.6398    6.1678   16.0393  90.0000 110.0080  90.0000  15 1

