# MOL2 file generated by ConQuest
# Please check atom types

@<TRIPOS>MOLECULE
UGOFUR
    32    34     1
SMALL
NO_CHARGES
****
Generated from CSD

@<TRIPOS>ATOM
      1 C1         1.6332    8.4941   13.0081 C.2       1 RES1    0.0000
      2 C2         2.1753    9.1551   11.0499 C.2       1 RES1    0.0000
      3 C3         1.5505   10.3048   11.7457 C.2       1 RES1    0.0000
      4 C4         2.5994    9.2331    9.7700 C.2       1 RES1    0.0000
      5 H1         2.5473   10.0866    9.3571 H         1 RES1    0.0000
      6 C5         3.1294    8.1446    8.9552 C.ar      1 RES1    0.0000
      7 C6         3.8003    8.3523    7.7312 C.ar      1 RES1    0.0000
      8 C7         4.1995    7.3165    6.9018 C.ar      1 RES1    0.0000
      9 H2         4.6248    7.5026    6.0718 H         1 RES1    0.0000
     10 C8         3.9716    6.0096    7.2938 C.ar      1 RES1    0.0000
     11 H3         4.2495    5.2890    6.7404 H         1 RES1    0.0000
     12 C9         3.3339    5.7603    8.5016 C.ar      1 RES1    0.0000
     13 H4         3.1829    4.8638    8.7748 H         1 RES1    0.0000
     14 C10        2.9153    6.8050    9.3128 C.ar      1 RES1    0.0000
     15 H5         2.4732    6.6084   10.1302 H         1 RES1    0.0000
     16 C11        1.3371    7.7058   14.1969 C.ar      1 RES1    0.0000
     17 C12        0.8261    8.3086   15.3493 C.ar      1 RES1    0.0000
     18 H6         0.6991    9.2501   15.3820 H         1 RES1    0.0000
     19 C13        0.5058    7.5167   16.4443 C.ar      1 RES1    0.0000
     20 H7         0.1679    7.9194   17.2362 H         1 RES1    0.0000
     21 C14        0.6751    6.1512   16.3908 C.ar      1 RES1    0.0000
     22 H8         0.4381    5.6157   17.1395 H         1 RES1    0.0000
     23 C15        1.1943    5.5483   15.2425 C.ar      1 RES1    0.0000
     24 H9         1.3163    4.6061   15.2122 H         1 RES1    0.0000
     25 C16        1.5299    6.3264   14.1491 C.ar      1 RES1    0.0000
     26 H10        1.8906    5.9227   13.3685 H         1 RES1    0.0000
     27 O1         1.2461    9.8268   13.0209 O.3       1 RES1    0.0000
     28 O2         1.2889   11.4190   11.4072 O.2       1 RES1    0.0000
     29 O3         4.4222   10.5538    8.1308 O.2       1 RES1    0.0000
     30 O4         4.2940    9.8994    6.0818 O.2       1 RES1    0.0000
     31 N1         2.1787    8.0660   11.9219 N.2       1 RES1    0.0000
     32 N2         4.1833    9.6991    7.2899 N.pl3     1 RES1    0.0000
@<TRIPOS>BOND
     1    1   16 1
     2    2    3 1
     3    3   27 1
     4    4    2 2
     5    5    4 1
     6    6    4 1
     7    7    6 ar
     8    8    7 ar
     9    9    8 1
    10   10    8 ar
    11   11   10 1
    12   12   10 ar
    13   13   12 1
    14   14    6 ar
    15   15   14 1
    16   16   17 ar
    17   17   18 1
    18   19   17 ar
    19   20   19 1
    20   21   19 ar
    21   22   21 1
    22   23   21 ar
    23   24   23 1
    24   25   16 ar
    25   26   25 1
    26   27    1 1
    27   28    3 2
    28   29   32 2
    29   30   32 2
    30   31    1 2
    31   32    7 1
    32    2   31 1
    33   12   14 ar
    34   23   25 ar
@<TRIPOS>SUBSTRUCTURE
     1 RES1 1

@<TRIPOS>CRYSIN
   7.0543   14.0815   26.1154  90.0000  90.0000  90.0000  61 1

