# MOL2 file generated by ConQuest
# Please check atom types

@<TRIPOS>MOLECULE
UGOMEJ
    58    61     1
SMALL
NO_CHARGES
****
Generated from CSD

@<TRIPOS>ATOM
      1 O1         6.4876    8.5956    3.5056 O.2       1 RES1    0.0000
      2 O2         8.5287    8.5676    4.1582 O.2       1 RES1    0.0000
      3 N1         8.8816    6.4059    1.6568 N.3       1 RES1    0.0000
      4 N2         7.7022    8.6460    3.2990 N.pl3     1 RES1    0.0000
      5 C1         8.0100    7.4479    1.1070 C.3       1 RES1    0.0000
      6 C2        10.2362    6.4701    1.3215 C.2       1 RES1    0.0000
      7 C3        10.6610    7.2414    0.2952 C.2       1 RES1    0.0000
      8 C4         9.7322    7.8447   -0.6346 C.ar      1 RES1    0.0000
      9 C5        10.1097    8.3869   -1.8734 C.ar      1 RES1    0.0000
     10 C6         9.1608    8.8465   -2.7631 C.ar      1 RES1    0.0000
     11 C7         7.8081    8.7511   -2.4621 C.ar      1 RES1    0.0000
     12 C8         7.4166    8.2387   -1.2366 C.ar      1 RES1    0.0000
     13 C9         8.3630    7.8182   -0.3215 C.ar      1 RES1    0.0000
     14 C10        8.1439    8.7684    1.9013 C.3       1 RES1    0.0000
     15 C11        8.3592    5.1598    2.2620 C.3       1 RES1    0.0000
     16 C12        8.4776    3.9581    1.3223 C.ar      1 RES1    0.0000
     17 C13        8.7176    2.6428    1.8454 C.ar      1 RES1    0.0000
     18 C14        8.8998    2.3765    3.2298 C.ar      1 RES1    0.0000
     19 C15        9.1484    1.1016    3.6731 C.ar      1 RES1    0.0000
     20 C16        9.2292    0.0272    2.7688 C.ar      1 RES1    0.0000
     21 C17        9.0434    0.2441    1.4363 C.ar      1 RES1    0.0000
     22 C18        8.7726    1.5350    0.9406 C.ar      1 RES1    0.0000
     23 C19        8.5480    1.7526   -0.4440 C.ar      1 RES1    0.0000
     24 C20        8.3164    3.0106   -0.9138 C.ar      1 RES1    0.0000
     25 C21        8.3016    4.1140   -0.0250 C.ar      1 RES1    0.0000
     26 C22        6.9162    5.2727    2.7559 C.3       1 RES1    0.0000
     27 C23       11.2162    5.6433    2.1235 C.3       1 RES1    0.0000
     28 C24       11.4322    6.1172    3.5638 C.3       1 RES1    0.0000
     29 C25       12.3082    5.1445    4.3678 C.3       1 RES1    0.0000
     30 C26       13.7442    5.0536    3.8499 C.3       1 RES1    0.0000
     31 H1        11.5913    7.3984    0.1867 H         1 RES1    0.0000
     32 H2        11.0305    8.4381   -2.0981 H         1 RES1    0.0000
     33 H3         9.4327    9.2306   -3.5883 H         1 RES1    0.0000
     34 H4         7.1575    9.0301   -3.0962 H         1 RES1    0.0000
     35 H5         6.4927    8.1759   -1.0251 H         1 RES1    0.0000
     36 H6         7.1065    7.1566    1.1419 H         1 RES1    0.0000
     37 H7         8.8979    4.9730    3.0224 H         1 RES1    0.0000
     38 H8         8.1880    4.9893   -0.3753 H         1 RES1    0.0000
     39 H9         8.1541    3.1453   -1.8406 H         1 RES1    0.0000
     40 H10        8.5600    1.0170   -1.0450 H         1 RES1    0.0000
     41 H11        9.0882   -0.4876    0.8324 H         1 RES1    0.0000
     42 H12        9.4192   -0.8472    3.0892 H         1 RES1    0.0000
     43 H13        9.2744    0.9477    4.6014 H         1 RES1    0.0000
     44 H14        8.8364    3.0867    3.8568 H         1 RES1    0.0000
     45 H15        7.6271    9.4377    1.4683 H         1 RES1    0.0000
     46 H16        9.0583    9.0254    1.9024 H         1 RES1    0.0000
     47 H17       10.8777    4.7566    2.1610 H         1 RES1    0.0000
     48 H18       12.0548    5.6438    1.6769 H         1 RES1    0.0000
     49 H19       11.8569    6.9668    3.5374 H         1 RES1    0.0000
     50 H20       10.5895    6.1977    3.9945 H         1 RES1    0.0000
     51 H21       12.3372    5.4358    5.2722 H         1 RES1    0.0000
     52 H22       11.9148    4.2811    4.3259 H         1 RES1    0.0000
     53 H23       13.7971    4.3680    3.1950 H         1 RES1    0.0000
     54 H24       14.3321    4.8519    4.5685 H         1 RES1    0.0000
     55 H25       13.9938    5.8834    3.4605 H         1 RES1    0.0000
     56 H26        6.7874    4.4072    3.3857 H         1 RES1    0.0000
     57 H27        6.7558    6.1196    3.3058 H         1 RES1    0.0000
     58 H28        6.2467    5.2602    1.9683 H         1 RES1    0.0000
@<TRIPOS>BOND
     1    1    4 2
     2    2    4 2
     3    3    5 1
     4    4   14 1
     5    5   13 1
     6    6    3 1
     7    7    6 2
     8    8    7 1
     9    9    8 ar
    10   10    9 ar
    11   11   10 ar
    12   12   11 ar
    13   13    8 ar
    14   14    5 1
    15   15    3 1
    16   16   15 1
    17   17   16 ar
    18   18   17 ar
    19   19   18 ar
    20   20   19 ar
    21   21   20 ar
    22   22   17 ar
    23   23   22 ar
    24   24   23 ar
    25   25   16 ar
    26   26   15 1
    27   27    6 1
    28   28   27 1
    29   29   28 1
    30   30   29 1
    31   31    7 1
    32   32    9 1
    33   33   10 1
    34   34   11 1
    35   35   12 1
    36   36    5 1
    37   37   15 1
    38   38   25 1
    39   39   24 1
    40   40   23 1
    41   41   21 1
    42   42   20 1
    43   43   19 1
    44   44   18 1
    45   45   14 1
    46   46   14 1
    47   47   27 1
    48   48   27 1
    49   49   28 1
    50   50   28 1
    51   51   29 1
    52   52   29 1
    53   53   30 1
    54   54   30 1
    55   55   30 1
    56   56   26 1
    57   57   26 1
    58   58   26 1
    59   12   13 ar
    60   21   22 ar
    61   24   25 ar
@<TRIPOS>SUBSTRUCTURE
     1 RES1 1

@<TRIPOS>CRYSIN
  10.2540   10.6560   11.1840  68.8260  70.0710  77.7260   2 1

