# MOL2 file generated by ConQuest
# Please check atom types

@<TRIPOS>MOLECULE
UGUGEI
    47    39     2
SMALL
NO_CHARGES
****
Generated from CSD

@<TRIPOS>ATOM
      1 C1         5.1872    0.8983    7.9521 C.3       1 RES1    0.0000
      2 H1         5.1695    0.0493    7.4619 H         1 RES1    0.0000
      3 N1         3.8289    1.3320    8.3400 N.3       1 RES1    0.0000
      4 N2         2.7568    0.5625    7.8289 N.pl3     1 RES1    0.0000
      5 O1         2.9707   -0.5945    7.5728 O.2       1 RES1    0.0000
      6 O2         1.6707    1.1145    7.7845 O.2       1 RES1    0.0000
      7 C2         3.7345    2.7706    8.1058 C.3       1 RES1    0.0000
      8 H2         4.0254    3.2660    8.8862 H         1 RES1    0.0000
      9 H3         2.8230    3.0257    7.8939 H         1 RES1    0.0000
     10 N3         4.6211    3.0226    6.9706 N.3       1 RES1    0.0000
     11 N4         4.0116    3.0984    5.7082 N.pl3     1 RES1    0.0000
     12 O3         4.7425    3.0263    4.7383 O.2       1 RES1    0.0000
     13 O4         2.8146    3.3214    5.6683 O.2       1 RES1    0.0000
     14 C3         5.7387    2.0535    7.0759 C.3       1 RES1    0.0000
     15 H4         6.0240    1.7343    6.1952 H         1 RES1    0.0000
     16 N5         6.8432    2.5784    7.8343 N.am      1 RES1    0.0000
     17 C4         7.7323    3.5149    7.4074 C.2       1 RES1    0.0000
     18 O5         8.5427    3.9628    8.2052 O.2       1 RES1    0.0000
     19 C5         7.6513    3.9610    5.9812 C.3       1 RES1    0.0000
     20 H5         7.7182    3.1847    5.4033 H         1 RES1    0.0000
     21 H6         6.7859    4.3707    5.8256 H         1 RES1    0.0000
     22 C6         8.7090    4.9233    5.6174 C.3       1 RES1    0.0000
     23 H7         8.5914    5.2000    4.7068 H         1 RES1    0.0000
     24 H8         9.5696    4.5062    5.7166 H         1 RES1    0.0000
     25 H9         8.6569    5.6892    6.1933 H         1 RES1    0.0000
     26 C7         7.6083    3.6726    7.5845 Du        2 SUP2    0.0000
     27 O6         8.2709    4.1526    8.4951 Du        2 SUP2    0.0000
     28 C8         7.5972    4.2327    6.1952 Du        2 SUP2    0.0000
     29 H10        6.7050    4.1446    5.8256 Du        2 SUP2    0.0000
     30 H11        7.8088    5.1809    6.2361 Du        2 SUP2    0.0000
     31 C9         8.5615    3.5673    5.2963 Du        2 SUP2    0.0000
     32 H12        8.5325    3.9813    4.4324 Du        2 SUP2    0.0000
     33 H13        8.3311    2.6382    5.2146 Du        2 SUP2    0.0000
     34 H14        9.4460    3.6455    5.6602 Du        2 SUP2    0.0000
     35 C10        6.8933    2.0541    9.1932 C.3       1 RES1    0.0000
     36 H15        6.5066    2.6782    9.8279 H         1 RES1    0.0000
     37 H16        7.8034    1.8483    9.4602 H         1 RES1    0.0000
     38 N6         6.0868    0.8447    9.0777 N.am      1 RES1    0.0000
     39 C11        6.0574   -0.2045    9.9453 C.2       1 RES1    0.0000
     40 O7         5.2861   -1.1238    9.7598 O.2       1 RES1    0.0000
     41 C12        7.0066   -0.1368   11.1137 C.3       1 RES1    0.0000
     42 H17        7.9151   -0.2039   10.7833 H         1 RES1    0.0000
     43 H18        6.9133    0.7276   11.5441 H         1 RES1    0.0000
     44 C13        6.7812   -1.2125   12.1325 C.3       1 RES1    0.0000
     45 H19        7.3542   -1.0622   12.8886 H         1 RES1    0.0000
     46 H20        6.9823   -2.0677   11.7445 H         1 RES1    0.0000
     47 H21        5.8637   -1.1965   12.4177 H         1 RES1    0.0000
@<TRIPOS>BOND
     1    1    2 1
     2    3    1 1
     3    4    3 1
     4    5    4 2
     5    6    4 2
     6    7    3 1
     7    8    7 1
     8    9    7 1
     9   10    7 1
    10   11   10 1
    11   12   11 2
    12   13   11 2
    13   14    1 1
    14   15   14 1
    15   16   14 1
    16   17   16 1
    17   18   17 2
    18   19   17 1
    19   20   19 1
    20   21   19 1
    21   22   19 1
    22   23   22 1
    23   24   22 1
    24   25   22 1
    25   35   16 1
    26   36   35 1
    27   37   35 1
    28   38    1 1
    29   39   38 1
    30   40   39 2
    31   41   39 1
    32   42   41 1
    33   43   41 1
    34   44   41 1
    35   45   44 1
    36   46   44 1
    37   47   44 1
    38   10   14 1
    39   35   38 1
@<TRIPOS>SUBSTRUCTURE
     1 RES1 1
     2 SUP2 26

@<TRIPOS>CRYSIN
  23.8006    6.1611   20.2972  90.0000 106.5390  90.0000  15 1

