# MOL2 file generated by ConQuest
# Please check atom types

@<TRIPOS>MOLECULE
UGUGIM01
    26    27     1
SMALL
NO_CHARGES
****
Generated from CSD

@<TRIPOS>ATOM
      1 N1         6.3472   -0.4745    1.4520 N.3       1 RES1    0.0000
      2 N2         6.9401   -1.7266    1.7229 N.pl3     1 RES1    0.0000
      3 N3         6.9423    1.4702    2.4866 N.3       1 RES1    0.0000
      4 N4         4.2428    2.8522    3.9986 N.pl3     1 RES1    0.0000
      5 N5         7.9277    2.0886    3.1809 N.pl3     1 RES1    0.0000
      6 O1         3.2275    3.5094    3.8109 O.2       1 RES1    0.0000
      7 O2         6.2365   -2.5624    2.2397 O.2       1 RES1    0.0000
      8 C1         5.7070    1.1110    3.1440 C.3       1 RES1    0.0000
      9 H1         5.8425    0.8921    4.0895 H         1 RES1    0.0000
     10 O3         7.6158    2.5645    4.2686 O.2       1 RES1    0.0000
     11 N6         4.6664    2.0997    2.9589 N.3       1 RES1    0.0000
     12 O4         9.0037    2.1845    2.6375 O.2       1 RES1    0.0000
     13 N7         3.2119   -0.4329    1.0457 N.pl3     1 RES1    0.0000
     14 N8         4.1369    0.4301    1.5574 N.3       1 RES1    0.0000
     15 C2         5.2432   -0.1091    2.3315 C.3       1 RES1    0.0000
     16 H2         4.9649   -0.8518    2.9066 H         1 RES1    0.0000
     17 C3         3.6679    1.7426    1.9637 C.3       1 RES1    0.0000
     18 H3         2.7765    1.7030    2.3443 H         1 RES1    0.0000
     19 H4         3.6731    2.3665    1.2206 H         1 RES1    0.0000
     20 O5         4.8992    2.8542    5.0186 O.2       1 RES1    0.0000
     21 O6         3.5334   -1.6147    1.0097 O.2       1 RES1    0.0000
     22 O7         2.1937    0.0653    0.6197 O.2       1 RES1    0.0000
     23 O8         8.0775   -1.8801    1.3380 O.2       1 RES1    0.0000
     24 C4         7.2699    0.6489    1.3200 C.3       1 RES1    0.0000
     25 H5         8.1927    0.3516    1.3466 H         1 RES1    0.0000
     26 H6         7.1154    1.1353    0.4954 H         1 RES1    0.0000
@<TRIPOS>BOND
     1    1    2 1
     2    2    7 2
     3    3    5 1
     4    4    6 2
     5    5   10 2
     6    8    3 1
     7    9    8 1
     8   11    4 1
     9   12    5 2
    10   13   14 1
    11   14   15 1
    12   15    1 1
    13   16   15 1
    14   17   11 1
    15   18   17 1
    16   19   17 1
    17   20    4 2
    18   21   13 2
    19   22   13 2
    20   23    2 2
    21   24    1 1
    22   25   24 1
    23   26   24 1
    24    3   24 1
    25    8   11 1
    26    8   15 1
    27   14   17 1
@<TRIPOS>SUBSTRUCTURE
     1 RES1 1

@<TRIPOS>CRYSIN
   8.5430    6.9480    8.7780  90.0000 102.4520  90.0000   4 1

