# MOL2 file generated by ConQuest
# Please check atom types

@<TRIPOS>MOLECULE
UGUGIM
    26    27     1
SMALL
NO_CHARGES
****
Generated from CSD

@<TRIPOS>ATOM
      1 C1         1.0156    1.0626    2.3856 C.3       1 RES1    0.0000
      2 H1         0.7436    0.3030    2.9434 H         1 RES1    0.0000
      3 N1        -0.1025    1.6178    1.6329 N.3       1 RES1    0.0000
      4 N2        -1.0215    0.7596    1.0927 N.pl3     1 RES1    0.0000
      5 O1        -2.0482    1.2759    0.6807 O.2       1 RES1    0.0000
      6 O2        -0.7048   -0.4232    1.0294 O.2       1 RES1    0.0000
      7 C2        -0.5540    2.9257    2.0501 C.3       1 RES1    0.0000
      8 H2        -1.4457    2.8917    2.4295 H         1 RES1    0.0000
      9 H3        -0.5408    3.5588    1.3149 H         1 RES1    0.0000
     10 N3         0.4414    3.2558    3.0567 N.3       1 RES1    0.0000
     11 N4         0.0258    4.0043    4.1177 N.pl3     1 RES1    0.0000
     12 O3        -0.9936    4.6624    3.9306 O.2       1 RES1    0.0000
     13 O4         0.6763    3.9821    5.1331 O.2       1 RES1    0.0000
     14 C3         1.4824    2.2662    3.2306 C.3       1 RES1    0.0000
     15 H4         1.6117    2.0286    4.1731 H         1 RES1    0.0000
     16 N5         2.7315    2.6304    2.5806 N.3       1 RES1    0.0000
     17 N6         3.7115    3.2447    3.2903 N.pl3     1 RES1    0.0000
     18 O5         3.4090    3.6832    4.3900 O.2       1 RES1    0.0000
     19 O6         4.7853    3.3566    2.7299 O.2       1 RES1    0.0000
     20 C4         3.0287    1.8611    1.3825 C.3       1 RES1    0.0000
     21 H5         3.9539    1.5706    1.3737 H         1 RES1    0.0000
     22 H6         2.8501    2.3774    0.5815 H         1 RES1    0.0000
     23 N7         2.1169    0.7207    1.4914 N.3       1 RES1    0.0000
     24 N8         2.7206   -0.5372    1.7260 N.pl3     1 RES1    0.0000
     25 O7         2.0344   -1.3906    2.2293 O.2       1 RES1    0.0000
     26 O8         3.8530   -0.6790    1.3219 O.2       1 RES1    0.0000
@<TRIPOS>BOND
     1    1    2 1
     2    3    1 1
     3    4    3 1
     4    5    4 2
     5    6    4 2
     6    7    3 1
     7    8    7 1
     8    9    7 1
     9   10    7 1
    10   11   10 1
    11   12   11 2
    12   13   11 2
    13   14    1 1
    14   15   14 1
    15   16   14 1
    16   17   16 1
    17   18   17 2
    18   19   17 2
    19   20   16 1
    20   21   20 1
    21   22   20 1
    22   23    1 1
    23   24   23 1
    24   25   24 2
    25   26   24 2
    26   10   14 1
    27   20   23 1
@<TRIPOS>SUBSTRUCTURE
     1 RES1 1

@<TRIPOS>CRYSIN
   8.5979    6.9495    8.9726  90.0000 101.7830  90.0000   4 1

