# MOL2 file generated by ConQuest
# Please check atom types

@<TRIPOS>MOLECULE
UHALUK
    18    19     1
SMALL
NO_CHARGES
****
Generated from CSD

@<TRIPOS>ATOM
      1 O1         1.0843    3.7628    4.0828 O.3       1 RES1    0.0000
      2 N1         1.5773    0.5270    5.1736 N.2       1 RES1    0.0000
      3 C1         1.1982    1.6751    4.4694 C.2       1 RES1    0.0000
      4 N2         1.5529    2.8407    4.9581 N.2       1 RES1    0.0000
      5 C2         0.4727    1.8641    3.2362 C.2       1 RES1    0.0000
      6 N3         0.4152    3.1613    3.0021 N.2       1 RES1    0.0000
      7 N4        -0.0738    0.9448    2.4438 N.3       1 RES1    0.0000
      8 H1        -0.5036    1.1903    1.7161 H         1 RES1    0.0000
      9 H2        -0.0056    0.0915    2.6475 H         1 RES1    0.0000
     10 N1B        1.1438   -0.5270    4.6212 N.2       1 RES1    0.0000
     11 C1B        1.5229   -1.6751    5.3254 C.2       1 RES1    0.0000
     12 N2B        1.1681   -2.8407    4.8367 N.2       1 RES1    0.0000
     13 O1B        1.6367   -3.7628    5.7120 O.3       1 RES1    0.0000
     14 N3B        2.3059   -3.1613    6.7927 N.2       1 RES1    0.0000
     15 C2B        2.2484   -1.8641    6.5586 C.2       1 RES1    0.0000
     16 N4B        2.7949   -0.9448    7.3510 N.3       1 RES1    0.0000
     17 H1B        3.2246   -1.1903    8.0788 H         1 RES1    0.0000
     18 H2B        2.7267   -0.0915    7.1473 H         1 RES1    0.0000
@<TRIPOS>BOND
     1    1    4 1
     2    2    3 1
     3    3    4 2
     4    5    3 1
     5    6    1 1
     6    7    5 1
     7    8    7 1
     8    9    7 1
     9   10    2 2
    10   11   10 1
    11   12   11 2
    12   13   12 1
    13   14   13 1
    14   15   11 1
    15   16   15 1
    16   17   16 1
    17   18   16 1
    18    5    6 2
    19   14   15 2
@<TRIPOS>SUBSTRUCTURE
     1 RES1 1

@<TRIPOS>CRYSIN
   3.7431   10.0530    9.8480  90.0000  95.9570  90.0000  14 1

