# MOL2 file generated by ConQuest
# Please check atom types

@<TRIPOS>MOLECULE
UHARAX
    33    35     1
SMALL
NO_CHARGES
****
Generated from CSD

@<TRIPOS>ATOM
      1 N1         5.0263    6.9256    5.4174 N.ar      1 RES1    0.0000
      2 C1         6.1646    6.3650    4.9871 C.ar      1 RES1    0.0000
      3 H1         6.8657    6.9651    4.7634 H         1 RES1    0.0000
      4 N2         6.4371    5.0557    4.8329 N.ar      1 RES1    0.0000
      5 C2         5.5065    4.1501    5.1882 C.ar      1 RES1    0.0000
      6 C3         4.3131    4.6127    5.7273 C.ar      1 RES1    0.0000
      7 C4         4.1381    6.0070    5.7770 C.ar      1 RES1    0.0000
      8 N3         3.1661    3.9739    6.1846 N.2       1 RES1    0.0000
      9 C5         2.3496    4.9584    6.4697 C.2       1 RES1    0.0000
     10 H2         1.4726    4.8176    6.8065 H         1 RES1    0.0000
     11 N4         2.8653    6.2076    6.2419 N.pl3     1 RES1    0.0000
     12 C6         2.1486    7.4606    6.3217 C.ar      1 RES1    0.0000
     13 C7         1.8646    8.0178    7.5529 C.ar      1 RES1    0.0000
     14 H3         2.1563    7.5923    8.3506 H         1 RES1    0.0000
     15 C8         1.1530    9.2023    7.6143 C.ar      1 RES1    0.0000
     16 H4         0.9453    9.5883    8.4571 H         1 RES1    0.0000
     17 C9         0.7447    9.8229    6.4515 C.ar      1 RES1    0.0000
     18 C10        1.0394    9.2656    5.2189 C.ar      1 RES1    0.0000
     19 H5         0.7605    9.6953    4.4190 H         1 RES1    0.0000
     20 C11        1.7476    8.0730    5.1633 C.ar      1 RES1    0.0000
     21 H6         1.9542    7.6820    4.3227 H         1 RES1    0.0000
     22 O1         0.0394   10.9888    6.6092 O.3       1 RES1    0.0000
     23 C12       -0.4944   11.6074    5.4299 C.3       1 RES1    0.0000
     24 H7        -0.9614   12.4329    5.6770 H         1 RES1    0.0000
     25 H8        -1.1220   10.9941    4.9955 H         1 RES1    0.0000
     26 H9         0.2370   11.8181    4.8116 H         1 RES1    0.0000
     27 C13        5.7706    2.7096    4.9352 C.2       1 RES1    0.0000
     28 N5         6.8049    2.4285    4.2083 N.2       1 RES1    0.0000
     29 O2         6.8654    1.0149    4.0276 O.3       1 RES1    0.0000
     30 H10        7.6858    0.9219    3.5025 H         1 RES1    0.0000
     31 N6         4.9148    1.8125    5.4644 N.3       1 RES1    0.0000
     32 H11        4.1435    2.1071    5.8317 H         1 RES1    0.0000
     33 H12        4.9993    0.9713    5.3340 H         1 RES1    0.0000
@<TRIPOS>BOND
     1    1    2 ar
     2    2    3 1
     3    4    2 ar
     4    5    4 ar
     5    6    5 ar
     6    7    1 ar
     7    8    6 1
     8    9    8 2
     9   10    9 1
    10   11    7 1
    11   12   11 1
    12   13   12 ar
    13   14   13 1
    14   15   13 ar
    15   16   15 1
    16   17   15 ar
    17   18   17 ar
    18   19   18 1
    19   20   12 ar
    20   21   20 1
    21   22   17 1
    22   23   22 1
    23   24   23 1
    24   25   23 1
    25   26   23 1
    26   27    5 1
    27   28   27 2
    28   29   28 1
    29   30   29 1
    30   31   27 1
    31   32   31 1
    32   33   31 1
    33    6    7 ar
    34    9   11 1
    35   18   20 ar
@<TRIPOS>SUBSTRUCTURE
     1 RES1 1

@<TRIPOS>CRYSIN
  10.5860    8.2310   14.6050  90.0000  92.2440  90.0000 231 1

