# MOL2 file generated by ConQuest
# Please check atom types

@<TRIPOS>MOLECULE
UHASIG
    55    59     1
SMALL
NO_CHARGES
****
Generated from CSD

@<TRIPOS>ATOM
      1 O1        -0.6672    5.7523    1.0827 O.2       1 RES1    0.0000
      2 O2         1.2074    2.1080    0.5138 O.3       1 RES1    0.0000
      3 O3         4.9903    7.4939   -2.5755 O.2       1 RES1    0.0000
      4 O4         4.0676    6.2214   -4.0417 O.2       1 RES1    0.0000
      5 N1         0.4781    3.9302    1.7204 N.am      1 RES1    0.0000
      6 N2         4.1526    6.6885   -2.9168 N.pl3     1 RES1    0.0000
      7 C1         1.5864    2.9818    1.5809 C.3       1 RES1    0.0000
      8 C2         1.6297    2.2530    2.9535 C.3       1 RES1    0.0000
      9 C3         0.2101    2.4463    3.4361 C.ar      1 RES1    0.0000
     10 C4        -0.4607    1.8181    4.4839 C.ar      1 RES1    0.0000
     11 C5        -1.7486    2.2490    4.7904 C.ar      1 RES1    0.0000
     12 C6        -2.3331    3.2738    4.0940 C.ar      1 RES1    0.0000
     13 C7        -1.6757    3.9161    3.0554 C.ar      1 RES1    0.0000
     14 C8        -0.4072    3.4751    2.7452 C.ar      1 RES1    0.0000
     15 C9         2.5902    3.0141    3.8811 C.3       1 RES1    0.0000
     16 C10        2.0374    0.7792    2.8563 C.3       1 RES1    0.0000
     17 C11        0.2915    5.0275    0.9551 C.2       1 RES1    0.0000
     18 C12        1.3699    5.3617   -0.0422 C.ar      1 RES1    0.0000
     19 C13        1.4393    4.7597   -1.2699 C.ar      1 RES1    0.0000
     20 C14        2.3572    5.1926   -2.2085 C.ar      1 RES1    0.0000
     21 C15        3.1933    6.2154   -1.9039 C.ar      1 RES1    0.0000
     22 C16        3.1723    6.8174   -0.6744 C.ar      1 RES1    0.0000
     23 C17        2.2439    6.3946    0.2441 C.ar      1 RES1    0.0000
     24 C18        2.2022    1.4537   -0.1982 C.ar      1 RES1    0.0000
     25 C19        3.5176    1.8080   -0.2578 C.ar      1 RES1    0.0000
     26 C20        4.4212    1.0570   -1.0506 C.ar      1 RES1    0.0000
     27 C21        5.7804    1.4114   -1.1313 C.ar      1 RES1    0.0000
     28 C22        6.6464    0.6765   -1.9029 C.ar      1 RES1    0.0000
     29 C23        6.1938   -0.4389   -2.6067 C.ar      1 RES1    0.0000
     30 C24        4.8902   -0.8114   -2.5425 C.ar      1 RES1    0.0000
     31 C25        3.9570   -0.0664   -1.7653 C.ar      1 RES1    0.0000
     32 C26        2.5915   -0.3846   -1.6873 C.ar      1 RES1    0.0000
     33 C27        1.7306    0.3483   -0.9350 C.ar      1 RES1    0.0000
     34 H1         2.4049    3.4248    1.3946 H         1 RES1    0.0000
     35 H2        -0.0500    1.1174    4.9748 H         1 RES1    0.0000
     36 H3        -2.2287    1.8241    5.4923 H         1 RES1    0.0000
     37 H4        -3.2111    3.5516    4.3289 H         1 RES1    0.0000
     38 H5        -2.0820    4.6288    2.5782 H         1 RES1    0.0000
     39 H6         2.3052    2.9174    4.7812 H         1 RES1    0.0000
     40 H7         2.5902    3.9342    3.6398 H         1 RES1    0.0000
     41 H8         3.4686    2.6637    3.7894 H         1 RES1    0.0000
     42 H9         2.6304    0.6644    2.1232 H         1 RES1    0.0000
     43 H10        2.4700    0.5114    3.6582 H         1 RES1    0.0000
     44 H11        1.2632    0.2436    2.7260 H         1 RES1    0.0000
     45 H12        0.8528    4.0429   -1.4781 H         1 RES1    0.0000
     46 H13        2.4037    4.7758   -3.0609 H         1 RES1    0.0000
     47 H14        3.7881    7.5100   -0.4624 H         1 RES1    0.0000
     48 H15        2.1992    6.8214    1.0919 H         1 RES1    0.0000
     49 H16        3.8292    2.5610    0.2321 H         1 RES1    0.0000
     50 H17        6.1019    2.1624   -0.6478 H         1 RES1    0.0000
     51 H18        7.5608    0.9302   -1.9580 H         1 RES1    0.0000
     52 H19        6.8020   -0.9423   -3.1343 H         1 RES1    0.0000
     53 H20        4.5964   -1.5765   -3.0214 H         1 RES1    0.0000
     54 H21        2.2613   -1.1315   -2.1736 H         1 RES1    0.0000
     55 H22        0.8091    0.1168   -0.9056 H         1 RES1    0.0000
@<TRIPOS>BOND
     1    1   17 2
     2    2    7 1
     3    3    6 2
     4    4    6 2
     5    5    7 1
     6    6   21 1
     7    7    8 1
     8    8    9 1
     9    9   10 ar
    10   10   11 ar
    11   11   12 ar
    12   12   13 ar
    13   13   14 ar
    14   14    5 1
    15   15    8 1
    16   16    8 1
    17   17    5 1
    18   18   17 1
    19   19   18 ar
    20   20   19 ar
    21   21   20 ar
    22   22   21 ar
    23   23   18 ar
    24   24    2 1
    25   25   24 ar
    26   26   25 ar
    27   27   26 ar
    28   28   27 ar
    29   29   28 ar
    30   30   29 ar
    31   31   26 ar
    32   32   31 ar
    33   33   24 ar
    34   34    7 1
    35   35   10 1
    36   36   11 1
    37   37   12 1
    38   38   13 1
    39   39   15 1
    40   40   15 1
    41   41   15 1
    42   42   16 1
    43   43   16 1
    44   44   16 1
    45   45   19 1
    46   46   20 1
    47   47   22 1
    48   48   23 1
    49   49   25 1
    50   50   27 1
    51   51   28 1
    52   52   29 1
    53   53   30 1
    54   54   32 1
    55   55   33 1
    56    9   14 ar
    57   22   23 ar
    58   30   31 ar
    59   32   33 ar
@<TRIPOS>SUBSTRUCTURE
     1 RES1 1

@<TRIPOS>CRYSIN
  12.2810   20.1340    9.8540  90.0000 111.3900  90.0000  14 2

