# MOL2 file generated by ConQuest
# Please check atom types

@<TRIPOS>MOLECULE
UHATON
    27    28     1
SMALL
NO_CHARGES
****
Generated from CSD

@<TRIPOS>ATOM
      1 O1         5.3676    4.1456    0.5233 O.2       1 RES1    0.0000
      2 O2         4.8347   -1.4539    1.4140 O.3       1 RES1    0.0000
      3 H1         5.1264   -2.2076    1.2785 H         1 RES1    0.0000
      4 O3         1.2943    2.1247    2.3117 O.2       1 RES1    0.0000
      5 O4         0.4039    3.9960    2.8752 O.2       1 RES1    0.0000
      6 N1         5.1273    2.8785    0.8550 N.pl3     1 RES1    0.0000
      7 N2         4.1249    1.0618    1.7438 N.pl3     1 RES1    0.0000
      8 H2         3.6285    0.5382    2.2128 H         1 RES1    0.0000
      9 N3         6.9685    1.9360   -0.2104 N.pl3     1 RES1    0.0000
     10 H3         7.2403    2.6982   -0.5010 H         1 RES1    0.0000
     11 H4         7.4119    1.2220   -0.3941 H         1 RES1    0.0000
     12 N4         5.6853   -0.5082    0.8158 N.2       1 RES1    0.0000
     13 N5         1.3458    3.2234    2.8297 N.pl3     1 RES1    0.0000
     14 C1         3.9030    2.4926    1.5860 C.3       1 RES1    0.0000
     15 H5         3.1069    2.6603    1.0395 H         1 RES1    0.0000
     16 C2         5.8664    1.8611    0.5224 C.2       1 RES1    0.0000
     17 C3         5.2286    0.6629    1.0467 C.2       1 RES1    0.0000
     18 C4         3.8112    3.2331    2.9001 C.ar      1 RES1    0.0000
     19 C5         2.6035    3.6407    3.4342 C.ar      1 RES1    0.0000
     20 C6         2.5459    4.4096    4.6056 C.ar      1 RES1    0.0000
     21 H6         1.7277    4.6899    4.9480 H         1 RES1    0.0000
     22 C7         3.7143    4.7401    5.2342 C.ar      1 RES1    0.0000
     23 H7         3.6876    5.2517    6.0098 H         1 RES1    0.0000
     24 C8         4.9075    4.3338    4.7474 C.ar      1 RES1    0.0000
     25 H8         5.6910    4.5533    5.1976 H         1 RES1    0.0000
     26 C9         4.9673    3.5980    3.5848 C.ar      1 RES1    0.0000
     27 H9         5.7964    3.3390    3.2514 H         1 RES1    0.0000
@<TRIPOS>BOND
     1    1    6 1
     2    2    3 1
     3    4   13 2
     4    5   13 2
     5    6   14 1
     6    7    8 1
     7    9   10 1
     8   11    9 1
     9   12    2 1
    10   13   19 1
    11   14    7 1
    12   15   14 1
    13   16    6 2
    14   17    7 1
    15   18   14 1
    16   19   18 ar
    17   20   19 ar
    18   21   20 1
    19   22   20 ar
    20   23   22 1
    21   24   22 ar
    22   25   24 1
    23   26   18 ar
    24   27   26 1
    25    9   16 1
    26   12   17 2
    27   16   17 1
    28   24   26 ar
@<TRIPOS>SUBSTRUCTURE
     1 RES1 1

@<TRIPOS>CRYSIN
   7.6372    7.8628   10.0673 110.1000 106.2610  95.2100   2 1

