# MOL2 file generated by ConQuest
# Please check atom types

@<TRIPOS>MOLECULE
UHIFOI
    42    44     1
SMALL
NO_CHARGES
****
Generated from CSD

@<TRIPOS>ATOM
      1 C1         6.9838    0.3483   10.9333 C.ar      1 RES1    0.0000
      2 H1         7.1775    1.2221   10.6820 H         1 RES1    0.0000
      3 C2         4.4146    0.7804   11.3368 C.3       1 RES1    0.0000
      4 C3         2.1431   -0.7085    9.0363 C.2       1 RES1    0.0000
      5 C4         3.8173    1.1428    9.9300 C.3       1 RES1    0.0000
      6 H2         3.0280    1.7009   10.0900 H         1 RES1    0.0000
      7 C5         3.3441   -0.0919    9.2368 C.2       1 RES1    0.0000
      8 C6         7.9790   -0.6181   10.9744 C.ar      1 RES1    0.0000
      9 C7         5.4347   -1.3199   11.6606 C.ar      1 RES1    0.0000
     10 C8         5.6976   -0.0222   11.2765 C.ar      1 RES1    0.0000
     11 C9         3.4618   -0.2401   11.9785 C.2       1 RES1    0.0000
     12 C10        7.6926   -1.9306   11.3187 C.ar      1 RES1    0.0000
     13 H3         8.3706   -2.5680   11.3151 H         1 RES1    0.0000
     14 C11        2.4165   -1.9632    8.4193 C.2       1 RES1    0.0000
     15 C12        4.7729    1.9610    9.0690 C.3       1 RES1    0.0000
     16 H4         4.3547    2.1581    8.2269 H         1 RES1    0.0000
     17 H5         5.5768    1.4593    8.9176 H         1 RES1    0.0000
     18 H6         4.9870    2.7814    9.5194 H         1 RES1    0.0000
     19 C13        6.3958   -2.2990   11.6702 C.ar      1 RES1    0.0000
     20 H7         6.1885   -3.1750   11.9022 H         1 RES1    0.0000
     21 C14       10.3136   -1.0680   10.6755 C.3       1 RES1    0.0000
     22 H8        11.1207   -0.6129   10.4222 H         1 RES1    0.0000
     23 H9        10.1468   -1.7891   10.0637 H         1 RES1    0.0000
     24 H10       10.4113   -1.4185   11.5651 H         1 RES1    0.0000
     25 C15        1.4903   -3.1305    8.0411 C.3       1 RES1    0.0000
     26 H11        2.0037   -3.9509    7.9836 H         1 RES1    0.0000
     27 H12        0.8112   -3.2439    8.7236 H         1 RES1    0.0000
     28 C16        0.8559   -2.8585    6.7585 C.3       1 RES1    0.0000
     29 H13        0.2830   -3.5922    6.5233 H         1 RES1    0.0000
     30 H14        1.5302   -2.7503    6.0843 H         1 RES1    0.0000
     31 H15        0.3351   -2.0544    6.8226 H         1 RES1    0.0000
     32 N1         4.0740   -1.4192   12.0487 N.am      1 RES1    0.0000
     33 H16        3.6935   -2.1485   12.2985 H         1 RES1    0.0000
     34 N2         3.6887   -2.0833    8.2260 N.2       1 RES1    0.0000
     35 N3         0.8531   -0.1986    9.4009 N.pl3     1 RES1    0.0000
     36 O1         4.5820    1.9454   12.1030 O.3       1 RES1    0.0000
     37 H17        3.8845    2.3768   12.1012 H         1 RES1    0.0000
     38 O2         4.2873   -0.8990    8.7375 O.3       1 RES1    0.0000
     39 O3         2.2905   -0.0133   12.3305 O.2       1 RES1    0.0000
     40 O4         9.2309   -0.1616   10.6434 O.3       1 RES1    0.0000
     41 O5         0.7612    0.9635    9.7587 O.2       1 RES1    0.0000
     42 O6        -0.0979   -0.9434    9.3348 O.2       1 RES1    0.0000
@<TRIPOS>BOND
     1    1    2 1
     2    3    5 1
     3    4    7 2
     4    5    6 1
     5    7    5 1
     6    8    1 ar
     7    9   10 ar
     8   10    1 ar
     9   11    3 1
    10   12    8 ar
    11   13   12 1
    12   14    4 1
    13   15    5 1
    14   16   15 1
    15   17   15 1
    16   18   15 1
    17   19    9 ar
    18   20   19 1
    19   21   22 1
    20   23   21 1
    21   24   21 1
    22   25   14 1
    23   26   25 1
    24   27   25 1
    25   28   25 1
    26   29   28 1
    27   30   28 1
    28   31   28 1
    29   32    9 1
    30   33   32 1
    31   34   14 2
    32   35    4 1
    33   36    3 1
    34   37   36 1
    35   38    7 1
    36   39   11 2
    37   40    8 1
    38   41   35 2
    39   42   35 2
    40    3   10 1
    41   11   32 1
    42   12   19 ar
    43   21   40 1
    44   34   38 1
@<TRIPOS>SUBSTRUCTURE
     1 RES1 1

@<TRIPOS>CRYSIN
  13.5271    7.4112   16.5010  90.0000  94.7630  90.0000 231 1

