# MOL2 file generated by ConQuest
# Please check atom types

@<TRIPOS>MOLECULE
UHOPAJ
    25    25     1
SMALL
NO_CHARGES
****
Generated from CSD

@<TRIPOS>ATOM
      1 O1         1.3622   -0.0738    2.0600 O.2       1 RES1    0.0000
      2 N1         0.8589    1.0848    1.9826 N.pl3     1 RES1    0.0000
      3 C1         1.5476    2.3297    2.4314 C.3       1 RES1    0.0000
      4 C2         1.5686    2.2705    3.9475 C.3       1 RES1    0.0000
      5 H1         0.6706    2.2887    4.3241 H         1 RES1    0.0000
      6 H2         2.0432    3.0364    4.2689 H         1 RES1    0.0000
      7 H3         2.0642    1.4389    4.2326 H         1 RES1    0.0000
      8 C3         2.9600    2.3736    1.8633 C.3       1 RES1    0.0000
      9 H4         3.5101    1.6768    2.2842 H         1 RES1    0.0000
     10 H5         3.3949    3.1611    2.1140 H         1 RES1    0.0000
     11 H6         2.9653    2.3000    0.8513 H         1 RES1    0.0000
     12 C4         0.5419    3.3759    1.8527 C.3       1 RES1    0.0000
     13 C5         0.9022    3.8307    0.4425 C.3       1 RES1    0.0000
     14 H7         0.1572    4.3960    0.1182 H         1 RES1    0.0000
     15 H8         1.6660    4.3507    0.4477 H         1 RES1    0.0000
     16 H9         0.9640    3.0931   -0.1435 H         1 RES1    0.0000
     17 C6         0.3405    4.5887    2.7540 C.3       1 RES1    0.0000
     18 H10       -0.2200    5.2345    2.2795 H         1 RES1    0.0000
     19 H11        1.2050    4.9739    2.9526 H         1 RES1    0.0000
     20 H12       -0.0629    4.3167    3.6131 H         1 RES1    0.0000
     21 N2        -0.7517    2.6320    1.7118 N.2       1 RES1    0.0000
     22 C7        -0.4789    1.3741    1.7336 C.2       1 RES1    0.0000
     23 C8        -1.4093    0.2957    1.5756 C.1       1 RES1    0.0000
     24 C9        -2.1459   -0.6264    1.5040 C.1       1 RES1    0.0000
     25 H13       -2.7557   -1.3256    1.4314 H         1 RES1    0.0000
@<TRIPOS>BOND
     1    1    2 1
     2    2    3 1
     3    3    4 1
     4    4    5 1
     5    6    4 1
     6    7    4 1
     7    8    3 1
     8    9    8 1
     9   10    8 1
    10   11    8 1
    11   12    3 1
    12   13   12 1
    13   14   13 1
    14   15   13 1
    15   16   13 1
    16   17   12 1
    17   18   17 1
    18   19   17 1
    19   20   17 1
    20   21   12 1
    21   22    2 1
    22   23   22 1
    23   24   23 3
    24   25   24 1
    25   21   22 2
@<TRIPOS>SUBSTRUCTURE
     1 RES1 1

@<TRIPOS>CRYSIN
  10.4780   11.3300   15.7640  90.0000  90.0000  90.0000  61 1

