# MOL2 file generated by ConQuest
# Please check atom types

@<TRIPOS>MOLECULE
UHOPOX
    33    34     1
SMALL
NO_CHARGES
****
Generated from CSD

@<TRIPOS>ATOM
      1 N1         1.1027    7.5564    3.1646 N.pl3     1 RES1    0.0000
      2 O1         1.9417    7.0542    3.9551 O.2       1 RES1    0.0000
      3 C1         0.1066    8.5822    3.5710 C.3       1 RES1    0.0000
      4 N2        -0.1444    7.7699    1.3265 N.2       1 RES1    0.0000
      5 C2        -0.8845    7.8880    4.4941 C.3       1 RES1    0.0000
      6 H1        -0.4602    7.7091    5.3482 H         1 RES1    0.0000
      7 H2        -1.1689    7.0518    4.0932 H         1 RES1    0.0000
      8 H3        -1.6554    8.4605    4.6313 H         1 RES1    0.0000
      9 N3         1.8903    4.2571   -0.0589 N.2       1 RES1    0.0000
     10 C3         0.7844    9.6915    4.3306 C.3       1 RES1    0.0000
     11 H4         1.1124    9.3492    5.1770 H         1 RES1    0.0000
     12 H5         0.1496   10.4060    4.4941 H         1 RES1    0.0000
     13 H6         1.5283   10.0314    3.8095 H         1 RES1    0.0000
     14 N4         1.0495    5.2567    0.2555 N.3       1 RES1    0.0000
     15 C4        -0.4731    8.9460    2.1772 C.3       1 RES1    0.0000
     16 C5         0.2369   10.1221    1.5278 C.3       1 RES1    0.0000
     17 H7        -0.1573   10.2986    0.6598 H         1 RES1    0.0000
     18 H8         1.1778    9.9122    1.4199 H         1 RES1    0.0000
     19 H9         0.1438   10.9070    2.0905 H         1 RES1    0.0000
     20 C6        -1.9577    9.1691    2.1723 C.3       1 RES1    0.0000
     21 H10       -2.2536    9.3539    1.2673 H         1 RES1    0.0000
     22 H11       -2.1728    9.9217    2.7442 H         1 RES1    0.0000
     23 H12       -2.4045    8.3735    2.5037 H         1 RES1    0.0000
     24 C7         0.7677    7.0936    1.8935 C.2       1 RES1    0.0000
     25 C8         1.4802    5.9413    1.3399 C.2       1 RES1    0.0000
     26 C9         2.6580    5.3640    1.7252 C.2       1 RES1    0.0000
     27 H13        3.2113    5.6085    2.4436 H         1 RES1    0.0000
     28 C10        2.8525    4.3406    0.8186 C.2       1 RES1    0.0000
     29 H14        3.5965    3.7657    0.8325 H         1 RES1    0.0000
     30 C11       -0.1553    5.4189   -0.5319 C.3       1 RES1    0.0000
     31 H15       -0.1643    4.7640   -1.2472 H         1 RES1    0.0000
     32 H16       -0.1765    6.3123   -0.9111 H         1 RES1    0.0000
     33 H17       -0.9320    5.2901    0.0355 H         1 RES1    0.0000
@<TRIPOS>BOND
     1    1    2 1
     2    3    1 1
     3    4   15 1
     4    5    3 1
     5    6    5 1
     6    7    5 1
     7    8    5 1
     8    9   14 1
     9   10    3 1
    10   11   10 1
    11   12   10 1
    12   13   10 1
    13   14   25 1
    14   15    3 1
    15   16   15 1
    16   17   16 1
    17   18   16 1
    18   19   16 1
    19   20   15 1
    20   21   20 1
    21   22   20 1
    22   23   20 1
    23   24    1 1
    24   25   24 1
    25   26   25 2
    26   27   26 1
    27   28    9 2
    28   29   28 1
    29   30   14 1
    30   31   30 1
    31   32   30 1
    32   33   30 1
    33    4   24 2
    34   26   28 1
@<TRIPOS>SUBSTRUCTURE
     1 RES1 1

@<TRIPOS>CRYSIN
   6.4188   11.9280   15.4170  90.0000  90.0000  90.0000  19 1

