# MOL2 file generated by ConQuest
# Please check atom types

@<TRIPOS>MOLECULE
UHOQIS
    38    38     1
SMALL
NO_CHARGES
****
Generated from CSD

@<TRIPOS>ATOM
      1 O1         6.8469    5.1492    2.8331 O.2       1 RES1    0.0000
      2 N1         6.1906    6.2404    2.6832 N.pl3     1 RES1    0.0000
      3 C1         6.3612    7.4124    3.6224 C.3       1 RES1    0.0000
      4 C2         6.2681    6.9356    5.0677 C.3       1 RES1    0.0000
      5 H1         6.9896    6.3840    5.2604 H         1 RES1    0.0000
      6 H2         5.4070    6.3840    5.2242 H         1 RES1    0.0000
      7 H3         6.2138    7.6907    5.6577 H         1 RES1    0.0000
      8 C3         7.7436    7.9790    3.3354 C.3       1 RES1    0.0000
      9 H4         8.4015    7.2618    3.4782 H         1 RES1    0.0000
     10 H5         7.8972    8.6683    3.8961 H         1 RES1    0.0000
     11 H6         7.8352    8.3590    2.4972 H         1 RES1    0.0000
     12 C4         5.1766    8.3186    3.1620 C.3       1 RES1    0.0000
     13 C5         5.5157    9.8044    3.0730 C.3       1 RES1    0.0000
     14 H7         4.7011   10.2144    2.7822 H         1 RES1    0.0000
     15 H8         6.2371    9.9650    2.4869 H         1 RES1    0.0000
     16 H9         5.7251   10.1745    3.9272 H         1 RES1    0.0000
     17 C6         3.8710    8.1087    3.9296 C.3       1 RES1    0.0000
     18 H10        3.1263    8.5885    3.4661 H         1 RES1    0.0000
     19 H11        3.9874    8.4089    4.8183 H         1 RES1    0.0000
     20 H12        3.6383    7.2418    3.9445 H         1 RES1    0.0000
     21 N2         4.9121    7.7751    1.7811 N.pl3     1 RES1    0.0000
     22 O2         4.1115    8.3599    0.9587 O.2       1 RES1    0.0000
     23 C7         5.4334    6.5498    1.6246 C.2       1 RES1    0.0000
     24 C8         5.1766    5.6498    0.4753 C.3       1 RES1    0.0000
     25 H13        6.0121    5.3466    0.0259 H         1 RES1    0.0000
     26 H14        4.7166    6.0748   -0.1589 H         1 RES1    0.0000
     27 C9         4.4133    4.3957    0.9041 C.3       1 RES1    0.0000
     28 H15        4.9571    3.8803    1.4334 H         1 RES1    0.0000
     29 O3         3.2798    4.6573    1.6945 O.3       1 RES1    0.0000
     30 C10        2.2559    5.4354    1.0690 C.3       1 RES1    0.0000
     31 H16        1.5050    5.3366    1.6303 H         1 RES1    0.0000
     32 H17        1.9782    5.0473    0.1882 H         1 RES1    0.0000
     33 H18        2.5678    6.3541    0.9723 H         1 RES1    0.0000
     34 O4         4.1069    3.7177   -0.2870 O.3       1 RES1    0.0000
     35 C11        3.6197    2.3920   -0.0622 C.3       1 RES1    0.0000
     36 H19        3.5530    1.9351   -0.8462 H         1 RES1    0.0000
     37 H20        2.8005    2.4439    0.3972 H         1 RES1    0.0000
     38 H21        4.2822    1.8653    0.5354 H         1 RES1    0.0000
@<TRIPOS>BOND
     1    1    2 1
     2    2    3 1
     3    3    4 1
     4    4    5 1
     5    6    4 1
     6    7    4 1
     7    8    3 1
     8    9    8 1
     9   10    8 1
    10   11    8 1
    11   12    3 1
    12   13   12 1
    13   14   13 1
    14   15   13 1
    15   16   13 1
    16   17   12 1
    17   18   17 1
    18   19   17 1
    19   20   17 1
    20   21   12 1
    21   22   21 1
    22   23    2 1
    23   24   23 1
    24   25   24 1
    25   26   24 1
    26   27   24 1
    27   28   27 1
    28   29   27 1
    29   30   29 1
    30   31   30 1
    31   32   30 1
    32   33   30 1
    33   34   27 1
    34   35   34 1
    35   36   35 1
    36   37   35 1
    37   38   35 1
    38   21   23 2
@<TRIPOS>SUBSTRUCTURE
     1 RES1 1

@<TRIPOS>CRYSIN
   7.7576    9.9750   17.2700  90.0000  90.0000  90.0000  19 1

