# MOL2 file generated by ConQuest
# Please check atom types

@<TRIPOS>MOLECULE
UHOQUE
    26    25     1
SMALL
NO_CHARGES
****
Generated from CSD

@<TRIPOS>ATOM
      1 O1        -3.1345    2.7137   12.0661 O.2       1 RES1    0.0000
      2 N1        -4.3421    1.3700   13.4280 N.am      1 RES1    0.0000
      3 N2        -4.0311   -0.0887   16.0670 N.pl3     1 RES1    0.0000
      4 O2        -2.9217   -0.1117   15.5621 O.2       1 RES1    0.0000
      5 C1        -5.4270    1.1115   14.3879 C.3       1 RES1    0.0000
      6 C2        -3.9953    2.5465   12.9184 C.2       1 RES1    0.0000
      7 C3        -4.8874    1.1662   15.8784 C.3       1 RES1    0.0000
      8 O3        -4.4944   -1.0349   16.6885 O.2       1 RES1    0.0000
      9 C4        -6.0171    1.1138   16.9027 C.3       1 RES1    0.0000
     10 H1        -5.6590    0.9232   17.7957 H         1 RES1    0.0000
     11 H2        -6.6713    0.3572   16.6910 H         1 RES1    0.0000
     12 H3        -6.4608    1.9778   16.8535 H         1 RES1    0.0000
     13 C5        -3.9767    2.3547   16.1465 C.3       1 RES1    0.0000
     14 H4        -3.5861    2.3217   17.0653 H         1 RES1    0.0000
     15 H5        -4.4880    3.2210   16.0400 H         1 RES1    0.0000
     16 H6        -3.1688    2.3893   15.5346 H         1 RES1    0.0000
     17 C6        -5.9814   -0.2673   14.0477 C.3       1 RES1    0.0000
     18 H7        -6.4240   -0.2318   13.1786 H         1 RES1    0.0000
     19 H8        -6.6417   -0.5896   14.7044 H         1 RES1    0.0000
     20 H9        -5.2722   -0.8935   13.9583 H         1 RES1    0.0000
     21 C7        -6.5444    2.1483   14.2345 C.3       1 RES1    0.0000
     22 H10       -6.7823    2.2106   13.2965 H         1 RES1    0.0000
     23 H11       -6.2851    3.0439   14.5828 H         1 RES1    0.0000
     24 H12       -7.3370    1.8161   14.7260 H         1 RES1    0.0000
     25 H13       -4.4905    3.3475   13.2472 H         1 RES1    0.0000
     26 H14       -3.8591    0.6330   13.1208 H         1 RES1    0.0000
@<TRIPOS>BOND
     1    1    6 2
     2    2    5 1
     3    3    4 2
     4    5    7 1
     5    6    2 1
     6    7    3 1
     7    8    3 2
     8    9    7 1
     9   10    9 1
    10   11    9 1
    11   12    9 1
    12   13    7 1
    13   14   13 1
    14   15   13 1
    15   16   13 1
    16   17    5 1
    17   18   17 1
    18   19   17 1
    19   20   17 1
    20   21    5 1
    21   22   21 1
    22   23   21 1
    23   24   21 1
    24   25    6 1
    25   26    2 1
@<TRIPOS>SUBSTRUCTURE
     1 RES1 1

@<TRIPOS>CRYSIN
   6.2660    6.4810   12.3010  94.7750  97.7070 116.1170   2 1

