# MOL2 file generated by ConQuest
# Please check atom types

@<TRIPOS>MOLECULE
UHOQEO
    35    35     1
SMALL
NO_CHARGES
****
Generated from CSD

@<TRIPOS>ATOM
      1 O1         0.9340    6.7944    1.3146 O.2       1 RES1    0.0000
      2 N1         1.7703    6.1263    2.0027 N.pl3     1 RES1    0.0000
      3 C1         2.8105    6.7846    2.8169 C.3       1 RES1    0.0000
      4 N2         2.8682    4.4429    2.8079 N.pl3     1 RES1    0.0000
      5 O2         3.2555    3.2375    3.0374 O.2       1 RES1    0.0000
      6 C2         3.8300    7.3255    1.8414 C.3       1 RES1    0.0000
      7 O3         0.1528    1.8234    0.6686 O.3       1 RES1    0.0000
      8 C3         2.1871    7.9109    3.6062 C.3       1 RES1    0.0000
      9 C4         3.3097    5.5826    3.6595 C.3       1 RES1    0.0000
     10 C5         4.7918    5.5402    3.8818 C.3       1 RES1    0.0000
     11 C6         2.5631    5.4048    4.9737 C.3       1 RES1    0.0000
     12 C7         1.8859    4.7910    1.9829 C.2       1 RES1    0.0000
     13 C8         1.0054    3.9683    1.2311 C.2       1 RES1    0.0000
     14 C9         1.0239    2.6449    1.2591 C.2       1 RES1    0.0000
     15 C10       -0.9738    2.4019    0.0444 C.3       1 RES1    0.0000
     16 C11       -1.9002    1.3024   -0.3426 C.3       1 RES1    0.0000
     17 H1         5.2441    5.5475    2.9442 H         1 RES1    0.0000
     18 H2         0.3910    4.4036    0.7377 H         1 RES1    0.0000
     19 H3         5.0274    6.2755    4.3722 H         1 RES1    0.0000
     20 H4         1.7291    2.1902    1.7691 H         1 RES1    0.0000
     21 H5         1.8450    8.5609    3.0307 H         1 RES1    0.0000
     22 H6         2.7909    8.2536    4.2564 H         1 RES1    0.0000
     23 H7         1.4502    7.5694    4.1225 H         1 RES1    0.0000
     24 H8        -2.1808    0.8537    0.4390 H         1 RES1    0.0000
     25 H9        -1.4738    0.6951   -0.8519 H         1 RES1    0.0000
     26 H10       -1.4568    2.9402    0.6381 H         1 RES1    0.0000
     27 H11       -2.7436    1.6500   -0.7752 H         1 RES1    0.0000
     28 H12        4.4810    7.7731    2.3436 H         1 RES1    0.0000
     29 H13        5.0028    4.7304    4.4636 H         1 RES1    0.0000
     30 H14        4.2626    6.6073    1.3366 H         1 RES1    0.0000
     31 H15        1.5754    5.4219    4.8994 H         1 RES1    0.0000
     32 H16        2.8794    4.5853    5.3988 H         1 RES1    0.0000
     33 H17        2.9074    6.1243    5.5604 H         1 RES1    0.0000
     34 H18       -0.7129    2.8805   -0.6969 H         1 RES1    0.0000
     35 H19        3.3549    8.0243    1.2583 H         1 RES1    0.0000
@<TRIPOS>BOND
     1    1    2 1
     2    2    3 1
     3    3    6 1
     4    4    5 1
     5    6   28 1
     6    7   14 1
     7    8    3 1
     8    9    3 1
     9   10    9 1
    10   11    9 1
    11   12    2 1
    12   13   12 1
    13   14   13 2
    14   15    7 1
    15   16   15 1
    16   17   10 1
    17   18   13 1
    18   19   10 1
    19   20   14 1
    20   21    8 1
    21   22    8 1
    22   23    8 1
    23   24   16 1
    24   25   16 1
    25   26   15 1
    26   27   16 1
    27   29   10 1
    28   30    6 1
    29   31   11 1
    30   32   11 1
    31   33   11 1
    32   34   15 1
    33   35    6 1
    34    4    9 1
    35    4   12 2
@<TRIPOS>SUBSTRUCTURE
     1 RES1 1

@<TRIPOS>CRYSIN
   6.2041   12.1950   16.4670  90.0000  97.6500  90.0000 231 1

