# MOL2 file generated by ConQuest
# Please check atom types

@<TRIPOS>MOLECULE
UHUJAK
    33    35     1
SMALL
NO_CHARGES
****
Generated from CSD

@<TRIPOS>ATOM
      1 O1         0.6101   11.4440    1.5401 O.3       1 RES1    0.0000
      2 O2         4.0996   10.8341    3.5001 O.2       1 RES1    0.0000
      3 O3         1.7796    7.5543    2.1045 O.2       1 RES1    0.0000
      4 O4         4.1844    5.3300    6.0021 O.2       1 RES1    0.0000
      5 O5         3.1572    6.1900    4.3044 O.2       1 RES1    0.0000
      6 N1         3.9421    8.5430    3.4206 N.am      1 RES1    0.0000
      7 H1         3.3475    7.8183    3.2305 H         1 RES1    0.0000
      8 N2         4.1322    6.1324    5.0748 N.pl3     1 RES1    0.0000
      9 C1         1.7388   11.1296    2.2021 C.2       1 RES1    0.0000
     10 H2         2.2532   11.8505    2.5461 H         1 RES1    0.0000
     11 C2         2.2043    9.8858    2.4218 C.2       1 RES1    0.0000
     12 C3         1.4426    8.7308    1.9325 C.2       1 RES1    0.0000
     13 C4         0.2127    9.0875    1.1990 C.ar      1 RES1    0.0000
     14 C5        -0.6115    8.0937    0.6562 C.ar      1 RES1    0.0000
     15 H3        -0.3913    7.1773    0.7740 H         1 RES1    0.0000
     16 C6        -1.7458    8.4440   -0.0491 C.ar      1 RES1    0.0000
     17 H4        -2.2955    7.7662   -0.4249 H         1 RES1    0.0000
     18 C7        -2.0903    9.7855   -0.2139 C.ar      1 RES1    0.0000
     19 H5        -2.8742   10.0127   -0.7003 H         1 RES1    0.0000
     20 C8        -1.3043   10.7895    0.3238 C.ar      1 RES1    0.0000
     21 H6        -1.5391   11.7046    0.2248 H         1 RES1    0.0000
     22 C9        -0.1563   10.4112    1.0154 C.ar      1 RES1    0.0000
     23 C10        3.5168    9.8084    3.1589 C.2       1 RES1    0.0000
     24 C11        5.1480    8.1990    4.0681 C.ar      1 RES1    0.0000
     25 C12        5.2639    7.0263    4.8479 C.ar      1 RES1    0.0000
     26 C13        6.4612    6.6608    5.4579 C.ar      1 RES1    0.0000
     27 H7         6.5070    5.8726    5.9869 H         1 RES1    0.0000
     28 C14        7.5770    7.4502    5.2902 C.ar      1 RES1    0.0000
     29 H8         8.4008    7.2052    5.6949 H         1 RES1    0.0000
     30 C15        7.4936    8.6026    4.5285 C.ar      1 RES1    0.0000
     31 H9         8.2662    9.1420    4.4107 H         1 RES1    0.0000
     32 C16        6.2937    8.9834    3.9308 C.ar      1 RES1    0.0000
     33 H10        6.2551    9.7868    3.4249 H         1 RES1    0.0000
@<TRIPOS>BOND
     1    1    9 1
     2    2   23 2
     3    3   12 2
     4    4    8 2
     5    5    8 2
     6    6    7 1
     7    8   25 1
     8    9   10 1
     9   11    9 2
    10   12   11 1
    11   13   12 1
    12   14   13 ar
    13   15   14 1
    14   16   14 ar
    15   17   16 1
    16   18   16 ar
    17   19   18 1
    18   20   18 ar
    19   21   20 1
    20   22    1 1
    21   23    6 1
    22   24    6 1
    23   25   24 ar
    24   26   25 ar
    25   27   26 1
    26   28   26 ar
    27   29   28 1
    28   30   28 ar
    29   31   30 1
    30   32   24 ar
    31   33   32 1
    32   11   23 1
    33   13   22 ar
    34   20   22 ar
    35   30   32 ar
@<TRIPOS>SUBSTRUCTURE
     1 RES1 1

@<TRIPOS>CRYSIN
  14.1040   12.6920    7.3400  90.0000 100.0650  90.0000  14 1

