# MOL2 file generated by ConQuest
# Please check atom types

@<TRIPOS>MOLECULE
UJAFER
    35    37     1
SMALL
NO_CHARGES
****
Generated from CSD

@<TRIPOS>ATOM
      1 C1         1.0174    5.7790   23.5831 C.2       1 RES1    0.0000
      2 C2         1.4247    5.9134   24.9814 C.3       1 RES1    0.0000
      3 H1         0.7264    5.8328   25.6654 H         1 RES1    0.0000
      4 C3         4.1502    3.9163   26.7750 C.ar      1 RES1    0.0000
      5 H2         4.6706    3.7309   26.0260 H         1 RES1    0.0000
      6 C4        -1.2387    6.8224   21.6229 C.2       1 RES1    0.0000
      7 C5         3.0940    4.7966   26.6575 C.ar      1 RES1    0.0000
      8 C6         4.4529    3.3091   27.9661 C.ar      1 RES1    0.0000
      9 H3         5.1776    2.7270   28.0107 H         1 RES1    0.0000
     10 C7        -1.1729    4.4912   21.6169 C.2       1 RES1    0.0000
     11 C8        -1.8148    6.3925   20.3055 C.3       1 RES1    0.0000
     12 H4        -2.7302    6.7006   20.2180 H         1 RES1    0.0000
     13 H5        -1.2932    6.7534   19.5711 H         1 RES1    0.0000
     14 C9         2.3570    5.0519   27.8015 C.ar      1 RES1    0.0000
     15 H6         1.6506    5.6564   27.7684 H         1 RES1    0.0000
     16 C10       -1.7609    4.9059   20.3028 C.3       1 RES1    0.0000
     17 H7        -1.2081    4.5897   19.5711 H         1 RES1    0.0000
     18 H8        -2.6516    4.5369   20.1987 H         1 RES1    0.0000
     19 C11        3.7001    3.5437   29.1040 C.ar      1 RES1    0.0000
     20 C12        2.8188    5.4450   25.3519 C.3       1 RES1    0.0000
     21 H9         3.3328    5.0778   24.6029 H         1 RES1    0.0000
     22 C13        2.5436    6.8860   25.2470 C.3       1 RES1    0.0000
     23 H10        2.9162    7.3615   24.4873 H         1 RES1    0.0000
     24 H11        2.5084    7.3982   26.0701 H         1 RES1    0.0000
     25 C14        2.6580    4.4196   28.9889 C.ar      1 RES1    0.0000
     26 H12        2.1346    4.5960   29.7366 H         1 RES1    0.0000
     27 C15        4.0533    2.8658   30.4170 C.3       1 RES1    0.0000
     28 H13        3.2665    2.7950   30.9615 H         1 RES1    0.0000
     29 H14        4.7164    3.3852   30.8761 H         1 RES1    0.0000
     30 H15        4.4007    1.9881   30.2403 H         1 RES1    0.0000
     31 O1        -0.3614    5.6904   23.5415 O.3       1 RES1    0.0000
     32 O2         1.6793    5.7764   22.6042 O.2       1 RES1    0.0000
     33 O3        -1.0990    7.9185   22.0851 O.2       1 RES1    0.0000
     34 O4        -1.0010    3.4085   22.0876 O.2       1 RES1    0.0000
     35 N1        -0.8649    5.6626   22.2519 N.am      1 RES1    0.0000
@<TRIPOS>BOND
     1    1    2 1
     2    2    3 1
     3    4    5 1
     4    6   11 1
     5    7    4 ar
     6    8    4 ar
     7    9    8 1
     8   10   16 1
     9   11   12 1
    10   13   11 1
    11   14    7 ar
    12   15   14 1
    13   16   11 1
    14   17   16 1
    15   18   16 1
    16   19    8 ar
    17   20    2 1
    18   21   20 1
    19   22    2 1
    20   23   22 1
    21   24   22 1
    22   25   14 ar
    23   26   25 1
    24   27   19 1
    25   28   27 1
    26   29   27 1
    27   30   27 1
    28   31    1 1
    29   32    1 2
    30   33    6 2
    31   34   10 2
    32   35    6 1
    33    7   20 1
    34   10   35 1
    35   19   25 ar
    36   20   22 1
    37   31   35 1
@<TRIPOS>SUBSTRUCTURE
     1 RES1 1

@<TRIPOS>CRYSIN
   5.8676    8.9556   27.5262  90.0000  90.0000  90.0000  19 1

