# MOL2 file generated by ConQuest
# Please check atom types

@<TRIPOS>MOLECULE
UJAVUX
    42    44     1
SMALL
NO_CHARGES
****
Generated from CSD

@<TRIPOS>ATOM
      1 C1         3.4790    7.5112    2.7159 C.3       1 RES1    0.0000
      2 C2         2.4560    8.0167    1.7146 C.3       1 RES1    0.0000
      3 H1         2.9477    8.2253    0.8932 H         1 RES1    0.0000
      4 C3         1.4414    6.9534    1.3521 C.3       1 RES1    0.0000
      5 H2         0.7981    6.8737    2.0743 H         1 RES1    0.0000
      6 H3         0.9605    7.2344    0.5575 H         1 RES1    0.0000
      7 C4         2.0534    5.6250    1.1026 C.2       1 RES1    0.0000
      8 H4         1.5629    4.9919    0.6298 H         1 RES1    0.0000
      9 C5         3.2461    5.3077    1.5169 C.2       1 RES1    0.0000
     10 H5         3.5542    4.4444    1.3536 H         1 RES1    0.0000
     11 C6         4.1106    6.2154    2.2106 C.2       1 RES1    0.0000
     12 C7         4.4737    8.6048    3.0582 C.3       1 RES1    0.0000
     13 H6         5.0623    8.2890    3.7606 H         1 RES1    0.0000
     14 H7         5.0178    8.7946    2.2776 H         1 RES1    0.0000
     15 C8         3.8106    9.8694    3.5080 C.3       1 RES1    0.0000
     16 H8         3.3708    9.7101    4.3581 H         1 RES1    0.0000
     17 H9         4.4876   10.5503    3.6466 H         1 RES1    0.0000
     18 C9         2.8186   10.3663    2.5379 C.3       1 RES1    0.0000
     19 H10        3.2766   10.6546    1.7325 H         1 RES1    0.0000
     20 H11        2.3626   11.1355    2.9136 H         1 RES1    0.0000
     21 C10        1.8025    9.3161    2.1775 C.3       1 RES1    0.0000
     22 H12        1.2318    9.6551    1.4707 H         1 RES1    0.0000
     23 H13        1.2443    9.1350    2.9490 H         1 RES1    0.0000
     24 C11        3.1649    6.7115    5.0338 C.2       1 RES1    0.0000
     25 C12        2.1118    6.2382    5.9866 C.ar      1 RES1    0.0000
     26 C13        0.7707    6.1923    5.6572 C.ar      1 RES1    0.0000
     27 H14        0.4960    6.4652    4.8109 H         1 RES1    0.0000
     28 C14       -0.1654    5.7464    6.5697 C.ar      1 RES1    0.0000
     29 H15       -1.0679    5.7090    6.3493 H         1 RES1    0.0000
     30 C15        0.2747    5.3595    7.8113 C.ar      1 RES1    0.0000
     31 C16        1.5985    5.4023    8.1720 C.ar      1 RES1    0.0000
     32 H16        1.8687    5.1383    9.0227 H         1 RES1    0.0000
     33 C17        2.5161    5.8433    7.2497 C.ar      1 RES1    0.0000
     34 H17        3.4178    5.8771    7.4765 H         1 RES1    0.0000
     35 C18        5.3849    5.8930    2.4147 C.2       1 RES1    0.0000
     36 H18        5.7133    5.0789    2.1082 H         1 RES1    0.0000
     37 H19        5.9469    6.4811    2.8659 H         1 RES1    0.0000
     38 N1        -0.7154    4.8966    8.8015 N.pl3     1 RES1    0.0000
     39 O1         2.6374    7.1523    3.8932 O.3       1 RES1    0.0000
     40 O2         4.3392    6.6768    5.2884 O.2       1 RES1    0.0000
     41 O3        -1.8842    4.8600    8.4895 O.2       1 RES1    0.0000
     42 O4        -0.3153    4.5921    9.9031 O.2       1 RES1    0.0000
@<TRIPOS>BOND
     1    1    2 1
     2    2    3 1
     3    4    2 1
     4    5    4 1
     5    6    4 1
     6    7    4 1
     7    8    7 1
     8    9    7 2
     9   10    9 1
    10   11    1 1
    11   12    1 1
    12   13   12 1
    13   14   12 1
    14   15   12 1
    15   16   15 1
    16   17   15 1
    17   18   15 1
    18   19   18 1
    19   20   18 1
    20   21    2 1
    21   22   21 1
    22   23   21 1
    23   24   25 1
    24   25   26 ar
    25   26   27 1
    26   28   26 ar
    27   29   28 1
    28   30   28 ar
    29   31   30 ar
    30   32   31 1
    31   33   25 ar
    32   34   33 1
    33   35   11 2
    34   36   35 1
    35   37   35 1
    36   38   30 1
    37   39    1 1
    38   40   24 2
    39   41   38 2
    40   42   38 2
    41    9   11 1
    42   18   21 1
    43   24   39 1
    44   31   33 ar
@<TRIPOS>SUBSTRUCTURE
     1 RES1 1

@<TRIPOS>CRYSIN
   7.4341   14.4862   15.4000  90.0000  90.3790  90.0000  14 1

