# MOL2 file generated by ConQuest
# Please check atom types

@<TRIPOS>MOLECULE
UJEREG01
    16    16     1
SMALL
USER_CHARGES
****
Generated from CSD

@<TRIPOS>ATOM
      1 C1         6.9138    4.4727    7.2524 C.ar      1 RES1    0.0000
      2 C2         6.7346    4.7458    5.8915 C.ar      1 RES1    0.0000
      3 C3         7.0591    5.9793    5.3317 C.ar      1 RES1    0.0000
      4 H1         6.9597    6.1209    4.4424 H         1 RES1    0.0000
      5 C4         7.5989    6.9696    6.1382 C.ar      1 RES1    0.0000
      6 H2         7.8393    7.8377    5.7265 H         1 RES1    0.0000
      7 C5         7.7800    6.7178    7.4966 C.ar      1 RES1    0.0000
      8 H3         8.1571    7.4034    8.0726 H         1 RES1    0.0000
      9 C6         7.4351    5.4959    8.0540 C.ar      1 RES1    0.0000
     10 H4         7.5494    5.3655    8.9542 H         1 RES1    0.0000
     11 N1         6.5094    3.2087    7.7568 N.2       1 RES1    0.0000
     12 N2         6.6987    3.0379    8.9784 N.1       1 RES1    1.0000
     13 N3         6.8130    2.7372   10.0600 N.2       1 RES1   -1.0000
     14 N4         6.2148    3.7237    4.9760 N.pl3     1 RES1    0.0000
     15 O1         5.4675    4.1115    4.0664 O.2       1 RES1    0.0000
     16 O2         6.5592    2.5587    5.1263 O.2       1 RES1    0.0000
@<TRIPOS>BOND
     1    1    2 ar
     2    2    3 ar
     3    3    4 1
     4    5    3 ar
     5    6    5 1
     6    7    5 ar
     7    8    7 1
     8    9    1 ar
     9   10    9 1
    10   11    1 1
    11   12   11 2
    12   13   12 2
    13   14    2 1
    14   15   14 2
    15   16   14 2
    16    7    9 ar
@<TRIPOS>SUBSTRUCTURE
     1 RES1 1

@<TRIPOS>CRYSIN
   7.2552    7.5737    7.9331  70.8960  62.8040  66.7480   2 1

