# MOL2 file generated by ConQuest
# Please check atom types

@<TRIPOS>MOLECULE
UJIBOE
    60    65     1
SMALL
USER_CHARGES
****
Generated from CSD

@<TRIPOS>ATOM
      1 H1         4.6625    2.7329    3.7292 H         1 RES1    0.0000
      2 H2         0.6775    5.8651    6.1831 H         1 RES1    0.0000
      3 H3         1.5581    1.8853    6.6559 H         1 RES1    0.0000
      4 H4        -1.4842    4.9058    5.7061 H         1 RES1    0.0000
      5 H5        -3.6570    4.4102    6.3655 H         1 RES1    0.0000
      6 H6        -4.0809    2.7448    8.0870 H         1 RES1    0.0000
      7 H7        -2.2282    1.5655    8.9763 H         1 RES1    0.0000
      8 H8        -0.0307    2.0755    8.3074 H         1 RES1    0.0000
      9 C1         5.0565   -0.0447    6.2096 C.ar      1 RES1    0.0000
     10 C2         5.8037   -0.0636    5.0763 C.ar      1 RES1    0.0000
     11 C3         5.6898    0.9607    4.1455 C.ar      1 RES1    0.0000
     12 C4         4.7965    1.9812    4.4077 C.ar      1 RES1    0.0000
     13 C5         4.0251    1.9840    5.5553 C.ar      1 RES1    0.0000
     14 C6         3.0310    3.0504    5.8310 C.ar      1 RES1    0.0000
     15 C7         2.5137    5.2739    5.5403 C.ar      1 RES1    0.0000
     16 C8         1.2461    5.0935    6.0749 C.ar      1 RES1    0.0000
     17 C9         0.8461    3.8189    6.4771 C.ar      1 RES1    0.0000
     18 C10        1.7787    2.7892    6.3694 C.ar      1 RES1    0.0000
     19 C11       -0.5311    3.5444    6.9558 C.ar      1 RES1    0.0000
     20 C12       -1.6239    4.2235    6.4051 C.ar      1 RES1    0.0000
     21 C13       -2.9192    3.9307    6.8047 C.ar      1 RES1    0.0000
     22 C14       -3.1505    2.9566    7.7657 C.ar      1 RES1    0.0000
     23 C15       -2.0753    2.2778    8.3201 C.ar      1 RES1    0.0000
     24 C16       -0.7779    2.5674    7.9213 C.ar      1 RES1    0.0000
     25 N1         4.1762    0.9685    6.4709 N.pl3     1 RES1    1.0000
     26 N2         3.4035    4.2723    5.4058 N.ar      1 RES1    0.0000
     27 O1         3.5363    0.9819    7.6040 O.2       1 RES1   -1.0000
     28 H9         5.0958   -0.6740    6.8934 H         1 RES1    0.0000
     29 H10        6.4204   -0.7905    4.9567 H         1 RES1    0.0000
     30 H11        6.2269    0.9688    3.3084 H         1 RES1    0.0000
     31 C7B        2.9688    6.6133    5.0599 C.ar      1 RES1    0.0000
     32 C8B        4.2364    6.7937    4.5254 C.ar      1 RES1    0.0000
     33 H2B        4.8051    6.0221    4.4171 H         1 RES1    0.0000
     34 C9B        4.6365    8.0683    4.1232 C.ar      1 RES1    0.0000
     35 C10B       3.7038    9.0980    4.2309 C.ar      1 RES1    0.0000
     36 H3B        3.9244   10.0019    3.9444 H         1 RES1    0.0000
     37 C6B        2.4515    8.8368    4.7693 C.ar      1 RES1    0.0000
     38 C5B        1.4574    9.9032    5.0450 C.ar      1 RES1    0.0000
     39 C4B        0.6860    9.9060    6.1926 C.ar      1 RES1    0.0000
     40 H1B        0.8200    9.1543    6.8711 H         1 RES1    0.0000
     41 C3B       -0.2072   10.9265    6.4548 C.ar      1 RES1    0.0000
     42 C2B       -0.3211   11.9508    5.5240 C.ar      1 RES1    0.0000
     43 C1B        0.4260   11.9319    4.3906 C.ar      1 RES1    0.0000
     44 N1B        1.3063   10.9187    4.1293 N.pl3     1 RES1    1.0000
     45 O1B        1.9462   10.9053    2.9963 O.2       1 RES1   -1.0000
     46 H9B        0.3868   12.5612    3.7069 H         1 RES1    0.0000
     47 H10B      -0.9379   12.6777    5.6436 H         1 RES1    0.0000
     48 H11B      -0.7444   10.9184    7.2919 H         1 RES1    0.0000
     49 N2B        2.0790    7.6149    5.1945 N.ar      1 RES1    0.0000
     50 C11B       6.0137    8.3428    3.6445 C.ar      1 RES1    0.0000
     51 C12B       7.1065    7.6637    4.1952 C.ar      1 RES1    0.0000
     52 H4B        6.9668    6.9814    4.8942 H         1 RES1    0.0000
     53 C13B       8.4017    7.9565    3.7955 C.ar      1 RES1    0.0000
     54 H5B        9.1395    7.4770    4.2348 H         1 RES1    0.0000
     55 C14B       8.6331    8.9306    2.8346 C.ar      1 RES1    0.0000
     56 H6B        9.5635    9.1424    2.5133 H         1 RES1    0.0000
     57 C15B       7.5578    9.6094    2.2802 C.ar      1 RES1    0.0000
     58 H7B        7.7107   10.3217    1.6240 H         1 RES1    0.0000
     59 C16B       6.2604    9.3198    2.6790 C.ar      1 RES1    0.0000
     60 H8B        5.5133    9.8117    2.2928 H         1 RES1    0.0000
@<TRIPOS>BOND
     1    1   12 1
     2    2   16 1
     3    3   18 1
     4    4   20 1
     5    5   21 1
     6    6   22 1
     7    7   23 1
     8    8   24 1
     9    9   10 ar
    10   10   11 ar
    11   11   12 ar
    12   12   13 ar
    13   13   14 1
    14   14   18 ar
    15   15   16 ar
    16   16   17 ar
    17   17   18 ar
    18   19   17 1
    19   20   19 ar
    20   21   20 ar
    21   22   21 ar
    22   23   22 ar
    23   24   19 ar
    24   25    9 ar
    25   26   14 ar
    26   27   25 1
    27   28    9 1
    28   29   10 1
    29   30   11 1
    30   31   15 1
    31   32   31 ar
    32   33   32 1
    33   34   32 ar
    34   35   34 ar
    35   36   35 1
    36   37   35 ar
    37   38   37 1
    38   39   38 ar
    39   40   39 1
    40   41   39 ar
    41   42   41 ar
    42   43   42 ar
    43   44   38 ar
    44   45   44 1
    45   46   43 1
    46   47   42 1
    47   48   41 1
    48   49   31 ar
    49   50   34 1
    50   51   50 ar
    51   52   51 1
    52   53   51 ar
    53   54   53 1
    54   55   53 ar
    55   56   55 1
    56   57   55 ar
    57   58   57 1
    58   59   50 ar
    59   60   59 1
    60   13   25 ar
    61   15   26 ar
    62   23   24 ar
    63   37   49 ar
    64   43   44 ar
    65   57   59 ar
@<TRIPOS>SUBSTRUCTURE
     1 RES1 1

@<TRIPOS>CRYSIN
   9.5654   11.8872   11.3594  90.0000 111.0650  90.0000  14 1

