# MOL2 file generated by ConQuest
# Please check atom types

@<TRIPOS>MOLECULE
UJIHOM
    51    55     1
SMALL
NO_CHARGES
****
Generated from CSD

@<TRIPOS>ATOM
      1 N1         2.0379    0.1249    4.9287 N.2       1 RES1    0.0000
      2 N2         3.5229    0.6165    8.1032 N.pl3     1 RES1    0.0000
      3 N3         4.8541   -0.5429    6.7611 N.2       1 RES1    0.0000
      4 O1         0.7510    0.7191    4.9764 O.3       1 RES1    0.0000
      5 C1         0.5286    1.2618    6.2111 C.2       1 RES1    0.0000
      6 C2         2.5027    0.3344    6.1276 C.2       1 RES1    0.0000
      7 C3         1.6197    1.0386    6.9616 C.2       1 RES1    0.0000
      8 C4         2.2299    1.2626    8.3168 C.3       1 RES1    0.0000
      9 H1         2.3259    2.2061    8.5191 H         1 RES1    0.0000
     10 H2         1.7187    0.8291    9.0199 H         1 RES1    0.0000
     11 C5         3.7001    0.0508    6.8761 C.2       1 RES1    0.0000
     12 C6         5.4329   -0.3424    7.9836 C.2       1 RES1    0.0000
     13 H3         6.2799   -0.6542    8.2082 H         1 RES1    0.0000
     14 C7         4.6404    0.3634    8.8390 C.2       1 RES1    0.0000
     15 C8         4.8510    0.8500   10.2185 C.3       1 RES1    0.0000
     16 H4         5.5093    0.2852   10.6517 H         1 RES1    0.0000
     17 H5         4.0203    0.7638   10.7108 H         1 RES1    0.0000
     18 C9         5.3169    2.2891   10.2963 C.ar      1 RES1    0.0000
     19 C10        4.9581    3.0779   11.3644 C.ar      1 RES1    0.0000
     20 H6         4.3966    2.7314   12.0219 H         1 RES1    0.0000
     21 C11        5.4153    4.3759   11.4769 C.ar      1 RES1    0.0000
     22 C12        6.2528    4.8657   10.4995 C.ar      1 RES1    0.0000
     23 H7         6.5679    5.7383   10.5701 H         1 RES1    0.0000
     24 C13        6.6369    4.1011    9.4221 C.ar      1 RES1    0.0000
     25 C14        6.1506    2.8160    9.3362 C.ar      1 RES1    0.0000
     26 H8         6.3925    2.2882    8.6092 H         1 RES1    0.0000
     27 C15        4.9664    5.2485   12.6164 C.3       1 RES1    0.0000
     28 H9         5.7001    5.7883   12.9137 H         1 RES1    0.0000
     29 H10        4.6601    4.6965   13.3400 H         1 RES1    0.0000
     30 H11        4.2489    5.8157   12.3215 H         1 RES1    0.0000
     31 C16        7.5268    4.6546    8.3522 C.3       1 RES1    0.0000
     32 H12        6.9907    4.9439    7.6090 H         1 RES1    0.0000
     33 H13        8.1372    3.9746    8.0605 H         1 RES1    0.0000
     34 H14        8.0220    5.4007    8.7006 H         1 RES1    0.0000
     35 C17       -0.7519    1.8878    6.4469 C.ar      1 RES1    0.0000
     36 C18       -1.7161    1.9877    5.4512 C.ar      1 RES1    0.0000
     37 H15       -1.5342    1.6598    4.6000 H         1 RES1    0.0000
     38 C19       -2.9390    2.5678    5.7096 C.ar      1 RES1    0.0000
     39 C20       -3.1732    3.0440    6.9827 C.ar      1 RES1    0.0000
     40 H16       -3.9965    3.4388    7.1645 H         1 RES1    0.0000
     41 C21       -2.2468    2.9618    7.9950 C.ar      1 RES1    0.0000
     42 C22       -1.0323    2.3809    7.7030 C.ar      1 RES1    0.0000
     43 H17       -0.3878    2.3197    8.3686 H         1 RES1    0.0000
     44 C23       -4.0046    2.6581    4.6648 C.3       1 RES1    0.0000
     45 H18       -4.8342    2.3390    5.0262 H         1 RES1    0.0000
     46 H19       -3.7564    2.1207    3.9079 H         1 RES1    0.0000
     47 H20       -4.1067    3.5718    4.3890 H         1 RES1    0.0000
     48 C24       -2.5552    3.4541    9.3786 C.3       1 RES1    0.0000
     49 H21       -2.3238    2.7773   10.0187 H         1 RES1    0.0000
     50 H22       -3.4942    3.6507    9.4462 H         1 RES1    0.0000
     51 H23       -2.0466    4.2502    9.5559 H         1 RES1    0.0000
@<TRIPOS>BOND
     1    1    4 1
     2    2    8 1
     3    3   11 2
     4    4    5 1
     5    5    7 2
     6    6    1 2
     7    7    6 1
     8    8    7 1
     9    9    8 1
    10   10    8 1
    11   11    2 1
    12   12    3 1
    13   13   12 1
    14   14    2 1
    15   15   14 1
    16   16   15 1
    17   17   15 1
    18   18   15 1
    19   19   18 ar
    20   20   19 1
    21   21   19 ar
    22   22   21 ar
    23   23   22 1
    24   24   22 ar
    25   25   18 ar
    26   26   25 1
    27   27   21 1
    28   28   27 1
    29   29   27 1
    30   30   27 1
    31   31   24 1
    32   32   31 1
    33   33   31 1
    34   34   31 1
    35   35    5 1
    36   36   35 ar
    37   37   36 1
    38   38   36 ar
    39   39   38 ar
    40   40   39 1
    41   41   39 ar
    42   42   35 ar
    43   43   42 1
    44   44   38 1
    45   45   44 1
    46   46   44 1
    47   47   44 1
    48   48   41 1
    49   49   48 1
    50   50   48 1
    51   51   48 1
    52    6   11 1
    53   12   14 2
    54   24   25 ar
    55   41   42 ar
@<TRIPOS>SUBSTRUCTURE
     1 RES1 1

@<TRIPOS>CRYSIN
  34.0370    8.0572   14.1170  90.0000  94.8110  90.0000  15 1

