# MOL2 file generated by ConQuest
# Please check atom types

@<TRIPOS>MOLECULE
UJIHEA
    75    78     1
SMALL
NO_CHARGES
****
Generated from CSD

@<TRIPOS>ATOM
      1 N1         5.8359   -1.1876    7.8116 N.3       1 RES1    0.0000
      2 C1         4.8199   -0.3045    7.2244 C.3       1 RES1    0.0000
      3 C2         5.1877    1.1255    7.3540 C.2       1 RES1    0.0000
      4 N2         5.8414    1.8518    6.4527 N.3       1 RES1    0.0000
      5 C3         6.0224    3.2821    6.8496 C.3       1 RES1    0.0000
      6 C4         5.3692    3.3001    8.2751 C.3       1 RES1    0.0000
      7 N3         4.8689    1.9018    8.3954 N.pl3     1 RES1    0.0000
      8 O1         6.2791    1.4148    5.3284 O.2       1 RES1    0.0000
      9 C5         7.4909    3.6090    6.8099 C.3       1 RES1    0.0000
     10 C6         5.2787    4.1075    5.8152 C.3       1 RES1    0.0000
     11 C7         6.3397    3.4913    9.4029 C.3       1 RES1    0.0000
     12 C8         4.1819    4.2290    8.4047 C.3       1 RES1    0.0000
     13 O2         4.2208    1.5093    9.4216 O.2       1 RES1    0.0000
     14 C9         7.0330   -1.2454    6.9652 C.3       1 RES1    0.0000
     15 C10        8.2229   -1.6062    7.7661 C.2       1 RES1    0.0000
     16 N4         8.9728   -0.7145    8.4292 N.pl3     1 RES1    0.0000
     17 C11       10.0155   -1.3736    9.2850 C.3       1 RES1    0.0000
     18 C12       10.0118   -2.8204    8.7118 C.3       1 RES1    0.0000
     19 N5         8.7236   -2.8334    7.9436 N.3       1 RES1    0.0000
     20 O3         8.7743    0.5511    8.4433 O.2       1 RES1    0.0000
     21 C13        9.5029   -1.2649   10.7128 C.3       1 RES1    0.0000
     22 C14       11.3271   -0.6294    9.1239 C.3       1 RES1    0.0000
     23 C15       11.1017   -3.0987    7.6879 C.3       1 RES1    0.0000
     24 C16        9.9999   -3.9104    9.7637 C.3       1 RES1    0.0000
     25 O4         8.2584   -3.9216    7.4381 O.2       1 RES1    0.0000
     26 C17        5.2944   -2.5362    8.0136 C.3       1 RES1    0.0000
     27 C18        4.4043   -2.6837    9.2255 C.ar      1 RES1    0.0000
     28 N6         3.7672   -3.8600    9.2768 N.ar      1 RES1    0.0000
     29 C19        3.0213   -4.1328   10.3603 C.ar      1 RES1    0.0000
     30 C20        2.8622   -3.2177   11.4063 C.ar      1 RES1    0.0000
     31 C21        3.5013   -2.0083   11.3164 C.ar      1 RES1    0.0000
     32 C22        4.3053   -1.7265   10.2213 C.ar      1 RES1    0.0000
     33 C23        2.3391   -5.4564   10.3906 C.ar      1 RES1    0.0000
     34 N7         1.6927   -5.7615   11.5266 N.ar      1 RES1    0.0000
     35 C24        1.0459   -6.9293   11.5674 C.ar      1 RES1    0.0000
     36 C25        0.9960   -7.8177   10.5202 C.ar      1 RES1    0.0000
     37 C26        1.6603   -7.4955    9.3539 C.ar      1 RES1    0.0000
     38 C27        2.3481   -6.3024    9.2838 C.ar      1 RES1    0.0000
     39 H1         3.9933   -0.4498    7.6680 H         1 RES1    0.0000
     40 H2         4.7254   -0.5144    6.3021 H         1 RES1    0.0000
     41 H3         7.6209    4.5156    7.0610 H         1 RES1    0.0000
     42 H4         7.9575    3.0445    7.4147 H         1 RES1    0.0000
     43 H5         7.8222    3.4737    5.9297 H         1 RES1    0.0000
     44 H6         5.3651    5.0304    6.0242 H         1 RES1    0.0000
     45 H7         5.6469    3.9428    4.9548 H         1 RES1    0.0000
     46 H8         4.3604    3.8662    5.8187 H         1 RES1    0.0000
     47 H9         6.6906    4.3739    9.3726 H         1 RES1    0.0000
     48 H10        5.8926    3.3569   10.2307 H         1 RES1    0.0000
     49 H11        7.0484    2.8650    9.3212 H         1 RES1    0.0000
     50 H12        4.4743    5.1294    8.3312 H         1 RES1    0.0000
     51 H13        3.5562    4.0420    7.7147 H         1 RES1    0.0000
     52 H14        3.7687    4.0975    9.2512 H         1 RES1    0.0000
     53 H15        7.1722   -0.3959    6.5648 H         1 RES1    0.0000
     54 H16        6.9029   -1.8983    6.2881 H         1 RES1    0.0000
     55 H17       10.1263   -1.6688   11.3048 H         1 RES1    0.0000
     56 H18        9.3961   -0.3502   10.9428 H         1 RES1    0.0000
     57 H19        8.6658   -1.7090   10.7841 H         1 RES1    0.0000
     58 H20       11.9927   -1.0387    9.6621 H         1 RES1    0.0000
     59 H21       11.5954   -0.6541    8.2121 H         1 RES1    0.0000
     60 H22       11.2129    0.2740    9.3948 H         1 RES1    0.0000
     61 H23       11.9478   -3.1025    8.1199 H         1 RES1    0.0000
     62 H24       10.9483   -3.9445    7.2839 H         1 RES1    0.0000
     63 H25       11.0906   -2.4223    7.0201 H         1 RES1    0.0000
     64 H26       10.8185   -3.8945   10.2447 H         1 RES1    0.0000
     65 H27        9.2777   -3.7641   10.3626 H         1 RES1    0.0000
     66 H28        9.8964   -4.7554    9.3422 H         1 RES1    0.0000
     67 H29        6.0241   -3.1378    8.1070 H         1 RES1    0.0000
     68 H30        4.7883   -2.7707    7.2442 H         1 RES1    0.0000
     69 H31        2.3251   -3.4298   12.1605 H         1 RES1    0.0000
     70 H32        3.3932   -1.3628   12.0041 H         1 RES1    0.0000
     71 H33        4.7737   -0.9011   10.1560 H         1 RES1    0.0000
     72 H34        0.5930   -7.1600   12.3707 H         1 RES1    0.0000
     73 H35        0.5157   -8.6334   10.5973 H         1 RES1    0.0000
     74 H36        1.6444   -8.0878    8.6114 H         1 RES1    0.0000
     75 H37        2.8198   -6.0622    8.4946 H         1 RES1    0.0000
@<TRIPOS>BOND
     1    1    2 1
     2    2    3 1
     3    3    4 1
     4    4    5 1
     5    5    6 1
     6    6    7 1
     7    7    3 2
     8    8    4 1
     9    9    5 1
    10   10    5 1
    11   11    6 1
    12   12    6 1
    13   13    7 1
    14   14    1 1
    15   15   14 1
    16   16   15 2
    17   17   16 1
    18   18   17 1
    19   19   15 1
    20   20   16 1
    21   21   17 1
    22   22   17 1
    23   23   18 1
    24   24   18 1
    25   25   19 1
    26   26    1 1
    27   27   26 1
    28   28   27 ar
    29   29   28 ar
    30   30   29 ar
    31   31   30 ar
    32   32   27 ar
    33   33   29 1
    34   34   33 ar
    35   35   34 ar
    36   36   35 ar
    37   37   36 ar
    38   38   33 ar
    39   39    2 1
    40   40    2 1
    41   41    9 1
    42   42    9 1
    43   43    9 1
    44   44   10 1
    45   45   10 1
    46   46   10 1
    47   47   11 1
    48   48   11 1
    49   49   11 1
    50   50   12 1
    51   51   12 1
    52   52   12 1
    53   53   14 1
    54   54   14 1
    55   55   21 1
    56   56   21 1
    57   57   21 1
    58   58   22 1
    59   59   22 1
    60   60   22 1
    61   61   23 1
    62   62   23 1
    63   63   23 1
    64   64   24 1
    65   65   24 1
    66   66   24 1
    67   67   26 1
    68   68   26 1
    69   69   30 1
    70   70   31 1
    71   71   32 1
    72   72   35 1
    73   73   36 1
    74   74   37 1
    75   75   38 1
    76   18   19 1
    77   31   32 ar
    78   37   38 ar
@<TRIPOS>SUBSTRUCTURE
     1 RES1 1

@<TRIPOS>CRYSIN
  10.7224   11.0995   13.1134 114.1010  97.4760  99.6670   2 1

