# MOL2 file generated by ConQuest
# Please check atom types

@<TRIPOS>MOLECULE
UJIHAX
    30    31     1
SMALL
NO_CHARGES
****
Generated from CSD

@<TRIPOS>ATOM
      1 O1         1.4357    2.5097    1.1313 O.2       1 RES1    0.0000
      2 O2         7.1814   -1.8413    3.3616 O.2       1 RES1    0.0000
      3 O3         6.3998   -2.3799    1.4126 O.2       1 RES1    0.0000
      4 N1         2.5602    0.5814    0.5980 N.am      1 RES1    0.0000
      5 H1         2.5648   -0.0922    0.0320 H         1 RES1    0.0000
      6 N2         6.4068   -1.6755    2.4084 N.pl3     1 RES1    0.0000
      7 C1         5.4404   -0.5737    2.5035 C.ar      1 RES1    0.0000
      8 N3         0.8378    1.3703   -0.7250 N.am      1 RES1    0.0000
      9 H2         0.2205    1.9846   -0.8525 H         1 RES1    0.0000
     10 C2        -0.0261    0.2075   -2.7458 C.2       1 RES1    0.0000
     11 H3        -0.7766    0.7527   -2.9517 H         1 RES1    0.0000
     12 C3         5.5548    0.3184    3.5557 C.ar      1 RES1    0.0000
     13 H4         6.2421    0.2350    4.2065 H         1 RES1    0.0000
     14 C4         4.4566   -0.4974    1.5347 C.ar      1 RES1    0.0000
     15 H5         4.4136   -1.1381    0.8345 H         1 RES1    0.0000
     16 N4         1.8328   -0.5655   -1.6952 N.2       1 RES1    0.0000
     17 C5         1.6095    1.5427    0.3880 C.2       1 RES1    0.0000
     18 C6         3.5251    0.5473    1.6095 C.ar      1 RES1    0.0000
     19 C7         4.6194    1.3395    3.6153 C.ar      1 RES1    0.0000
     20 H6         4.6637    1.9681    4.3265 H         1 RES1    0.0000
     21 C8         0.4082   -0.9119   -3.4174 C.2       1 RES1    0.0000
     22 C9         0.8844    0.3667   -1.6876 C.2       1 RES1    0.0000
     23 C10        3.6176    1.4669    2.6608 C.ar      1 RES1    0.0000
     24 H7         2.9940    2.1806    2.7216 H         1 RES1    0.0000
     25 N5         1.5169   -1.3379   -2.7738 N.pl3     1 RES1    0.0000
     26 H8         1.9859   -2.0395   -3.0238 H         1 RES1    0.0000
     27 C11       -0.1458   -1.6415   -4.5919 C.3       1 RES1    0.0000
     28 H9         0.2496   -1.2846   -5.4152 H         1 RES1    0.0000
     29 H10       -1.1185   -1.5251   -4.6187 H         1 RES1    0.0000
     30 H11        0.0668   -2.5951   -4.5147 H         1 RES1    0.0000
@<TRIPOS>BOND
     1    1   17 2
     2    2    6 2
     3    3    6 2
     4    4    5 1
     5    6    7 1
     6    7   12 ar
     7    8    9 1
     8   10   11 1
     9   12   13 1
    10   14    7 ar
    11   15   14 1
    12   16   22 2
    13   17    4 1
    14   18    4 1
    15   19   12 ar
    16   20   19 1
    17   21   10 2
    18   22    8 1
    19   23   18 ar
    20   24   23 1
    21   25   16 1
    22   26   25 1
    23   27   21 1
    24   28   27 1
    25   29   27 1
    26   30   27 1
    27    8   17 1
    28   10   22 1
    29   14   18 ar
    30   19   23 ar
    31   21   25 1
@<TRIPOS>SUBSTRUCTURE
     1 RES1 1

@<TRIPOS>CRYSIN
  10.4699    5.4899   20.5810  90.0000 103.5070  90.0000 231 1

