# MOL2 file generated by ConQuest
# Please check atom types

@<TRIPOS>MOLECULE
UJUBUY
    85    90     1
SMALL
NO_CHARGES
****
Generated from CSD

@<TRIPOS>ATOM
      1 O1        13.9570   11.8138    6.3250 O.2       1 RES1    0.0000
      2 O2        10.8377   12.0699    2.9696 O.2       1 RES1    0.0000
      3 C1        14.3958   14.6203    4.9553 C.ar      1 RES1    0.0000
      4 C2        14.2676   15.7736    4.1787 C.ar      1 RES1    0.0000
      5 C3        13.2902   15.8766    3.1974 C.ar      1 RES1    0.0000
      6 C4        12.4112   14.8267    2.9342 C.ar      1 RES1    0.0000
      7 C5        13.3882   12.2833    5.3768 C.2       1 RES1    0.0000
      8 C6        13.5218   13.5879    4.6892 C.ar      1 RES1    0.0000
      9 C7        12.5539   13.6832    3.6872 C.ar      1 RES1    0.0000
     10 C8        11.7654   12.4202    3.6547 C.2       1 RES1    0.0000
     11 N1        12.3643   11.6488    4.6569 N.am      1 RES1    0.0000
     12 O3        12.0030   10.3287    4.9003 O.3       1 RES1    0.0000
     13 O4        10.3852   11.1651    6.2540 O.2       1 RES1    0.0000
     14 C9        10.9250   10.2295    5.7578 C.2       1 RES1    0.0000
     15 O5         7.6038    7.6698    6.2460 O.3       1 RES1    0.0000
     16 C10        7.2272   11.4530    1.4266 C.3       1 RES1    0.0000
     17 C11        7.7566   10.5732    2.5746 C.3       1 RES1    0.0000
     18 C12        4.1527   10.4876    1.1368 C.3       1 RES1    0.0000
     19 C13        5.0777    8.7303   -0.3477 C.3       1 RES1    0.0000
     20 C14        6.5450   10.6444    0.3106 C.3       1 RES1    0.0000
     21 C15        5.4265    9.7037    0.7882 C.3       1 RES1    0.0000
     22 C16        5.6339   10.5528    3.9318 C.3       1 RES1    0.0000
     23 C17        7.9037    8.6317    5.2506 C.3       1 RES1    0.0000
     24 C18        6.1740    7.4872    3.8067 C.2       1 RES1    0.0000
     25 C19        5.3007    7.7331    2.5986 C.3       1 RES1    0.0000
     26 C20        6.0463    8.8959    1.9374 C.3       1 RES1    0.0000
     27 C21        6.6390    9.6926    3.1310 C.3       1 RES1    0.0000
     28 C22        6.9753    8.5223    4.0615 C.2       1 RES1    0.0000
     29 C23       10.0664    8.5361    7.3458 C.3       1 RES1    0.0000
     30 O6        11.2283    8.7902    8.1220 O.3       1 RES1    0.0000
     31 C24       11.2734    5.5563    5.0758 C.3       1 RES1    0.0000
     32 C25       11.6865    7.2163    3.2106 C.3       1 RES1    0.0000
     33 O7        11.5128    7.8936    5.5198 O.3       1 RES1    0.0000
     34 C26       10.4710    8.7826    5.8931 C.3       1 RES1    0.0000
     35 C27        9.3686    8.5177    4.8194 C.3       1 RES1    0.0000
     36 O8         9.6202    7.1667    4.4745 O.3       1 RES1    0.0000
     37 C28       11.0272    6.9493    4.5428 C.3       1 RES1    0.0000
     38 C29       11.0660    8.3852    9.4775 C.3       1 RES1    0.0000
     39 C30       10.3498    9.3951   10.3484 C.ar      1 RES1    0.0000
     40 C31        9.6654    8.9761   11.4794 C.ar      1 RES1    0.0000
     41 C32        9.1003    9.9006   12.3468 C.ar      1 RES1    0.0000
     42 C33        9.2210   11.2590   12.0964 C.ar      1 RES1    0.0000
     43 C34        9.8791   11.6818   10.9647 C.ar      1 RES1    0.0000
     44 C35       10.4450   10.7611   10.0905 C.ar      1 RES1    0.0000
     45 H1        15.0387   14.4978    5.6132 H         1 RES1    0.0000
     46 H2        14.8362   16.4822    4.3373 H         1 RES1    0.0000
     47 H3        13.2371   16.7079    2.7061 H         1 RES1    0.0000
     48 H4        11.7268   14.9142    2.2888 H         1 RES1    0.0000
     49 H5         7.9212    6.9491    6.0166 H         1 RES1    0.0000
     50 H6         6.6040   12.1045    1.7956 H         1 RES1    0.0000
     51 H7         8.0100   12.0167    1.0369 H         1 RES1    0.0000
     52 H8         8.4899   10.0210    2.2192 H         1 RES1    0.0000
     53 H9         8.1583   11.1386    3.2334 H         1 RES1    0.0000
     54 H10        4.3567   11.4146    1.7830 H         1 RES1    0.0000
     55 H11        3.4649    9.8968    1.6059 H         1 RES1    0.0000
     56 H12        3.7391   10.8000    0.3414 H         1 RES1    0.0000
     57 H13        5.8460    8.1031   -0.5564 H         1 RES1    0.0000
     58 H14        4.8230    9.2822   -1.1887 H         1 RES1    0.0000
     59 H15        4.3168    8.1658   -0.0885 H         1 RES1    0.0000
     60 H16        6.2138   11.2641   -0.4173 H         1 RES1    0.0000
     61 H17        7.2321   10.0724   -0.1239 H         1 RES1    0.0000
     62 H18        4.7196   10.0348    4.0465 H         1 RES1    0.0000
     63 H19        5.4044   11.4522    3.5027 H         1 RES1    0.0000
     64 H20        6.0154   10.7247    4.8431 H         1 RES1    0.0000
     65 H21        7.7771    9.4866    5.6550 H         1 RES1    0.0000
     66 H22        6.1114    6.6606    4.3626 H         1 RES1    0.0000
     67 H23        4.3491    8.0028    2.8831 H         1 RES1    0.0000
     68 H24        5.2331    6.9993    1.9979 H         1 RES1    0.0000
     69 H25        6.8327    8.4292    1.5364 H         1 RES1    0.0000
     70 H26        9.3311    9.1668    7.6175 H         1 RES1    0.0000
     71 H27        9.7740    7.6264    7.4291 H         1 RES1    0.0000
     72 H28       12.2071    5.4564    5.1846 H         1 RES1    0.0000
     73 H29       10.9858    4.9296    4.4385 H         1 RES1    0.0000
     74 H30       10.7416    5.4188    5.9306 H         1 RES1    0.0000
     75 H31       12.6199    7.0871    3.3510 H         1 RES1    0.0000
     76 H32       11.5353    8.1282    2.9463 H         1 RES1    0.0000
     77 H33       11.3718    6.5728    2.5038 H         1 RES1    0.0000
     78 H34        9.5580    9.1053    4.0364 H         1 RES1    0.0000
     79 H35       11.9728    8.2787    9.8127 H         1 RES1    0.0000
     80 H36       10.6031    7.5010    9.4839 H         1 RES1    0.0000
     81 H37        9.5754    8.0780   11.6463 H         1 RES1    0.0000
     82 H38        8.6767    9.6209   13.0878 H         1 RES1    0.0000
     83 H39        8.8165   11.8912   12.7338 H         1 RES1    0.0000
     84 H40        9.9640   12.6815   10.8117 H         1 RES1    0.0000
     85 H41       10.9242   10.9881    9.2184 H         1 RES1    0.0000
@<TRIPOS>BOND
     1    1    7 2
     2    2   10 2
     3    3    4 ar
     4    4    5 ar
     5    5    6 ar
     6    6    9 ar
     7    7    8 1
     8    8    3 ar
     9    9    8 ar
    10   10    9 1
    11   11    7 1
    12   12   11 1
    13   13   14 2
    14   14   12 1
    15   15   23 1
    16   16   17 1
    17   17   27 1
    18   18   21 1
    19   19   21 1
    20   20   16 1
    21   21   20 1
    22   22   27 1
    23   23   28 1
    24   24   25 1
    25   25   26 1
    26   26   21 1
    27   27   26 1
    28   28   24 2
    29   29   30 1
    30   30   38 1
    31   31   37 1
    32   32   37 1
    33   33   34 1
    34   34   14 1
    35   35   23 1
    36   36   35 1
    37   37   33 1
    38   38   39 1
    39   39   40 ar
    40   40   41 ar
    41   41   42 ar
    42   42   43 ar
    43   43   44 ar
    44   44   39 ar
    45   45    3 1
    46   46    4 1
    47   47    5 1
    48   48    6 1
    49   49   15 1
    50   50   16 1
    51   51   16 1
    52   52   17 1
    53   53   17 1
    54   54   18 1
    55   55   18 1
    56   56   18 1
    57   57   19 1
    58   58   19 1
    59   59   19 1
    60   60   20 1
    61   61   20 1
    62   62   22 1
    63   63   22 1
    64   64   22 1
    65   65   23 1
    66   66   24 1
    67   67   25 1
    68   68   25 1
    69   69   26 1
    70   70   29 1
    71   71   29 1
    72   72   31 1
    73   73   31 1
    74   74   31 1
    75   75   32 1
    76   76   32 1
    77   77   32 1
    78   78   35 1
    79   79   38 1
    80   80   38 1
    81   81   40 1
    82   82   41 1
    83   83   42 1
    84   84   43 1
    85   85   44 1
    86   10   11 1
    87   27   28 1
    88   29   34 1
    89   34   35 1
    90   36   37 1
@<TRIPOS>SUBSTRUCTURE
     1 RES1 1

@<TRIPOS>CRYSIN
  10.1766   12.5435   12.7623  90.0000  97.7659  90.0000   4 1

