# MOL2 file generated by ConQuest
# Please check atom types

@<TRIPOS>MOLECULE
UJUKOZ
    24    24     1
SMALL
NO_CHARGES
****
Generated from CSD

@<TRIPOS>ATOM
      1 O1        11.3698    6.3554    4.1886 O.3       1 RES1    0.0000
      2 H1        11.8417    7.1570    4.1579 H         1 RES1    0.0000
      3 N1        10.7908    6.2222    2.9034 N.2       1 RES1    0.0000
      4 C1         9.3873    4.8044    1.6033 C.ar      1 RES1    0.0000
      5 O2         4.3147    2.2671    1.2399 O.3       1 RES1    0.0000
      6 H2         4.2712    1.5016    1.8184 H         1 RES1    0.0000
      7 C2         8.0681    4.3387    1.6551 C.ar      1 RES1    0.0000
      8 H3         7.6162    4.2494    2.5249 H         1 RES1    0.0000
      9 N2         9.9644    4.2947    3.9041 N.pl3     1 RES1    0.0000
     10 H4        10.3823    4.4540    4.6675 H         1 RES1    0.0000
     11 H5         9.5091    3.5240    3.8684 H         1 RES1    0.0000
     12 N3         5.7187    2.5581    1.2305 N.2       1 RES1    0.0000
     13 C3         7.3767    4.0688    0.4768 C.ar      1 RES1    0.0000
     14 C4         8.0062    4.2301   -0.7482 C.ar      1 RES1    0.0000
     15 H6         7.5257    4.0447   -1.5439 H         1 RES1    0.0000
     16 N4         5.0311    4.3565   -0.1191 N.pl3     1 RES1    0.0000
     17 H7         4.1433    4.2118    0.0463 H         1 RES1    0.0000
     18 H8         5.2557    5.1661   -0.3590 H         1 RES1    0.0000
     19 C5         9.3300    4.6580   -0.7957 C.ar      1 RES1    0.0000
     20 H9         9.7541    4.7507   -1.6794 H         1 RES1    0.0000
     21 C6        10.0145    4.9444    0.3695 C.ar      1 RES1    0.0000
     22 H10       10.9350    5.2254    0.3475 H         1 RES1    0.0000
     23 C7        10.0959    5.1271    2.8623 C.2       1 RES1    0.0000
     24 C8         5.9555    3.6263    0.5565 C.2       1 RES1    0.0000
@<TRIPOS>BOND
     1    1    2 1
     2    3    1 1
     3    4    7 ar
     4    5    6 1
     5    7    8 1
     6    9   10 1
     7   11    9 1
     8   12    5 1
     9   13    7 ar
    10   14   13 ar
    11   15   14 1
    12   16   17 1
    13   18   16 1
    14   19   14 ar
    15   20   19 1
    16   21    4 ar
    17   22   21 1
    18   23    3 2
    19   24   12 2
    20    4   23 1
    21    9   23 1
    22   13   24 1
    23   16   24 1
    24   19   21 ar
@<TRIPOS>SUBSTRUCTURE
     1 RES1 1

@<TRIPOS>CRYSIN
  13.1956   12.1099   11.8156  90.0000 101.4120  90.0000  15 1

