# MOL2 file generated by ConQuest
# Please check atom types

@<TRIPOS>MOLECULE
UJUKIT
    26    26     1
SMALL
NO_CHARGES
****
Generated from CSD

@<TRIPOS>ATOM
      1 O1         0.4256    6.3960    1.2429 O.3       1 RES1    0.0000
      2 O2         3.2978   14.0909   -1.3576 O.3       1 RES1    0.0000
      3 N1         0.7139    7.7789    1.2313 N.2       1 RES1    0.0000
      4 N2         3.0957   13.4823   -0.0911 N.2       1 RES1    0.0000
      5 C1         1.6736    9.6244    2.3067 C.ar      1 RES1    0.0000
      6 C2         2.1730   11.6901    1.1239 C.ar      1 RES1    0.0000
      7 C3         2.2463   12.3569    2.3530 C.ar      1 RES1    0.0000
      8 C4         2.4197   12.3894   -0.1623 C.2       1 RES1    0.0000
      9 C5         1.3445    8.1751    2.2752 C.2       1 RES1    0.0000
     10 C6         1.8818   10.3296    1.1127 C.ar      1 RES1    0.0000
     11 C7         1.7797   10.2963    3.5202 C.ar      1 RES1    0.0000
     12 C8         1.9092   11.8026   -1.4486 C.3       1 RES1    0.0000
     13 C9         2.0533   11.6604    3.5326 C.ar      1 RES1    0.0000
     14 C10        1.7377    7.2905    3.4131 C.3       1 RES1    0.0000
     15 H1         1.8577    9.8296    0.3080 H         1 RES1    0.0000
     16 H2         1.6344    9.8311    4.3614 H         1 RES1    0.0000
     17 H3         2.0983   12.1494    4.3581 H         1 RES1    0.0000
     18 H4         1.0202   11.4101   -1.3087 H         1 RES1    0.0000
     19 H5         2.4394   13.2636    2.4137 H         1 RES1    0.0000
     20 H6         2.5234    7.5851    3.8105 H         1 RES1    0.0000
     21 H7         2.4953   11.1238   -1.7830 H         1 RES1    0.0000
     22 H8         1.8386   12.4992   -2.1155 H         1 RES1    0.0000
     23 H9         3.7911   14.8751   -1.0480 H         1 RES1    0.0000
     24 H10        1.7350    6.3898    3.1846 H         1 RES1    0.0000
     25 H11        0.0452    6.3455    0.4563 H         1 RES1    0.0000
     26 H12        1.1655    7.3933    4.1397 H         1 RES1    0.0000
@<TRIPOS>BOND
     1    1    3 1
     2    2    4 1
     3    3    9 2
     4    4    8 2
     5    5    9 1
     6    6    7 ar
     7    7   13 ar
     8    8    6 1
     9    9   14 1
    10   10    5 ar
    11   11    5 ar
    12   12    8 1
    13   13   11 ar
    14   14   20 1
    15   15   10 1
    16   16   11 1
    17   17   13 1
    18   18   12 1
    19   19    7 1
    20   21   12 1
    21   22   12 1
    22   23    2 1
    23   24   14 1
    24   25    1 1
    25   26   14 1
    26    6   10 ar
@<TRIPOS>SUBSTRUCTURE
     1 RES1 1

@<TRIPOS>CRYSIN
   3.8970   14.7570   16.3050  90.0000  91.6680  90.0000 231 1

