# MOL2 file generated by ConQuest
# Please check atom types

@<TRIPOS>MOLECULE
UJULEQ
    24    24     1
SMALL
NO_CHARGES
****
Generated from CSD

@<TRIPOS>ATOM
      1 O1         3.8196    0.9327    1.2799 O.3       1 RES1    0.0000
      2 N1         5.1402    0.9706    0.7084 N.2       1 RES1    0.0000
      3 C1         5.7291    2.0867    1.0196 C.2       1 RES1    0.0000
      4 N2         5.1879    3.0189    1.8452 N.3       1 RES1    0.0000
      5 C2         7.0954    2.2981    0.4925 C.ar      1 RES1    0.0000
      6 C3         7.5508    1.6072   -0.6296 C.ar      1 RES1    0.0000
      7 C4         7.9755    3.1899    1.1131 C.ar      1 RES1    0.0000
      8 H1         4.3122    2.9362    2.0549 H         1 RES1    0.0000
      9 H2         5.4805    3.8484    1.7584 H         1 RES1    0.0000
     10 H3         6.9598    1.0319   -1.0837 H         1 RES1    0.0000
     11 H4         7.6728    3.6839    1.8402 H         1 RES1    0.0000
     12 H5         3.4060    0.3091    0.6850 H         1 RES1    0.0000
     13 C4B        8.8265    1.7951   -1.1131 C.ar      1 RES1    0.0000
     14 C2B        9.7066    2.6869   -0.4925 C.ar      1 RES1    0.0000
     15 C1B       11.0729    2.8983   -1.0196 C.2       1 RES1    0.0000
     16 N1B       11.6618    4.0144   -0.7084 N.2       1 RES1    0.0000
     17 O1B       12.9824    4.0523   -1.2799 O.3       1 RES1    0.0000
     18 H5B       13.3960    4.6759   -0.6850 H         1 RES1    0.0000
     19 N2B       11.6141    1.9661   -1.8452 N.3       1 RES1    0.0000
     20 H1B       12.4898    2.0488   -2.0549 H         1 RES1    0.0000
     21 H2B       11.3215    1.1366   -1.7584 H         1 RES1    0.0000
     22 C3B        9.2512    3.3778    0.6296 C.ar      1 RES1    0.0000
     23 H3B        9.8422    3.9531    1.0837 H         1 RES1    0.0000
     24 H4B        9.1292    1.3011   -1.8402 H         1 RES1    0.0000
@<TRIPOS>BOND
     1    1    2 1
     2    2    3 2
     3    3    4 1
     4    4    8 1
     5    5    3 1
     6    6    5 ar
     7    7    5 ar
     8    9    4 1
     9   10    6 1
    10   11    7 1
    11   12    1 1
    12   13    6 ar
    13   14   13 ar
    14   15   14 1
    15   16   15 2
    16   17   16 1
    17   18   17 1
    18   19   15 1
    19   20   19 1
    20   21   19 1
    21   22    7 ar
    22   23   22 1
    23   24   13 1
    24   14   22 ar
@<TRIPOS>SUBSTRUCTURE
     1 RES1 1

@<TRIPOS>CRYSIN
   8.4010    4.9850   10.7140  90.0000 107.4100  90.0000  14 1

