# MOL2 file generated by ConQuest
# Please check atom types

@<TRIPOS>MOLECULE
UJULIU
    18    17     1
SMALL
NO_CHARGES
****
Generated from CSD

@<TRIPOS>ATOM
      1 O1         2.5325   -2.2690   -1.3712 O.3       1 RES1    0.0000
      2 H1         1.8326   -2.5492   -0.9379 H         1 RES1    0.0000
      3 O2         9.8640    0.3514    1.2908 O.3       1 RES1    0.0000
      4 H2        10.6496    0.7020    0.8093 H         1 RES1    0.0000
      5 N1         3.3938   -1.7555   -0.3559 N.2       1 RES1    0.0000
      6 N2         4.9518   -2.1677   -2.0518 N.pl3     1 RES1    0.0000
      7 H3         4.1408   -2.6673   -2.5936 H         1 RES1    0.0000
      8 H4         5.8204   -2.4553   -2.2539 H         1 RES1    0.0000
      9 N3         9.0206   -0.1801    0.2714 N.2       1 RES1    0.0000
     10 N4         7.6097   -0.5098    2.1131 N.pl3     1 RES1    0.0000
     11 H5         6.8082   -0.8678    2.4429 H         1 RES1    0.0000
     12 H6         8.1468   -0.0668    2.6278 H         1 RES1    0.0000
     13 C1         4.6101   -1.7617   -0.7982 C.2       1 RES1    0.0000
     14 C2         5.6166   -1.2555    0.1287 C.2       1 RES1    0.0000
     15 H7         5.1502   -0.9940    0.9470 H         1 RES1    0.0000
     16 C3         6.9282   -1.1293   -0.1438 C.2       1 RES1    0.0000
     17 H8         7.1374   -1.3461   -1.0334 H         1 RES1    0.0000
     18 C4         7.9090   -0.5982    0.8002 C.2       1 RES1    0.0000
@<TRIPOS>BOND
     1    1    2 1
     2    3    4 1
     3    5    1 1
     4    6    7 1
     5    8    6 1
     6    9    3 1
     7   10   11 1
     8   12   10 1
     9   13    5 2
    10   14   13 1
    11   15   14 1
    12   16   14 2
    13   17   16 1
    14   18    9 2
    15    6   13 1
    16   10   18 1
    17   16   18 1
@<TRIPOS>SUBSTRUCTURE
     1 RES1 1

@<TRIPOS>CRYSIN
  16.6296    3.6679   10.0529  90.0000  90.0000  90.0000  29 1

