# MOL2 file generated by ConQuest
# Please check atom types

@<TRIPOS>MOLECULE
UJUVIE
    36    38     1
SMALL
NO_CHARGES
****
Generated from CSD

@<TRIPOS>ATOM
      1 C1         7.6643    1.9957   16.4673 C.ar      1 RES1    0.0000
      2 C2         7.5536    2.8201   17.5972 C.ar      1 RES1    0.0000
      3 C3         7.0895    2.2904   18.7883 C.ar      1 RES1    0.0000
      4 H1         6.9871    2.8445   19.5280 H         1 RES1    0.0000
      5 C4         6.7756    0.9414   18.8899 C.ar      1 RES1    0.0000
      6 H2         6.4648    0.5937   19.6944 H         1 RES1    0.0000
      7 C5         6.9275    0.1128   17.7863 C.ar      1 RES1    0.0000
      8 H3         6.7400   -0.7949   17.8572 H         1 RES1    0.0000
      9 C6         7.3565    0.6383   16.5819 C.ar      1 RES1    0.0000
     10 H4         7.4418    0.0825   15.8409 H         1 RES1    0.0000
     11 C7         7.9393    4.2692   17.5714 C.2       1 RES1    0.0000
     12 O1         7.1651    5.1760   17.7323 O.2       1 RES1    0.0000
     13 O2         9.2674    4.4147   17.4396 O.3       1 RES1    0.0000
     14 C8         9.7399    5.7723   17.2797 C.3       1 RES1    0.0000
     15 H5         9.3904    6.1395   16.4653 H         1 RES1    0.0000
     16 H6        10.7002    5.7748   17.2457 H         1 RES1    0.0000
     17 H7         9.4447    6.3037   18.0235 H         1 RES1    0.0000
     18 C9         8.0233    2.5514   15.1596 C.2       1 RES1    0.0000
     19 N1         8.5593    2.4757   13.0174 N.2       1 RES1    0.0000
     20 O3         8.2660    1.6873   14.1550 O.3       1 RES1    0.0000
     21 C10        8.4593    3.7034   13.4619 C.2       1 RES1    0.0000
     22 N2         8.1176    3.7943   14.8011 N.2       1 RES1    0.0000
     23 C11        8.7188    4.8747   12.6216 C.ar      1 RES1    0.0000
     24 C12        9.0645    4.7374   11.2772 C.ar      1 RES1    0.0000
     25 H8         9.1281    3.8895   10.9001 H         1 RES1    0.0000
     26 C13        9.3124    5.8481   10.5037 C.ar      1 RES1    0.0000
     27 H9         9.5326    5.7395    9.6079 H         1 RES1    0.0000
     28 C14        9.2396    7.1365   11.0395 C.ar      1 RES1    0.0000
     29 C15        8.8976    7.2661   12.3818 C.ar      1 RES1    0.0000
     30 H10        8.8469    8.1132   12.7628 H         1 RES1    0.0000
     31 C16        8.6319    6.1546   13.1589 C.ar      1 RES1    0.0000
     32 H11        8.3928    6.2641   14.0499 H         1 RES1    0.0000
     33 C17        9.5357    8.3490   10.2003 C.3       1 RES1    0.0000
     34 H12       10.4041    8.2581    9.7998 H         1 RES1    0.0000
     35 H13        9.5188    9.1338   10.7542 H         1 RES1    0.0000
     36 H14        8.8728    8.4307    9.5107 H         1 RES1    0.0000
@<TRIPOS>BOND
     1    1    2 ar
     2    2    3 ar
     3    3    4 1
     4    5    3 ar
     5    6    5 1
     6    7    5 ar
     7    8    7 1
     8    9    1 ar
     9   10    9 1
    10   11    2 1
    11   12   11 2
    12   13   11 1
    13   14   13 1
    14   15   14 1
    15   16   14 1
    16   17   14 1
    17   18    1 1
    18   19   20 1
    19   20   18 1
    20   21   19 2
    21   22   18 2
    22   23   21 1
    23   24   23 ar
    24   25   24 1
    25   26   24 ar
    26   27   26 1
    27   28   26 ar
    28   29   28 ar
    29   30   29 1
    30   31   23 ar
    31   32   31 1
    32   33   28 1
    33   34   33 1
    34   35   33 1
    35   36   33 1
    36    7    9 ar
    37   21   22 1
    38   29   31 ar
@<TRIPOS>SUBSTRUCTURE
     1 RES1 1

@<TRIPOS>CRYSIN
  13.3570    8.4206   26.2750  90.0000 103.1400  90.0000  15 1

