# MOL2 file generated by ConQuest
# Please check atom types

@<TRIPOS>MOLECULE
UKENOO
    45    44     2
SMALL
NO_CHARGES
****
Generated from CSD

@<TRIPOS>ATOM
      1 O1         8.0669   -1.9900   11.2193 O.3       1 RES1    0.0000
      2 O2         7.6490    0.0532   11.9222 O.2       1 RES1    0.0000
      3 O3        10.9674    3.8651    8.9646 O.2       1 RES1    0.0000
      4 O4         7.9230    1.9953    6.1234 O.2       1 RES1    0.0000
      5 N1         9.4848    2.6276    7.7023 N.am      1 RES1    0.0000
      6 N2         7.0026    4.4995    4.5849 N.pl3     1 RES1    0.0000
      7 C1         7.2761   -2.5027   12.3285 C.3       1 RES1    0.0000
      8 H1         7.4690   -1.9952   13.1197 H         1 RES1    0.0000
      9 H2         7.4939   -3.4248   12.4770 H         1 RES1    0.0000
     10 H3         6.3420   -2.4247   12.1176 H         1 RES1    0.0000
     11 C2         8.1640   -0.6833   11.1369 C.2       1 RES1    0.0000
     12 C3         9.0116   -0.2742    9.9863 C.ar      1 RES1    0.0000
     13 C4        10.0250   -1.0954    9.5538 C.ar      1 RES1    0.0000
     14 H4        10.1410   -1.9189    9.9707 H         1 RES1    0.0000
     15 C5        10.8881   -0.7422    8.5108 C.ar      1 RES1    0.0000
     16 C6        11.8979   -1.6084    8.0451 C.ar      1 RES1    0.0000
     17 H5        12.0139   -2.4380    8.4489 H         1 RES1    0.0000
     18 C7        12.6970   -1.2457    7.0187 C.ar      1 RES1    0.0000
     19 H6        13.3458   -1.8343    6.7083 H         1 RES1    0.0000
     20 C8        12.5549    0.0085    6.4219 C.ar      1 RES1    0.0000
     21 H7        13.1268    0.2554    5.7316 H         1 RES1    0.0000
     22 C9        11.5984    0.8674    6.8355 C.ar      1 RES1    0.0000
     23 H8        11.5108    1.6950    6.4212 H         1 RES1    0.0000
     24 C10       10.7341    0.5179    7.8888 C.ar      1 RES1    0.0000
     25 C11        9.6852    1.3553    8.3375 C.ar      1 RES1    0.0000
     26 C12        8.8317    0.9918    9.3444 C.ar      1 RES1    0.0000
     27 C13       10.1434    3.7973    8.0801 C.2       1 RES1    0.0000
     28 C14        9.6178    4.8592    7.1943 C.ar      1 RES1    0.0000
     29 C15        9.9563    6.1995    7.1152 C.ar      1 RES1    0.0000
     30 H9        10.6016    6.5743    7.6714 H         1 RES1    0.0000
     31 C16        9.2827    6.9564    6.1652 C.ar      1 RES1    0.0000
     32 H10        9.4781    7.8629    6.0930 H         1 RES1    0.0000
     33 C17        8.3368    6.4101    5.3272 C.ar      1 RES1    0.0000
     34 H11        7.9130    6.9408    4.6923 H         1 RES1    0.0000
     35 C18        8.0290    5.0865    5.4372 C.ar      1 RES1    0.0000
     36 C19        8.6695    4.2998    6.3688 C.ar      1 RES1    0.0000
     37 C20        8.5831    2.8427    6.6620 C.2       1 RES1    0.0000
     38 O5         7.1648    4.9009    3.4753 O.2       1 RES1    0.0000
     39 O6         6.0152    4.1147    5.1553 O.2       1 RES1    0.0000
     40 O7         7.7982    1.7995    9.5565 O.3       1 RES1    0.0000
     41 C21        7.9284    2.7631   10.4962 C.3       1 RES1    0.0000
     42 C22        7.9438    3.0069   10.6876 Du        2 SUP2    0.0000
     43 O8         7.6336    1.8078    9.7773 Du        2 SUP2    0.0000
     44 O9         7.3424    3.8925    3.5280 Du        2 SUP2    0.0000
     45 O10        5.9703    4.4066    4.7314 Du        2 SUP2    0.0000
@<TRIPOS>BOND
     1    1    7 1
     2    2   11 2
     3    3   27 2
     4    4   37 2
     5    5   25 1
     6    6   35 1
     7    7    8 1
     8    9    7 1
     9   10    7 1
    10   11    1 1
    11   12   11 1
    12   13   12 ar
    13   14   13 1
    14   15   13 ar
    15   16   15 ar
    16   17   16 1
    17   18   16 ar
    18   19   18 1
    19   20   18 ar
    20   21   20 1
    21   22   20 ar
    22   23   22 1
    23   24   15 ar
    24   25   24 ar
    25   26   12 ar
    26   27    5 1
    27   28   27 1
    28   29   28 ar
    29   30   29 1
    30   31   29 ar
    31   32   31 1
    32   33   31 ar
    33   34   33 1
    34   35   33 ar
    35   36   28 ar
    36   37    5 1
    37   38    6 2
    38   39    6 2
    39   40   26 1
    40   41   40 1
    41   22   24 ar
    42   25   26 ar
    43   35   36 ar
    44   36   37 1
@<TRIPOS>SUBSTRUCTURE
     1 RES1 1
     2 SUP2 42

@<TRIPOS>CRYSIN
  11.8387   16.5850   19.5350  90.0000  90.0000  90.0000  61 1

