# MOL2 file generated by ConQuest
# Please check atom types

@<TRIPOS>MOLECULE
UKEPIK
    30    31     1
SMALL
NO_CHARGES
****
Generated from CSD

@<TRIPOS>ATOM
      1 O1         2.3557    5.3075    1.8077 O.3       1 RES1    0.0000
      2 O2         3.0264    7.2774    2.4818 O.2       1 RES1    0.0000
      3 O3         2.7843    5.1002    4.8102 O.2       1 RES1    0.0000
      4 O4         2.0398    3.1565    5.3586 O.2       1 RES1    0.0000
      5 N1         1.8693    4.3305    5.0575 N.pl3     1 RES1    0.0000
      6 C1         0.2629    4.3103    2.5606 C.ar      1 RES1    0.0000
      7 C2        -0.6679    3.2885    2.3886 C.ar      1 RES1    0.0000
      8 H1        -1.4439    3.2669    2.9355 H         1 RES1    0.0000
      9 C3        -0.4807    2.3010    1.4307 C.ar      1 RES1    0.0000
     10 H2        -1.1267    1.6133    1.3225 H         1 RES1    0.0000
     11 C4         0.6531    2.3219    0.6317 C.ar      1 RES1    0.0000
     12 H3         0.7902    1.6401   -0.0155 H         1 RES1    0.0000
     13 C5         1.5865    3.3362    0.7781 C.ar      1 RES1    0.0000
     14 H4         2.3631    3.3594    0.2312 H         1 RES1    0.0000
     15 C6         1.3712    4.3133    1.7289 C.ar      1 RES1    0.0000
     16 C7         2.1327    6.4763    2.4942 C.2       1 RES1    0.0000
     17 C8         0.7830    6.6896    3.1299 C.3       1 RES1    0.0000
     18 H5         0.1968    7.0439    2.4008 H         1 RES1    0.0000
     19 C9         0.1062    5.3851    3.6053 C.3       1 RES1    0.0000
     20 H6        -0.8729    5.5850    3.6445 H         1 RES1    0.0000
     21 C10        0.4817    4.8630    4.9949 C.3       1 RES1    0.0000
     22 H7         0.3882    5.5977    5.6515 H         1 RES1    0.0000
     23 H8        -0.1510    4.1455    5.2511 H         1 RES1    0.0000
     24 C11        0.8610    7.8077    4.1708 C.3       1 RES1    0.0000
     25 H9         1.5034    7.5406    4.8753 H         1 RES1    0.0000
     26 H10        1.2150    8.6229    3.7349 H         1 RES1    0.0000
     27 C12       -0.4725    8.1448    4.8276 C.3       1 RES1    0.0000
     28 H11       -0.7917    7.3698    5.3351 H         1 RES1    0.0000
     29 H12       -1.1285    8.3753    4.1366 H         1 RES1    0.0000
     30 H13       -0.3555    8.9063    5.4332 H         1 RES1    0.0000
@<TRIPOS>BOND
     1    1   15 1
     2    2   16 2
     3    3    5 2
     4    4    5 2
     5    5   21 1
     6    6    7 ar
     7    7    8 1
     8    9    7 ar
     9   10    9 1
    10   11    9 ar
    11   12   11 1
    12   13   11 ar
    13   14   13 1
    14   15    6 ar
    15   16    1 1
    16   17   16 1
    17   18   17 1
    18   19    6 1
    19   20   19 1
    20   21   19 1
    21   22   21 1
    22   23   21 1
    23   24   17 1
    24   25   24 1
    25   26   24 1
    26   27   24 1
    27   28   27 1
    28   29   27 1
    29   30   27 1
    30   13   15 ar
    31   17   19 1
@<TRIPOS>SUBSTRUCTURE
     1 RES1 1

@<TRIPOS>CRYSIN
   5.6540    7.4586   13.1000  90.0000  99.6490  90.0000   4 1

