# MOL2 file generated by ConQuest
# Please check atom types

@<TRIPOS>MOLECULE
UKEVOX
    75    76     1
SMALL
NO_CHARGES
****
Generated from CSD

@<TRIPOS>ATOM
      1 N1        -1.2094    9.9442   12.9187 N.pl3     1 RES1    0.0000
      2 H1        -0.5952    9.3186   12.8366 H         1 RES1    0.0000
      3 N2        -0.9371   11.0826   13.5908 N.2       1 RES1    0.0000
      4 N3         3.6834   11.3849   15.8716 N.1       1 RES1    0.0000
      5 N4         4.3625   14.0355   17.8940 N.1       1 RES1    0.0000
      6 N5         1.5717   17.3667   17.2843 N.1       1 RES1    0.0000
      7 N6        -6.2155    8.9564   10.7093 N.pl3     1 RES1    0.0000
      8 O1        -1.6435    7.6858   11.6855 O.3       1 RES1    0.0000
      9 O2         0.2789   14.6522   15.5265 O.3       1 RES1    0.0000
     10 O3        -7.1550    9.6656   11.0636 O.2       1 RES1    0.0000
     11 O4        -6.3472    8.0170    9.9293 O.2       1 RES1    0.0000
     12 C1         1.2659   -5.9711    5.8785 C.3       1 RES1    0.0000
     13 H2         1.7612   -6.1298    6.7102 H         1 RES1    0.0000
     14 H3         1.7441   -6.3831    5.1289 H         1 RES1    0.0000
     15 H4         0.3717   -6.3649    5.9515 H         1 RES1    0.0000
     16 C2         1.1425   -4.4760    5.6398 C.3       1 RES1    0.0000
     17 H5         2.0199   -4.1207    5.3509 H         1 RES1    0.0000
     18 H6         0.4942   -4.3171    4.9084 H         1 RES1    0.0000
     19 C3         0.6938   -3.7353    6.8638 C.3       1 RES1    0.0000
     20 H7         1.3634   -3.8740    7.5800 H         1 RES1    0.0000
     21 H8        -0.1599   -4.1294    7.1755 H         1 RES1    0.0000
     22 C4         0.4918   -2.2305    6.6738 C.3       1 RES1    0.0000
     23 H9         1.3399   -1.8376    6.3468 H         1 RES1    0.0000
     24 H10       -0.1916   -2.0907    5.9713 H         1 RES1    0.0000
     25 C5         0.0668   -1.4929    7.9085 C.3       1 RES1    0.0000
     26 H11        0.7481   -1.6329    8.6125 H         1 RES1    0.0000
     27 H12       -0.7853   -1.8778    8.2323 H         1 RES1    0.0000
     28 C6        -0.1212    0.0124    7.6971 C.3       1 RES1    0.0000
     29 H13        0.7280    0.3905    7.3595 H         1 RES1    0.0000
     30 H14       -0.8082    0.1475    6.9976 H         1 RES1    0.0000
     31 C7        -0.5312    0.7798    8.9242 C.3       1 RES1    0.0000
     32 H15        0.1654    0.6708    9.6191 H         1 RES1    0.0000
     33 H16       -1.3725    0.3972    9.2770 H         1 RES1    0.0000
     34 C8        -0.7377    2.2701    8.6596 C.3       1 RES1    0.0000
     35 H17        0.0953    2.6386    8.2703 H         1 RES1    0.0000
     36 H18       -1.4527    2.3732    7.9830 H         1 RES1    0.0000
     37 C9        -1.1009    3.0853    9.8624 C.3       1 RES1    0.0000
     38 H19       -0.4206    2.9374   10.5664 H         1 RES1    0.0000
     39 H20       -1.9701    2.7657   10.2136 H         1 RES1    0.0000
     40 C10       -1.2030    4.5746    9.5811 C.3       1 RES1    0.0000
     41 H21       -1.8958    4.7226    8.8892 H         1 RES1    0.0000
     42 H22       -0.3395    4.8899    9.2131 H         1 RES1    0.0000
     43 C11       -1.5482    5.4068   10.8112 C.3       1 RES1    0.0000
     44 H23       -2.4775    5.2137   11.0925 H         1 RES1    0.0000
     45 H24       -0.9437    5.1650   11.5563 H         1 RES1    0.0000
     46 C12       -1.4112    6.8586   10.5071 C.3       1 RES1    0.0000
     47 H25       -0.5001    7.0342   10.1604 H         1 RES1    0.0000
     48 H26       -2.0585    7.1064    9.8016 H         1 RES1    0.0000
     49 C13       -2.6891    8.5641   11.6764 C.ar      1 RES1    0.0000
     50 C14       -3.8951    8.3268   11.1229 C.ar      1 RES1    0.0000
     51 H27       -4.0597    7.5149   10.6576 H         1 RES1    0.0000
     52 C15       -4.8934    9.2840   11.2415 C.ar      1 RES1    0.0000
     53 C16       -4.7074   10.4714   11.9045 C.ar      1 RES1    0.0000
     54 H28       -5.4105   11.1046   11.9896 H         1 RES1    0.0000
     55 C17       -3.4561   10.7099   12.4428 C.ar      1 RES1    0.0000
     56 H29       -3.2782   11.5352   12.8792 H         1 RES1    0.0000
     57 C18       -2.4769    9.7661   12.3531 C.ar      1 RES1    0.0000
     58 C19        0.2323   11.2040   14.1488 C.2       1 RES1    0.0000
     59 H30        0.8882   10.5175   14.1154 H         1 RES1    0.0000
     60 C20        0.4589   12.4548   14.8194 C.2       1 RES1    0.0000
     61 C21       -0.5030   13.6108   14.7738 C.3       1 RES1    0.0000
     62 C22       -0.7035   14.1763   13.3749 C.3       1 RES1    0.0000
     63 H31        0.1469   14.1582   12.8898 H         1 RES1    0.0000
     64 H32       -1.0233   15.1006   13.4387 H         1 RES1    0.0000
     65 H33       -1.3655   13.6347   12.8959 H         1 RES1    0.0000
     66 C23       -1.7737   13.3840   15.5417 C.3       1 RES1    0.0000
     67 H34       -2.3108   12.7014   15.0886 H         1 RES1    0.0000
     68 H35       -2.2801   14.2210   15.5888 H         1 RES1    0.0000
     69 H36       -1.5575   13.0816   16.4479 H         1 RES1    0.0000
     70 C24        1.3912   14.1627   16.0009 C.2       1 RES1    0.0000
     71 C25        2.2205   14.9206   16.7916 C.2       1 RES1    0.0000
     72 C26        1.8428   16.2658   17.0775 C.1       1 RES1    0.0000
     73 C27        3.4073   14.4256   17.3831 C.1       1 RES1    0.0000
     74 C28        1.5635   12.8064   15.5219 C.2       1 RES1    0.0000
     75 C29        2.7363   12.0167   15.7242 C.1       1 RES1    0.0000
@<TRIPOS>BOND
     1    1    2 1
     2    3    1 1
     3    4   75 3
     4    5   73 3
     5    6   72 3
     6    7   10 2
     7    8   46 1
     8    9   61 1
     9   11    7 2
    10   12   13 1
    11   14   12 1
    12   15   12 1
    13   16   12 1
    14   17   16 1
    15   18   16 1
    16   19   16 1
    17   20   19 1
    18   21   19 1
    19   22   19 1
    20   23   22 1
    21   24   22 1
    22   25   22 1
    23   26   25 1
    24   27   25 1
    25   28   25 1
    26   29   28 1
    27   30   28 1
    28   31   28 1
    29   32   31 1
    30   33   31 1
    31   34   31 1
    32   35   34 1
    33   36   34 1
    34   37   34 1
    35   38   37 1
    36   39   37 1
    37   40   37 1
    38   41   40 1
    39   42   40 1
    40   43   40 1
    41   44   43 1
    42   45   43 1
    43   46   43 1
    44   47   46 1
    45   48   46 1
    46   49    8 1
    47   50   49 ar
    48   51   50 1
    49   52    7 1
    50   53   52 ar
    51   54   53 1
    52   55   53 ar
    53   56   55 1
    54   57    1 1
    55   58    3 2
    56   59   58 1
    57   60   58 1
    58   61   60 1
    59   62   61 1
    60   63   62 1
    61   64   62 1
    62   65   62 1
    63   66   61 1
    64   67   66 1
    65   68   66 1
    66   69   66 1
    67   70    9 1
    68   71   70 2
    69   72   71 1
    70   73   71 1
    71   74   60 2
    72   75   74 1
    73   49   57 ar
    74   50   52 ar
    75   55   57 ar
    76   70   74 1
@<TRIPOS>SUBSTRUCTURE
     1 RES1 1

@<TRIPOS>CRYSIN
   8.2450   11.2720   15.7880  92.7930 105.0060  95.3730   2 1

