# MOL2 file generated by ConQuest
# Please check atom types

@<TRIPOS>MOLECULE
UKIGEC
    46    48     1
SMALL
USER_CHARGES
****
Generated from CSD

@<TRIPOS>ATOM
      1 O1         6.2955    4.6140    0.5140 O.2       1 RES1   -1.0000
      2 N1         5.7624    5.2495    1.5099 N.pl3     1 RES1    1.0000
      3 C1         7.5471    8.4121    1.6871 C.ar      1 RES1    0.0000
      4 H1         6.8250    8.9394    1.9427 H         1 RES1    0.0000
      5 C2         8.7381    9.0164    1.3292 C.ar      1 RES1    0.0000
      6 H2         8.8033    9.9438    1.3328 H         1 RES1    0.0000
      7 C3         9.8195    8.2617    0.9713 C.ar      1 RES1    0.0000
      8 H3        10.6164    8.6742    0.7294 H         1 RES1    0.0000
      9 C4         9.7239    6.8935    0.9713 C.ar      1 RES1    0.0000
     10 H4        10.4635    6.3782    0.7449 H         1 RES1    0.0000
     11 C5         8.5285    6.2766    1.3073 C.ar      1 RES1    0.0000
     12 H5         8.4713    5.3489    1.2899 H         1 RES1    0.0000
     13 C6         7.4125    7.0249    1.6697 C.ar      1 RES1    0.0000
     14 C7         6.1657    6.3696    2.0577 C.2       1 RES1    0.0000
     15 C8         5.1396    6.8526    3.0665 C.3       1 RES1    0.0000
     16 C9         4.3920    5.5410    3.3549 C.3       1 RES1    0.0000
     17 H6         4.8157    5.0585    4.0816 H         1 RES1    0.0000
     18 H7         3.4695    5.7189    3.5950 H         1 RES1    0.0000
     19 C10        4.4654    4.7443    2.0705 C.3       1 RES1    0.0000
     20 H8         3.7371    5.0326    1.4807 H         1 RES1    0.0000
     21 C11        4.4277    3.2434    2.1846 C.2       1 RES1    0.0000
     22 C12        5.4544    2.5409    3.0117 C.ar      1 RES1    0.0000
     23 C13        6.6996    2.2287    2.5178 C.ar      1 RES1    0.0000
     24 H9         6.9274    2.4832    1.6533 H         1 RES1    0.0000
     25 C14        7.6207    1.5380    3.2947 C.ar      1 RES1    0.0000
     26 H10        8.4602    1.3415    2.9441 H         1 RES1    0.0000
     27 C15        7.3138    1.1481    4.5554 C.ar      1 RES1    0.0000
     28 H11        7.9304    0.6728    5.0648 H         1 RES1    0.0000
     29 C16        6.0967    1.4601    5.0621 C.ar      1 RES1    0.0000
     30 H12        5.8802    1.2006    5.9284 H         1 RES1    0.0000
     31 C17        5.1801    2.1540    4.3117 C.ar      1 RES1    0.0000
     32 H13        4.3558    2.3688    4.6850 H         1 RES1    0.0000
     33 C18        3.4481    2.5888    1.5812 C.2       1 RES1    0.0000
     34 H14        2.8551    3.0977    1.0763 H         1 RES1    0.0000
     35 C19        3.1976    1.1038    1.6286 C.3       1 RES1    0.0000
     36 H15        3.3096    0.7322    0.7513 H         1 RES1    0.0000
     37 H16        2.3020    0.9398    1.9345 H         1 RES1    0.0000
     38 H17        3.8218    0.6930    2.2321 H         1 RES1    0.0000
     39 C20        4.1805    7.8719    2.4247 C.3       1 RES1    0.0000
     40 H18        4.6644    8.6713    2.2010 H         1 RES1    0.0000
     41 H19        3.4788    8.0859    3.0436 H         1 RES1    0.0000
     42 H20        3.8004    7.4961    1.6277 H         1 RES1    0.0000
     43 C21        5.7572    7.4255    4.3400 C.3       1 RES1    0.0000
     44 H21        6.3879    6.7983    4.7006 H         1 RES1    0.0000
     45 H22        5.0653    7.5894    4.9854 H         1 RES1    0.0000
     46 H23        6.2058    8.2500    4.1355 H         1 RES1    0.0000
@<TRIPOS>BOND
     1    1    2 1
     2    2   14 2
     3    3    4 1
     4    5    3 ar
     5    6    5 1
     6    7    5 ar
     7    8    7 1
     8    9    7 ar
     9   10    9 1
    10   11    9 ar
    11   12   11 1
    12   13    3 ar
    13   14   13 1
    14   15   14 1
    15   16   15 1
    16   17   16 1
    17   18   16 1
    18   19    2 1
    19   20   19 1
    20   21   19 1
    21   22   21 1
    22   23   22 ar
    23   24   23 1
    24   25   23 ar
    25   26   25 1
    26   27   25 ar
    27   28   27 1
    28   29   27 ar
    29   30   29 1
    30   31   22 ar
    31   32   31 1
    32   33   21 2
    33   34   33 1
    34   35   33 1
    35   36   35 1
    36   37   35 1
    37   38   35 1
    38   39   15 1
    39   40   39 1
    40   41   39 1
    41   42   39 1
    42   43   15 1
    43   44   43 1
    44   45   43 1
    45   46   43 1
    46   11   13 ar
    47   16   19 1
    48   29   31 ar
@<TRIPOS>SUBSTRUCTURE
     1 RES1 1

@<TRIPOS>CRYSIN
   9.6457   10.2550   10.4809 114.7780 103.2170  93.7070   2 1

