# MOL2 file generated by ConQuest
# Please check atom types

@<TRIPOS>MOLECULE
ULANAW
    64    69     1
SMALL
NO_CHARGES
****
Generated from CSD

@<TRIPOS>ATOM
      1 C1         6.0120    1.6305    2.3544 C.ar      1 RES1    0.0000
      2 C2         6.7627    1.7668    1.1544 C.ar      1 RES1    0.0000
      3 C3         8.1664    1.9462    1.1544 C.ar      1 RES1    0.0000
      4 H1         8.6192    2.0020    1.9651 H         1 RES1    0.0000
      5 C4         8.8677    2.0395   -0.0121 C.ar      1 RES1    0.0000
      6 H2         9.7918    2.1447    0.0161 H         1 RES1    0.0000
      7 C5         8.2137    1.9789   -1.2618 C.ar      1 RES1    0.0000
      8 H3         8.7019    2.0459   -2.0511 H         1 RES1    0.0000
      9 C6         6.8689    1.8218   -1.3034 C.ar      1 RES1    0.0000
     10 H4         6.4385    1.7867   -2.1262 H         1 RES1    0.0000
     11 C7         6.1031    1.7110   -0.1128 C.ar      1 RES1    0.0000
     12 C8         4.7161    1.5587   -0.1423 C.ar      1 RES1    0.0000
     13 H5         4.2832    1.5284   -0.9651 H         1 RES1    0.0000
     14 C9         3.9654    1.4511    1.0108 C.ar      1 RES1    0.0000
     15 C10        4.6534    1.4399    2.2793 C.ar      1 RES1    0.0000
     16 C11        2.5110    1.2717    0.9611 C.2       1 RES1    0.0000
     17 C12        1.7083    1.6512   -0.2550 C.ar      1 RES1    0.0000
     18 C13        2.0309    2.7284   -1.0752 C.ar      1 RES1    0.0000
     19 H6         2.7823    3.2434   -0.8900 H         1 RES1    0.0000
     20 C14        1.2317    3.0385   -2.1705 C.ar      1 RES1    0.0000
     21 H7         1.4450    3.7529   -2.7276 H         1 RES1    0.0000
     22 C15        0.1180    2.2659   -2.4162 C.ar      1 RES1    0.0000
     23 C16       -0.2439    1.2103   -1.6000 C.ar      1 RES1    0.0000
     24 H8        -1.0099    0.7128   -1.7759 H         1 RES1    0.0000
     25 C17        0.5590    0.9137   -0.5168 C.ar      1 RES1    0.0000
     26 H9         0.3291    0.2105    0.0456 H         1 RES1    0.0000
     27 C18        6.7089    1.6616    3.6806 C.ar      1 RES1    0.0000
     28 C19        6.5845    2.7874    4.5518 C.ar      1 RES1    0.0000
     29 C20        5.7318    3.8821    4.2672 C.ar      1 RES1    0.0000
     30 H10        5.2433    3.8876    3.4766 H         1 RES1    0.0000
     31 C21        5.6177    4.9281    5.1344 C.ar      1 RES1    0.0000
     32 H11        5.0568    5.6377    4.9196 H         1 RES1    0.0000
     33 C22        6.3348    4.9552    6.3505 C.ar      1 RES1    0.0000
     34 H12        6.2404    5.6728    6.9344 H         1 RES1    0.0000
     35 C23        7.1613    3.9243    6.6606 C.ar      1 RES1    0.0000
     36 H13        7.6323    3.9395    7.4633 H         1 RES1    0.0000
     37 C24        7.3192    2.8216    5.7773 C.ar      1 RES1    0.0000
     38 C25        8.1544    1.7437    6.0995 C.ar      1 RES1    0.0000
     39 H14        8.6428    1.7700    6.8901 H         1 RES1    0.0000
     40 C26        8.2679    0.6458    5.2726 C.ar      1 RES1    0.0000
     41 C27        7.5137    0.6139    4.0444 C.ar      1 RES1    0.0000
     42 C28        9.0907   -0.4975    5.6538 C.2       1 RES1    0.0000
     43 C29        9.9551   -0.4537    6.8861 C.ar      1 RES1    0.0000
     44 C30        9.6601   -1.3028    7.9411 C.ar      1 RES1    0.0000
     45 H15        8.8826   -1.8139    7.9223 H         1 RES1    0.0000
     46 C31       10.5121   -1.3921    9.0177 C.ar      1 RES1    0.0000
     47 H16       10.3141   -1.9470    9.7372 H         1 RES1    0.0000
     48 C32       11.6590   -0.6426    9.0042 C.ar      1 RES1    0.0000
     49 C33       11.9817    0.2240    7.9814 C.ar      1 RES1    0.0000
     50 H17       12.7663    0.7232    8.0029 H         1 RES1    0.0000
     51 C34       11.0976    0.3237    6.9263 C.ar      1 RES1    0.0000
     52 H18       11.2729    0.9201    6.2337 H         1 RES1    0.0000
     53 N1        -0.7197    2.5649   -3.5935 N.pl3     1 RES1    0.0000
     54 N2        12.5947   -0.7726   10.1357 N.pl3     1 RES1    0.0000
     55 O1         3.9626    1.2454    3.4359 O.3       1 RES1    0.0000
     56 H19        3.1857    1.0524    3.2610 H         1 RES1    0.0000
     57 O2         1.8871    0.8172    1.9298 O.2       1 RES1    0.0000
     58 O3        -0.3368    3.4356   -4.3619 O.2       1 RES1    0.0000
     59 O4        -1.7495    1.9231   -3.7472 O.2       1 RES1    0.0000
     60 O5         7.6174   -0.4521    3.2128 O.3       1 RES1    0.0000
     61 H20        8.1057   -1.0205    3.5558 H         1 RES1    0.0000
     62 O6         9.1057   -1.5412    4.9986 O.2       1 RES1    0.0000
     63 O7        12.3408   -1.6249   10.9923 O.2       1 RES1    0.0000
     64 O8        13.5574   -0.0231   10.1899 O.2       1 RES1    0.0000
@<TRIPOS>BOND
     1    1    2 ar
     2    2    3 ar
     3    3    4 1
     4    5    3 ar
     5    6    5 1
     6    7    5 ar
     7    8    7 1
     8    9    7 ar
     9   10    9 1
    10   11    2 ar
    11   12   11 ar
    12   13   12 1
    13   14   12 ar
    14   15    1 ar
    15   16   14 1
    16   17   16 1
    17   18   17 ar
    18   19   18 1
    19   20   18 ar
    20   21   20 1
    21   22   20 ar
    22   23   22 ar
    23   24   23 1
    24   25   17 ar
    25   26   25 1
    26   27    1 1
    27   28   27 ar
    28   29   28 ar
    29   30   29 1
    30   31   29 ar
    31   32   31 1
    32   33   31 ar
    33   34   33 1
    34   35   33 ar
    35   36   35 1
    36   37   28 ar
    37   38   37 ar
    38   39   38 1
    39   40   38 ar
    40   41   27 ar
    41   42   40 1
    42   43   42 1
    43   44   43 ar
    44   45   44 1
    45   46   44 ar
    46   47   46 1
    47   48   46 ar
    48   49   48 ar
    49   50   49 1
    50   51   43 ar
    51   52   51 1
    52   53   22 1
    53   54   48 1
    54   55   15 1
    55   56   55 1
    56   57   16 2
    57   58   53 2
    58   59   53 2
    59   60   41 1
    60   61   60 1
    61   62   42 2
    62   63   54 2
    63   64   54 2
    64    9   11 ar
    65   14   15 ar
    66   23   25 ar
    67   35   37 ar
    68   40   41 ar
    69   49   51 ar
@<TRIPOS>SUBSTRUCTURE
     1 RES1 1

@<TRIPOS>CRYSIN
  12.4110    7.9730   13.4960  90.0000  95.9560  90.0000   4 1

