# MOL2 file generated by ConQuest
# Please check atom types

@<TRIPOS>MOLECULE
ULAVEK
    19    20     1
SMALL
NO_CHARGES
****
Generated from CSD

@<TRIPOS>ATOM
      1 O1         2.1540    5.0488    6.9224 O.3       1 RES1    0.0000
      2 O2        -0.1517   -0.3308    2.9457 O.2       1 RES1    0.0000
      3 O3        -1.2561    0.7050    1.3716 O.2       1 RES1    0.0000
      4 N1         2.5480    3.7757    7.3282 N.2       1 RES1    0.0000
      5 N2         1.3628    4.9760    5.7973 N.2       1 RES1    0.0000
      6 N3         0.3909    1.9386    4.1325 N.2       1 RES1    0.0000
      7 N4        -0.3714    1.9000    3.0203 N.pl3     1 RES1    0.0000
      8 N5        -0.6087    0.6465    2.4034 N.pl3     1 RES1    0.0000
      9 C1         2.0207    2.9409    6.4692 C.2       1 RES1    0.0000
     10 C2         1.2738    3.7044    5.5095 C.2       1 RES1    0.0000
     11 C3         0.4988    3.2434    4.3627 C.2       1 RES1    0.0000
     12 C4        -0.1909    4.0286    3.3900 C.2       1 RES1    0.0000
     13 H1        -0.2520    4.9668    3.3320 H         1 RES1    0.0000
     14 C5        -0.7416    3.1303    2.5237 C.2       1 RES1    0.0000
     15 H2        -1.2655    3.2207    1.7206 H         1 RES1    0.0000
     16 C6         2.2190    1.4708    6.5440 C.3       1 RES1    0.0000
     17 H3         2.7988    1.2511    7.2566 H         1 RES1    0.0000
     18 H4         1.3587    1.0276    6.6513 H         1 RES1    0.0000
     19 H5         2.5798    1.1454    5.7272 H         1 RES1    0.0000
@<TRIPOS>BOND
     1    1    4 1
     2    2    8 2
     3    3    8 2
     4    4    9 2
     5    5    1 1
     6    6    7 1
     7    7    8 1
     8    9   10 1
     9   10    5 2
    10   11    6 2
    11   12   11 1
    12   13   12 1
    13   14    7 1
    14   15   14 1
    15   16    9 1
    16   17   16 1
    17   18   16 1
    18   19   16 1
    19   10   11 1
    20   12   14 2
@<TRIPOS>SUBSTRUCTURE
     1 RES1 1

@<TRIPOS>CRYSIN
   7.5873   13.3804    8.3240  90.0000 106.8750  90.0000  14 1

