# MOL2 file generated by ConQuest
# Please check atom types

@<TRIPOS>MOLECULE
ULAWAH
    28    29     1
SMALL
NO_CHARGES
****
Generated from CSD

@<TRIPOS>ATOM
      1 O1         6.1647    0.5094    5.0745 O.2       1 RES1    0.0000
      2 O2         4.3877   -1.2759    6.4390 O.3       1 RES1    0.0000
      3 O3         2.8834    0.2575    8.2430 O.2       1 RES1    0.0000
      4 N1         4.6126    0.0582    6.7056 N.am      1 RES1    0.0000
      5 N2         4.0687    2.0485    7.4065 N.am      1 RES1    0.0000
      6 H1         3.5923    2.6687    7.7776 H         1 RES1    0.0000
      7 C1         5.1193    2.2766    6.4289 C.3       1 RES1    0.0000
      8 H2         4.7701    2.8196    5.6919 H         1 RES1    0.0000
      9 C2         5.4016    0.8641    5.9312 C.2       1 RES1    0.0000
     10 C3         3.7341    0.7764    7.5453 C.2       1 RES1    0.0000
     11 C4         6.3664    2.9205    6.9840 C.ar      1 RES1    0.0000
     12 C5         7.1795    3.6495    6.1390 C.ar      1 RES1    0.0000
     13 H3         6.9390    3.7513    5.2467 H         1 RES1    0.0000
     14 C6         8.3383    4.2268    6.5965 C.ar      1 RES1    0.0000
     15 H4         8.8689    4.7189    6.0146 H         1 RES1    0.0000
     16 C7         8.7099    4.0847    7.8855 C.ar      1 RES1    0.0000
     17 H5         9.5025    4.4689    8.1847 H         1 RES1    0.0000
     18 C8         7.9176    3.3705    8.7614 C.ar      1 RES1    0.0000
     19 H6         8.1722    3.2784    9.6516 H         1 RES1    0.0000
     20 C9         6.7318    2.7845    8.3080 C.ar      1 RES1    0.0000
     21 H7         6.1915    2.3064    8.8960 H         1 RES1    0.0000
     22 C10        5.4573   -2.1090    6.9439 C.3       1 RES1    0.0000
     23 H8         6.2967   -1.8055    6.5636 H         1 RES1    0.0000
     24 H9         5.3121   -3.0205    6.6458 H         1 RES1    0.0000
     25 C11        5.5709   -2.1011    8.4129 C.3       1 RES1    0.0000
     26 H10        6.2599   -2.7126    8.6832 H         1 RES1    0.0000
     27 H11        4.7350   -2.3696    8.7994 H         1 RES1    0.0000
     28 H12        5.7926   -1.2168    8.7120 H         1 RES1    0.0000
@<TRIPOS>BOND
     1    1    9 2
     2    2    4 1
     3    3   10 2
     4    4    9 1
     5    5    6 1
     6    7    5 1
     7    8    7 1
     8    9    7 1
     9   10    4 1
    10   11    7 1
    11   12   11 ar
    12   13   12 1
    13   14   12 ar
    14   15   14 1
    15   16   14 ar
    16   17   16 1
    17   18   16 ar
    18   19   18 1
    19   20   11 ar
    20   21   20 1
    21   22    2 1
    22   23   22 1
    23   24   22 1
    24   25   22 1
    25   26   25 1
    26   27   25 1
    27   28   25 1
    28    5   10 1
    29   18   20 ar
@<TRIPOS>SUBSTRUCTURE
     1 RES1 1

@<TRIPOS>CRYSIN
  12.0187    8.7729   11.1179  90.0000 112.3910  90.0000  14 1

