# MOL2 file generated by ConQuest
# Please check atom types

@<TRIPOS>MOLECULE
ULECOF
    40    41     1
SMALL
NO_CHARGES
****
Generated from CSD

@<TRIPOS>ATOM
      1 N1        -1.7598    4.9744    2.9169 N.am      1 RES1    0.0000
      2 N2         0.9692    9.2246    6.9299 N.pl3     1 RES1    0.0000
      3 O1         1.8686    4.7066    2.7926 O.3       1 RES1    0.0000
      4 H1         2.3253    4.1688    3.2092 H         1 RES1    0.0000
      5 O2         1.3100    2.5493    4.2124 O.3       1 RES1    0.0000
      6 O3        -3.2979    3.5904    3.8088 O.2       1 RES1    0.0000
      7 O4         1.9948    9.8379    6.8255 O.2       1 RES1    0.0000
      8 O5         0.2072    9.3779    7.8601 O.2       1 RES1    0.0000
      9 C1         0.3625    3.5823    1.3112 C.3       1 RES1    0.0000
     10 H2         0.6403    4.2009    0.6306 H         1 RES1    0.0000
     11 H3        -0.5621    3.3596    1.1828 H         1 RES1    0.0000
     12 H4         0.8942    2.7849    1.2549 H         1 RES1    0.0000
     13 C2         0.5467    4.2202    2.6841 C.3       1 RES1    0.0000
     14 C3         0.2081    3.2157    3.7646 C.2       1 RES1    0.0000
     15 C4        -1.0377    3.0289    4.1926 C.2       1 RES1    0.0000
     16 C5        -2.1116    3.8812    3.6184 C.2       1 RES1    0.0000
     17 C6        -0.3831    5.4368    2.8177 C.3       1 RES1    0.0000
     18 H5        -0.3154    5.9327    1.9742 H         1 RES1    0.0000
     19 C7         1.4929    1.2138    4.1268 C.3       1 RES1    0.0000
     20 H6         1.3546    0.8148    4.9892 H         1 RES1    0.0000
     21 H7         2.3873    1.0323    3.8303 H         1 RES1    0.0000
     22 H8         0.8667    0.8451    3.5004 H         1 RES1    0.0000
     23 C8        -1.5014    2.0118    5.1979 C.3       1 RES1    0.0000
     24 H9        -2.0057    1.3272    4.7522 H         1 RES1    0.0000
     25 H10       -2.0559    2.4408    5.8546 H         1 RES1    0.0000
     26 H11       -0.7401    1.6184    5.6301 H         1 RES1    0.0000
     27 C9        -2.7875    5.8728    2.4293 C.3       1 RES1    0.0000
     28 H12       -3.4083    5.3825    1.8844 H         1 RES1    0.0000
     29 H13       -2.3824    6.5679    1.9063 H         1 RES1    0.0000
     30 H14       -3.2523    6.2617    3.1737 H         1 RES1    0.0000
     31 C10       -0.0263    6.4140    3.9212 C.ar      1 RES1    0.0000
     32 C11       -0.6587    6.4082    5.1489 C.ar      1 RES1    0.0000
     33 H15       -1.3074    5.7644    5.3201 H         1 RES1    0.0000
     34 C12       -0.3559    7.3287    6.1260 C.ar      1 RES1    0.0000
     35 H16       -0.7958    7.3147    6.9445 H         1 RES1    0.0000
     36 C13        0.6068    8.2642    5.8640 C.ar      1 RES1    0.0000
     37 C14        1.2661    8.3088    4.6760 C.ar      1 RES1    0.0000
     38 H17        1.9268    8.9463    4.5246 H         1 RES1    0.0000
     39 C15        0.9385    7.3945    3.7009 C.ar      1 RES1    0.0000
     40 H18        1.3700    7.4319    2.8772 H         1 RES1    0.0000
@<TRIPOS>BOND
     1    1   16 1
     2    2    7 2
     3    3    4 1
     4    5   14 1
     5    6   16 2
     6    8    2 2
     7    9   10 1
     8   11    9 1
     9   12    9 1
    10   13    3 1
    11   14   13 1
    12   15   14 2
    13   16   15 1
    14   17    1 1
    15   18   17 1
    16   19    5 1
    17   20   19 1
    18   21   19 1
    19   22   19 1
    20   23   15 1
    21   24   23 1
    22   25   23 1
    23   26   23 1
    24   27    1 1
    25   28   27 1
    26   29   27 1
    27   30   27 1
    28   31   17 1
    29   32   31 ar
    30   33   32 1
    31   34   32 ar
    32   35   34 1
    33   36    2 1
    34   37   36 ar
    35   38   37 1
    36   39   31 ar
    37   40   39 1
    38    9   13 1
    39   13   17 1
    40   34   36 ar
    41   37   39 ar
@<TRIPOS>SUBSTRUCTURE
     1 RES1 1

@<TRIPOS>CRYSIN
   7.6658   18.9060   10.5290  90.0000  97.4660  90.0000 231 1

