# MOL2 file generated by ConQuest
# Please check atom types

@<TRIPOS>MOLECULE
ULEPIL
    48    49     1
SMALL
NO_CHARGES
****
Generated from CSD

@<TRIPOS>ATOM
      1 O1         1.6001    2.8797    9.3098 O.2       1 RES1    0.0000
      2 O2         4.2569   -2.1667    4.5238 O.2       1 RES1    0.0000
      3 O3         6.0980   -2.6588    5.5566 O.2       1 RES1    0.0000
      4 N1         2.2663    1.4713    7.5827 N.am      1 RES1    0.0000
      5 H1         1.6495    1.6660    6.9857 H         1 RES1    0.0000
      6 N2         3.4640    1.4868    9.4237 N.am      1 RES1    0.0000
      7 N3         5.0436   -2.0319    5.4565 N.pl3     1 RES1    0.0000
      8 C1         2.3548    2.0315    8.8109 C.2       1 RES1    0.0000
      9 C2         3.2793    0.5502    7.3958 C.ar      1 RES1    0.0000
     10 C3         3.5755   -0.2930    6.3529 C.ar      1 RES1    0.0000
     11 H2         3.0535   -0.3346    5.5846 H         1 RES1    0.0000
     12 C4         4.7100   -1.0808    6.5232 C.ar      1 RES1    0.0000
     13 C5         5.4986   -1.0381    7.6399 C.ar      1 RES1    0.0000
     14 H3         6.2591   -1.5706    7.6855 H         1 RES1    0.0000
     15 C6         5.1795   -0.2108    8.6971 C.ar      1 RES1    0.0000
     16 H4         5.7010   -0.1861    9.4669 H         1 RES1    0.0000
     17 C7         4.0526    0.5791    8.5645 C.ar      1 RES1    0.0000
     18 C8         3.9470    1.8861   10.7352 C.3       1 RES1    0.0000
     19 H5         3.4400    2.6570   11.0353 H         1 RES1    0.0000
     20 H6         4.8762    2.1551   10.6596 H         1 RES1    0.0000
     21 C9         3.8337    0.7803   11.7799 C.3       1 RES1    0.0000
     22 H7         4.3159    0.0040   11.4552 H         1 RES1    0.0000
     23 H8         4.2749    1.0795   12.5901 H         1 RES1    0.0000
     24 C10        2.4247    0.3539   12.1337 C.3       1 RES1    0.0000
     25 H9         1.9898   -0.0042   11.3442 H         1 RES1    0.0000
     26 H10        1.9198    1.1269   12.4304 H         1 RES1    0.0000
     27 C11        2.4183   -0.7022   13.2336 C.3       1 RES1    0.0000
     28 H11        2.9086   -1.4771   12.9172 H         1 RES1    0.0000
     29 H12        2.8954   -0.3496   14.0018 H         1 RES1    0.0000
     30 C12        1.0536   -1.1551   13.6885 C.3       1 RES1    0.0000
     31 H13        0.5409   -0.3782   13.9638 H         1 RES1    0.0000
     32 H14        0.5925   -1.5617   12.9385 H         1 RES1    0.0000
     33 C13        1.0911   -2.1431   14.8309 C.3       1 RES1    0.0000
     34 H15        1.5772   -1.7417   15.5688 H         1 RES1    0.0000
     35 H16        1.5883   -2.9247   14.5449 H         1 RES1    0.0000
     36 C14       -0.2615   -2.5932   15.3375 C.3       1 RES1    0.0000
     37 H17       -0.7806   -1.8077   15.5703 H         1 RES1    0.0000
     38 H18       -0.7254   -3.0470   14.6164 H         1 RES1    0.0000
     39 C15       -0.2195   -3.5195   16.5424 C.3       1 RES1    0.0000
     40 H19        0.2790   -4.3163   16.3035 H         1 RES1    0.0000
     41 H20        0.2627   -3.0759   17.2574 H         1 RES1    0.0000
     42 C16       -1.5751   -3.9351   17.0596 C.3       1 RES1    0.0000
     43 H21       -2.0322   -4.4408   16.3689 H         1 RES1    0.0000
     44 H22       -2.1000   -3.1391   17.2376 H         1 RES1    0.0000
     45 C17       -1.5107   -4.7732   18.3207 C.3       1 RES1    0.0000
     46 H23       -2.4000   -5.0146   18.5900 H         1 RES1    0.0000
     47 H24       -1.0912   -4.2664   19.0205 H         1 RES1    0.0000
     48 H25       -1.0003   -5.5680   18.1519 H         1 RES1    0.0000
@<TRIPOS>BOND
     1    1    8 2
     2    2    7 2
     3    3    7 2
     4    4    5 1
     5    6    8 1
     6    7   12 1
     7    8    4 1
     8    9    4 1
     9   10    9 ar
    10   11   10 1
    11   12   10 ar
    12   13   12 ar
    13   14   13 1
    14   15   13 ar
    15   16   15 1
    16   17    6 1
    17   18    6 1
    18   19   18 1
    19   20   18 1
    20   21   18 1
    21   22   21 1
    22   23   21 1
    23   24   21 1
    24   25   24 1
    25   26   24 1
    26   27   24 1
    27   28   27 1
    28   29   27 1
    29   30   27 1
    30   31   30 1
    31   32   30 1
    32   33   30 1
    33   34   33 1
    34   35   33 1
    35   36   33 1
    36   37   36 1
    37   38   36 1
    38   39   36 1
    39   40   39 1
    40   41   39 1
    41   42   39 1
    42   43   42 1
    43   44   42 1
    44   45   42 1
    45   46   45 1
    46   47   45 1
    47   48   45 1
    48    9   17 ar
    49   15   17 ar
@<TRIPOS>SUBSTRUCTURE
     1 RES1 1

@<TRIPOS>CRYSIN
   5.4933   10.3063   16.1655 106.5040  98.5450  96.8090   2 1

