# MOL2 file generated by ConQuest
# Please check atom types

@<TRIPOS>MOLECULE
ULEYUH
    26    26     1
SMALL
NO_CHARGES
****
Generated from CSD

@<TRIPOS>ATOM
      1 O1         2.7525    3.2927    5.3954 O.2       1 RES1    0.0000
      2 O2         0.9189    3.2927    4.2296 O.2       1 RES1    0.0000
      3 O3         0.2418    1.1457    5.7966 O.2       1 RES1    0.0000
      4 O4        -1.0420    1.9727    7.3122 O.2       1 RES1    0.0000
      5 O5         3.2899    1.0593    9.8084 O.3       1 RES1    0.0000
      6 N1         2.0003    2.0997    8.2112 N.ar      1 RES1    0.0000
      7 N2         3.2750    3.2927    9.8379 N.ar      1 RES1    0.0000
      8 N3         1.5454    3.2927    5.2700 N.pl3     1 RES1    0.0000
      9 N4        -0.1290    2.0209    6.5430 N.pl3     1 RES1    0.0000
     10 C1         0.7328    3.2927    6.5666 C.3       1 RES1    0.0000
     11 C2         1.6462    3.2927    7.7839 C.ar      1 RES1    0.0000
     12 C3         2.8341    2.1770    9.2668 C.ar      1 RES1    0.0000
     13 C4         2.8972   -0.1854    9.1798 C.3       1 RES1    0.0000
     14 H1         1.9418   -0.2384    9.1106 H         1 RES1    0.0000
     15 H2         3.2961   -0.2397    8.2952 H         1 RES1    0.0000
     16 H3         3.2466   -0.8811    9.7766 H         1 RES1    0.0000
     17 O3F        0.2418    5.4396    5.7966 O.2       1 RES1    0.0000
     18 O4F       -1.0420    4.6126    7.3122 O.2       1 RES1    0.0000
     19 O5F        3.2899    5.5260    9.8084 O.3       1 RES1    0.0000
     20 N1F        2.0003    4.4856    8.2112 N.ar      1 RES1    0.0000
     21 N4F       -0.1290    4.5644    6.5430 N.pl3     1 RES1    0.0000
     22 C3F        2.8341    4.4083    9.2668 C.ar      1 RES1    0.0000
     23 C4F        2.8972    6.7707    9.1798 C.3       1 RES1    0.0000
     24 H1F        1.9418    6.8237    9.1106 H         1 RES1    0.0000
     25 H2F        3.2961    6.8250    8.2952 H         1 RES1    0.0000
     26 H3F        3.2466    7.4664    9.7766 H         1 RES1    0.0000
@<TRIPOS>BOND
     1    1    8 2
     2    2    8 2
     3    3    9 2
     4    4    9 2
     5    5   12 1
     6    6   11 ar
     7    7   12 ar
     8    8   10 1
     9    9   10 1
    10   10   11 1
    11   11   20 ar
    12   12    6 ar
    13   13    5 1
    14   14   13 1
    15   15   13 1
    16   16   13 1
    17   17   21 2
    18   18   21 2
    19   19   22 1
    20   20   22 ar
    21   21   10 1
    22   22    7 ar
    23   23   19 1
    24   24   23 1
    25   25   23 1
    26   26   23 1
@<TRIPOS>SUBSTRUCTURE
     1 RES1 1

@<TRIPOS>CRYSIN
   6.1840   13.1706   13.7043  90.0000  90.0000  90.0000  62 1

