# MOL2 file generated by ConQuest
# Please check atom types

@<TRIPOS>MOLECULE
ULIZUL
    46    47     1
SMALL
NO_CHARGES
****
Generated from CSD

@<TRIPOS>ATOM
      1 O1        -2.0598    2.9590    5.9734 O.3       1 RES1    0.0000
      2 O2         3.4225    0.5054    8.5156 O.2       1 RES1    0.0000
      3 O3         4.3097   -0.4182    6.8009 O.2       1 RES1    0.0000
      4 O4         5.9133    3.8524    8.4894 O.2       1 RES1    0.0000
      5 O5         5.8990    6.3822    6.1154 O.2       1 RES1    0.0000
      6 N1         3.9609    0.5599    7.4245 N.pl3     1 RES1    0.0000
      7 N2         7.2818    6.0627    7.9144 N.am      1 RES1    0.0000
      8 H1         7.4571    5.4892    8.5576 H         1 RES1    0.0000
      9 C1         1.9836    2.9596    7.0081 C.ar      1 RES1    0.0000
     10 C2         1.6120    2.8502    5.6794 C.ar      1 RES1    0.0000
     11 H2         2.2869    2.7729    5.0163 H         1 RES1    0.0000
     12 C3         0.2799    2.8502    5.2906 C.ar      1 RES1    0.0000
     13 H3         0.0523    2.7659    4.3720 H         1 RES1    0.0000
     14 C4        -0.7164    2.9741    6.2432 C.ar      1 RES1    0.0000
     15 C5        -0.3626    3.0889    7.5783 C.ar      1 RES1    0.0000
     16 H4        -1.0389    3.1714    8.2402 H         1 RES1    0.0000
     17 C6         0.9630    3.0847    7.9509 C.ar      1 RES1    0.0000
     18 H5         1.1880    3.1684    8.8694 H         1 RES1    0.0000
     19 C7        -2.4389    2.8145    4.6217 C.3       1 RES1    0.0000
     20 H6        -3.4081    2.9315    4.5392 H         1 RES1    0.0000
     21 H7        -2.1891    1.9213    4.3054 H         1 RES1    0.0000
     22 H8        -1.9819    3.4916    4.0811 H         1 RES1    0.0000
     23 C8         3.4385    3.0295    7.4232 C.3       1 RES1    0.0000
     24 H9         3.4758    2.9345    8.4189 H         1 RES1    0.0000
     25 C9         4.2747    1.8986    6.8155 C.3       1 RES1    0.0000
     26 H10        4.1061    1.8588    5.8413 H         1 RES1    0.0000
     27 H11        5.2351    2.0977    6.9495 H         1 RES1    0.0000
     28 C10        4.0584    4.3984    7.0580 C.3       1 RES1    0.0000
     29 H12        4.0984    4.4859    6.0618 H         1 RES1    0.0000
     30 C11        3.2271    5.5622    7.6363 C.3       1 RES1    0.0000
     31 H13        3.1699    5.4704    8.6109 H         1 RES1    0.0000
     32 H14        2.3256    5.5418    7.2517 H         1 RES1    0.0000
     33 H15        3.6579    6.4142    7.4133 H         1 RES1    0.0000
     34 C12        5.4441    4.5591    7.6254 C.2       1 RES1    0.0000
     35 C13        6.2401    5.7747    7.1139 C.2       1 RES1    0.0000
     36 C14        8.1269    7.2006    7.8233 C.ar      1 RES1    0.0000
     37 C15        7.6302    8.4218    7.3968 C.ar      1 RES1    0.0000
     38 H16        6.7203    8.5050    7.1358 H         1 RES1    0.0000
     39 C16        8.4730    9.5197    7.3557 C.ar      1 RES1    0.0000
     40 H17        8.1348   10.3598    7.0693 H         1 RES1    0.0000
     41 C17        9.8003    9.4089    7.7256 C.ar      1 RES1    0.0000
     42 H18       10.3733   10.1655    7.6870 H         1 RES1    0.0000
     43 C18       10.2842    8.1890    8.1508 C.ar      1 RES1    0.0000
     44 H19       11.1953    8.1084    8.4075 H         1 RES1    0.0000
     45 C19        9.4564    7.0826    8.2067 C.ar      1 RES1    0.0000
     46 H20        9.7953    6.2466    8.5063 H         1 RES1    0.0000
@<TRIPOS>BOND
     1    1   14 1
     2    2    6 2
     3    3    6 2
     4    4   34 2
     5    5   35 2
     6    6   25 1
     7    7    8 1
     8    9   10 ar
     9   10   11 1
    10   12   10 ar
    11   13   12 1
    12   14   12 ar
    13   15   14 ar
    14   16   15 1
    15   17    9 ar
    16   18   17 1
    17   19    1 1
    18   20   19 1
    19   21   19 1
    20   22   19 1
    21   23    9 1
    22   24   23 1
    23   25   23 1
    24   26   25 1
    25   27   25 1
    26   28   23 1
    27   29   28 1
    28   30   28 1
    29   31   30 1
    30   32   30 1
    31   33   30 1
    32   34   28 1
    33   35    7 1
    34   36    7 1
    35   37   36 ar
    36   38   37 1
    37   39   37 ar
    38   40   39 1
    39   41   39 ar
    40   42   41 1
    41   43   41 ar
    42   44   43 1
    43   45   36 ar
    44   46   45 1
    45   15   17 ar
    46   34   35 1
    47   43   45 ar
@<TRIPOS>SUBSTRUCTURE
     1 RES1 1

@<TRIPOS>CRYSIN
   9.6820    9.9137   19.0085  90.0000  90.0000  90.0000  19 1

