# MOL2 file generated by ConQuest
# Please check atom types

@<TRIPOS>MOLECULE
UMAXIR
    41    42     1
SMALL
NO_CHARGES
****
Generated from CSD

@<TRIPOS>ATOM
      1 C1         2.6577    4.2833    3.6901 C.ar      1 RES1    0.0000
      2 C2         9.9752    7.5721    6.4167 C.ar      1 RES1    0.0000
      3 C3         9.9989    7.8957    5.0736 C.ar      1 RES1    0.0000
      4 C4         8.9713    7.4201    4.2779 C.ar      1 RES1    0.0000
      5 C5         1.4530    6.6014    0.3744 C.3       1 RES1    0.0000
      6 C6         1.2177    1.8344    5.9484 C.3       1 RES1    0.0000
      7 C7         3.8899    4.6379    4.4440 C.2       1 RES1    0.0000
      8 C8         3.9253    4.6191    5.9441 C.3       1 RES1    0.0000
      9 C9         6.8772    6.1847    3.8934 C.2       1 RES1    0.0000
     10 C10        1.8147    3.2488    4.1122 C.ar      1 RES1    0.0000
     11 C11        0.6233    3.0004    3.4301 C.ar      1 RES1    0.0000
     12 C12        0.2790    3.7677    2.3329 C.ar      1 RES1    0.0000
     13 C13        1.1144    4.7866    1.8954 C.ar      1 RES1    0.0000
     14 C14        2.3000    5.0456    2.5708 C.ar      1 RES1    0.0000
     15 C15        7.9562    6.6374    4.8225 C.ar      1 RES1    0.0000
     16 C16        7.9554    6.3399    6.1845 C.ar      1 RES1    0.0000
     17 C17        8.9785    6.8098    6.9970 C.ar      1 RES1    0.0000
     18 H1        10.6973    8.4268    4.7088 H         1 RES1    0.0000
     19 H2         8.9594    7.6293    3.3508 H         1 RES1    0.0000
     20 H3         1.0038    7.0500   -0.3724 H         1 RES1    0.0000
     21 H4         2.3394    6.2966    0.0874 H         1 RES1    0.0000
     22 H5         1.5484    7.2281    1.1218 H         1 RES1    0.0000
     23 H6         0.8564    1.0835    5.4332 H         1 RES1    0.0000
     24 H7         0.4980    2.4668    6.1531 H         1 RES1    0.0000
     25 H8         1.6063    1.5010    6.7844 H         1 RES1    0.0000
     26 H9         4.4962    3.8837    6.2485 H         1 RES1    0.0000
     27 H10        3.0178    4.4933    6.2905 H         1 RES1    0.0000
     28 H11        4.2854    5.4697    6.2723 H         1 RES1    0.0000
     29 H12        0.0483    2.3018    3.7198 H         1 RES1    0.0000
     30 H13       -0.5348    3.5969    1.8747 H         1 RES1    0.0000
     31 H14        2.8711    5.7434    2.2721 H         1 RES1    0.0000
     32 H15        7.2565    5.8154    6.5562 H         1 RES1    0.0000
     33 H16        8.9933    6.6128    7.9267 H         1 RES1    0.0000
     34 N1         4.8599    5.0315    3.6938 N.2       1 RES1    0.0000
     35 N2        11.0762    8.0528    7.2756 N.pl3     1 RES1    0.0000
     36 O1         0.6757    5.4792    0.7920 O.3       1 RES1    0.0000
     37 O2         2.2325    2.4972    5.1805 O.3       1 RES1    0.0000
     38 O3         5.9588    5.4386    4.5511 O.3       1 RES1    0.0000
     39 O4         6.8370    6.4533    2.7269 O.2       1 RES1    0.0000
     40 O5        11.9192    8.7913    6.7692 O.2       1 RES1    0.0000
     41 O6        11.0968    7.6986    8.4486 O.2       1 RES1    0.0000
@<TRIPOS>BOND
     1    1    7 1
     2    2    3 ar
     3    3    4 ar
     4    4   15 ar
     5    5   20 1
     6    6   23 1
     7    7    8 1
     8    8   26 1
     9    9   15 1
    10   10    1 ar
    11   11   10 ar
    12   12   11 ar
    13   13   12 ar
    14   14    1 ar
    15   15   16 ar
    16   16   17 ar
    17   17    2 ar
    18   18    3 1
    19   19    4 1
    20   21    5 1
    21   22    5 1
    22   24    6 1
    23   25    6 1
    24   27    8 1
    25   28    8 1
    26   29   11 1
    27   30   12 1
    28   31   14 1
    29   32   16 1
    30   33   17 1
    31   34    7 2
    32   35    2 1
    33   36    5 1
    34   37    6 1
    35   38    9 1
    36   39    9 2
    37   40   35 2
    38   41   35 2
    39   10   37 1
    40   13   14 ar
    41   13   36 1
    42   34   38 1
@<TRIPOS>SUBSTRUCTURE
     1 RES1 1

@<TRIPOS>CRYSIN
  17.1206    8.1711   11.6431  90.0000 102.7790  90.0000  14 1

