# MOL2 file generated by ConQuest
# Please check atom types

@<TRIPOS>MOLECULE
UMIJOP
    41    43     1
SMALL
NO_CHARGES
****
Generated from CSD

@<TRIPOS>ATOM
      1 C1        -1.2125    0.3231    5.5310 C.3       1 RES1    0.0000
      2 C2        -2.1514    0.7132    4.3923 C.3       1 RES1    0.0000
      3 C3        -2.4518   -0.4328    3.4322 C.3       1 RES1    0.0000
      4 C4        -1.4695   -0.2398    2.2864 C.3       1 RES1    0.0000
      5 C5        -0.8001    1.1105    2.5305 C.3       1 RES1    0.0000
      6 C6         0.6827    1.0139    2.8714 C.3       1 RES1    0.0000
      7 C7         1.0081    0.7498    4.3409 C.3       1 RES1    0.0000
      8 C8         0.1266   -0.2550    5.0772 C.3       1 RES1    0.0000
      9 O1        -1.9020   -0.5649    6.3974 O.3       1 RES1    0.0000
     10 O2        -1.5419    1.7545    3.5849 O.3       1 RES1    0.0000
     11 O3         1.2584    2.3256    2.5628 O.3       1 RES1    0.0000
     12 C9         2.4360    2.3520    1.9445 C.2       1 RES1    0.0000
     13 O4         3.0364    1.3827    1.5643 O.2       1 RES1    0.0000
     14 C10        2.9475    3.7438    1.7731 C.ar      1 RES1    0.0000
     15 C11        2.2002    4.8634    2.1251 C.ar      1 RES1    0.0000
     16 C12        2.7764    6.1090    1.9586 C.ar      1 RES1    0.0000
     17 C13        4.0617    6.2919    1.4866 C.ar      1 RES1    0.0000
     18 C14        4.7794    5.1530    1.1881 C.ar      1 RES1    0.0000
     19 C15        4.2485    3.8851    1.2920 C.ar      1 RES1    0.0000
     20 N1         1.9926    7.3018    2.3086 N.pl3     1 RES1    0.0000
     21 O5         1.0177    7.1585    3.0277 O.2       1 RES1    0.0000
     22 O6         2.3686    8.3726    1.8568 O.2       1 RES1    0.0000
     23 N2         6.1728    5.2983    0.7282 N.pl3     1 RES1    0.0000
     24 O7         6.6422    6.4270    0.6717 O.2       1 RES1    0.0000
     25 O8         6.7844    4.2925    0.4297 O.2       1 RES1    0.0000
     26 H1        -1.6295   -1.5036    6.2632 H         1 RES1    0.0000
     27 H2        -0.9624    1.1613    6.0161 H         1 RES1    0.0000
     28 H3        -2.9979    1.0058    4.8371 H         1 RES1    0.0000
     29 H4        -2.3056   -1.3147    3.8780 H         1 RES1    0.0000
     30 H5        -3.3946   -0.3779    3.1024 H         1 RES1    0.0000
     31 H6        -0.7872   -0.9713    2.2864 H         1 RES1    0.0000
     32 H7        -1.9523   -0.2347    1.4110 H         1 RES1    0.0000
     33 H8        -0.8212    1.6428    1.6843 H         1 RES1    0.0000
     34 H9         1.0445    0.2398    2.3520 H         1 RES1    0.0000
     35 H10        0.9409    1.6215    4.8260 H         1 RES1    0.0000
     36 H11        1.9492    0.4155    4.3863 H         1 RES1    0.0000
     37 H12        0.6216   -0.5781    5.8840 H         1 RES1    0.0000
     38 H13       -0.0523   -1.0251    4.4649 H         1 RES1    0.0000
     39 H14        1.2731    4.7700    2.4871 H         1 RES1    0.0000
     40 H15        4.4524    7.2053    1.3686 H         1 RES1    0.0000
     41 H16        4.7851    3.0835    1.0277 H         1 RES1    0.0000
@<TRIPOS>BOND
     1    1    2 1
     2    2    3 1
     3    3    4 1
     4    4    5 1
     5    5    6 1
     6    6    7 1
     7    7    8 1
     8    8    1 1
     9    9    1 1
    10   10    2 1
    11   11    6 1
    12   12   11 1
    13   13   12 2
    14   14   12 1
    15   15   14 ar
    16   16   15 ar
    17   17   16 ar
    18   18   17 ar
    19   19   14 ar
    20   20   16 1
    21   21   20 2
    22   22   20 2
    23   23   18 1
    24   24   23 2
    25   25   23 2
    26   26    9 1
    27   27    1 1
    28   28    2 1
    29   29    3 1
    30   30    3 1
    31   31    4 1
    32   32    4 1
    33   33    5 1
    34   34    6 1
    35   35    7 1
    36   36    7 1
    37   37    8 1
    38   38    8 1
    39   39   15 1
    40   40   17 1
    41   41   19 1
    42    5   10 1
    43   18   19 ar
@<TRIPOS>SUBSTRUCTURE
     1 RES1 1

@<TRIPOS>CRYSIN
   7.4163   10.1597   10.4275  90.0000 104.7100  90.0000   4 1

