# MOL2 file generated by ConQuest
# Please check atom types

@<TRIPOS>MOLECULE
UMIKEG
    63    66     2
SMALL
NO_CHARGES
****
Generated from CSD

@<TRIPOS>ATOM
      1 O1         0.4462    1.3296    8.9804 O.3       1 RES1    0.0000
      2 O2        -0.7573   -1.9845    8.5753 O.3       1 RES1    0.0000
      3 N1        -0.0763    0.0636   11.4598 N.3       1 RES1    0.0000
      4 O3         1.1356   -0.1575   10.6403 O.3       1 RES1    0.0000
      5 C1         0.6771   -0.0280    9.3005 C.3       1 RES1    0.0000
      6 N2         1.6868   -0.5351    8.4290 N.3       1 RES1    0.0000
      7 H1         1.2984   -0.9148    7.6997 Du        2 SUP2    0.0000
      8 H2         1.9666   -1.3906    8.7534 H         1 RES1    0.0000
      9 C2        -0.6536   -0.7724    9.3370 C.3       1 RES1    0.0000
     10 C3        -1.0870   -0.8037   10.8052 C.3       1 RES1    0.0000
     11 H3        -1.0430   -1.6765   11.2019 H         1 RES1    0.0000
     12 C4        -3.5321   -1.0702   11.3690 C.ar      1 RES1    0.0000
     13 H4        -3.3707   -1.9947   11.5713 H         1 RES1    0.0000
     14 C5        -1.3571   -0.2082    6.8861 C.ar      1 RES1    0.0000
     15 C6        -1.5782   -0.8576    8.2185 C.3       1 RES1    0.0000
     16 H5        -2.4960   -1.1360    8.2581 H         1 RES1    0.0000
     17 C7         2.4803    0.6430    8.0388 C.3       1 RES1    0.0000
     18 H6         3.1427    0.7994    8.7165 H         1 RES1    0.0000
     19 C8        -2.4813   -0.2503   10.9875 C.ar      1 RES1    0.0000
     20 C9         0.3229   -0.3118   12.8509 C.3       1 RES1    0.0000
     21 C10       -5.0732    0.7455   11.1761 C.ar      1 RES1    0.0000
     22 H7        -5.9577    1.1112   11.2519 H         1 RES1    0.0000
     23 C11       -2.7494    1.0799   10.6996 C.ar      1 RES1    0.0000
     24 H8        -2.0459    1.6614   10.4024 H         1 RES1    0.0000
     25 C12        1.4324    1.7401    8.0247 C.3       1 RES1    0.0000
     26 H9         1.8287    2.5870    8.2407 H         1 RES1    0.0000
     27 H10        1.0684    1.7746    7.1370 H         1 RES1    0.0000
     28 C13       -1.8561    1.0540    6.6777 C.ar      1 RES1    0.0000
     29 H11       -2.3169    1.5103    7.3847 H         1 RES1    0.0000
     30 C14       -4.8217   -0.5642   11.4665 C.ar      1 RES1    0.0000
     31 H12       -5.5379   -1.1532   11.7168 H         1 RES1    0.0000
     32 C15       -0.9354   -0.2136   13.7006 C.3       1 RES1    0.0000
     33 H13       -1.5665   -0.8803   13.4202 H         1 RES1    0.0000
     34 H14       -1.3189    0.6591   13.5874 H         1 RES1    0.0000
     35 H15       -0.7162   -0.3485   14.6259 H         1 RES1    0.0000
     36 C16        0.9412   -1.7013   12.9550 C.3       1 RES1    0.0000
     37 H16        0.2886   -2.3485   12.6793 H         1 RES1    0.0000
     38 H17        1.2123   -1.8847   13.8568 H         1 RES1    0.0000
     39 H18        1.7044   -1.7477   12.3751 H         1 RES1    0.0000
     40 C17       -4.0321    1.5848   10.8015 C.ar      1 RES1    0.0000
     41 H19       -4.2161    2.5104   10.6284 H         1 RES1    0.0000
     42 C18        3.2308    0.4455    6.7372 C.3       1 RES1    0.0000
     43 H20        2.5870    0.2104    6.0659 H         1 RES1    0.0000
     44 C19       -1.6633    1.6916    5.4708 C.ar      1 RES1    0.0000
     45 H21       -1.9999    2.5805    5.3381 H         1 RES1    0.0000
     46 C20       -0.7025   -0.8544    5.8660 C.ar      1 RES1    0.0000
     47 H22       -0.3669   -1.7401    6.0246 H         1 RES1    0.0000
     48 C21        1.3268    0.7271   13.3152 C.3       1 RES1    0.0000
     49 H23        0.9256    1.5977   13.2637 H         1 RES1    0.0000
     50 H24        2.0929    0.6915   12.7380 H         1 RES1    0.0000
     51 H25        1.6007    0.5545   14.2197 H         1 RES1    0.0000
     52 C22        3.9176    1.7390    6.3281 C.3       1 RES1    0.0000
     53 H26        3.2699    2.4424    6.2354 H         1 RES1    0.0000
     54 H27        4.3697    1.6085    5.4923 H         1 RES1    0.0000
     55 H28        4.5565    1.9785    7.0045 H         1 RES1    0.0000
     56 C23       -0.9667    1.0648    4.4640 C.ar      1 RES1    0.0000
     57 H29       -0.8522    1.5308    3.6326 H         1 RES1    0.0000
     58 C24        4.2268   -0.6818    6.8456 C.3       1 RES1    0.0000
     59 H30        3.7797   -1.4931    7.1001 H         1 RES1    0.0000
     60 H31        4.8657   -0.4445    7.5215 H         1 RES1    0.0000
     61 H32        4.6798   -0.8145    6.0094 H         1 RES1    0.0000
     62 C25       -0.5019   -0.1931    4.6496 C.ar      1 RES1    0.0000
     63 H33       -0.0352   -0.6138    3.9237 H         1 RES1    0.0000
@<TRIPOS>BOND
     1    1    5 1
     2    2    9 1
     3    3    4 1
     4    4    5 1
     5    5    6 1
     6    6    8 1
     7    9    5 1
     8   10    3 1
     9   11   10 1
    10   12   13 1
    11   14   15 1
    12   15    2 1
    13   16   15 1
    14   17    6 1
    15   18   17 1
    16   19   10 1
    17   20    3 1
    18   21   22 1
    19   23   19 ar
    20   24   23 1
    21   25    1 1
    22   26   25 1
    23   27   25 1
    24   28   14 ar
    25   29   28 1
    26   30   12 ar
    27   31   30 1
    28   32   20 1
    29   33   32 1
    30   34   32 1
    31   35   32 1
    32   36   20 1
    33   37   36 1
    34   38   36 1
    35   39   36 1
    36   40   21 ar
    37   41   40 1
    38   42   17 1
    39   43   42 1
    40   44   28 ar
    41   45   44 1
    42   46   14 ar
    43   47   46 1
    44   48   20 1
    45   49   48 1
    46   50   48 1
    47   51   48 1
    48   52   42 1
    49   53   52 1
    50   54   52 1
    51   55   52 1
    52   56   44 ar
    53   57   56 1
    54   58   42 1
    55   59   58 1
    56   60   58 1
    57   61   58 1
    58   62   46 ar
    59   63   62 1
    60    9   10 1
    61    9   15 1
    62   12   19 ar
    63   17   25 1
    64   21   30 ar
    65   23   40 ar
    66   56   62 ar
@<TRIPOS>SUBSTRUCTURE
     1 RES1 1
     2 SUP2 7

@<TRIPOS>CRYSIN
   9.7843   10.7880   21.7260  90.0000  90.0000  90.0000  19 1

