# MOL2 file generated by ConQuest
# Please check atom types

@<TRIPOS>MOLECULE
UMOTUM
    21    22     1
SMALL
NO_CHARGES
****
Generated from CSD

@<TRIPOS>ATOM
      1 N1         4.1382    0.7153    3.7737 N.2       1 RES1    0.0000
      2 C1         3.6316    1.5201    4.6656 C.2       1 RES1    0.0000
      3 C2         4.0045    1.3827    6.1014 C.3       1 RES1    0.0000
      4 H1         3.2618    0.9747    6.5945 H         1 RES1    0.0000
      5 H2         4.1970    2.2677    6.4751 H         1 RES1    0.0000
      6 H3         4.7996    0.8151    6.1797 H         1 RES1    0.0000
      7 N2         2.7346    2.4988    4.3318 N.am      1 RES1    0.0000
      8 O1         2.1446    3.2129    5.3580 O.3       1 RES1    0.0000
      9 H4         2.6245    3.9721    5.4376 H         1 RES1    0.0000
     10 C3         2.2517    2.7423    3.0407 C.2       1 RES1    0.0000
     11 O2         1.4240    3.6046    2.8239 O.2       1 RES1    0.0000
     12 C4         2.8551    1.8615    2.0437 C.ar      1 RES1    0.0000
     13 C5         2.5064    2.0054    0.6932 C.ar      1 RES1    0.0000
     14 H5         1.8961    2.6837    0.4283 H         1 RES1    0.0000
     15 C6         3.0522    1.1590   -0.2486 C.ar      1 RES1    0.0000
     16 H6         2.8170    1.2527   -1.1645 H         1 RES1    0.0000
     17 C7         3.9527    0.1612    0.1447 C.ar      1 RES1    0.0000
     18 H7         4.3268   -0.4179   -0.5091 H         1 RES1    0.0000
     19 C8         4.3042    0.0094    1.4726 C.ar      1 RES1    0.0000
     20 H8         4.9141   -0.6723    1.7285 H         1 RES1    0.0000
     21 C9         3.7561    0.8664    2.4452 C.ar      1 RES1    0.0000
@<TRIPOS>BOND
     1    1    2 2
     2    2    3 1
     3    3    4 1
     4    5    3 1
     5    6    3 1
     6    7    2 1
     7    8    7 1
     8    9    8 1
     9   10    7 1
    10   11   10 2
    11   12   10 1
    12   13   12 ar
    13   14   13 1
    14   15   13 ar
    15   16   15 1
    16   17   15 ar
    17   18   17 1
    18   19   17 ar
    19   20   19 1
    20   21    1 1
    21   12   21 ar
    22   19   21 ar
@<TRIPOS>SUBSTRUCTURE
     1 RES1 1

@<TRIPOS>CRYSIN
   4.3271    9.3902    9.6743  90.0000  95.8370  90.0000   4 1

