# MOL2 file generated by ConQuest
# Please check atom types

@<TRIPOS>MOLECULE
UMUKOE
    38    40     1
SMALL
NO_CHARGES
****
Generated from CSD

@<TRIPOS>ATOM
      1 O1         2.0316    9.3703    1.0068 O.3       1 RES1    0.0000
      2 O2         1.2239   11.0670    2.2148 O.2       1 RES1    0.0000
      3 O3        -1.0920   12.2689    8.1931 O.3       1 RES1    0.0000
      4 O4        -0.7365   13.1289    5.8023 O.3       1 RES1    0.0000
      5 N1         2.2512    7.9535    1.1509 N.2       1 RES1    0.0000
      6 C1         0.3637    9.2425    6.6948 C.ar      1 RES1    0.0000
      7 H1         0.5946    8.3489    6.9208 H         1 RES1    0.0000
      8 C2        -0.1787   10.0706    7.6700 C.ar      1 RES1    0.0000
      9 H2        -0.3055    9.7484    8.5542 H         1 RES1    0.0000
     10 C3        -0.5344   11.3759    7.3425 C.ar      1 RES1    0.0000
     11 C4        -0.3227   11.8480    6.0206 C.ar      1 RES1    0.0000
     12 C5         0.2351   11.0283    5.0631 C.ar      1 RES1    0.0000
     13 H3         0.3893   11.3595    4.1863 H         1 RES1    0.0000
     14 C6         0.5780    9.6943    5.3871 C.ar      1 RES1    0.0000
     15 C7         1.0973    8.7293    4.4501 C.2       1 RES1    0.0000
     16 H4         1.2401    7.8738    4.8386 H         1 RES1    0.0000
     17 C8         1.5045    9.8908    2.1689 C.2       1 RES1    0.0000
     18 C9         1.4283    8.7778    3.1262 C.2       1 RES1    0.0000
     19 C10        1.9043    7.6384    2.3595 C.2       1 RES1    0.0000
     20 C11        2.0116    6.2318    2.8068 C.ar      1 RES1    0.0000
     21 C12        3.1820    5.5093    2.5767 C.ar      1 RES1    0.0000
     22 H5         3.9084    5.9133    2.1166 H         1 RES1    0.0000
     23 C13        3.2831    4.1950    3.0233 C.ar      1 RES1    0.0000
     24 H6         4.0799    3.7013    2.8660 H         1 RES1    0.0000
     25 C14        2.2246    3.6009    3.6975 C.ar      1 RES1    0.0000
     26 H7         2.3025    2.7071    4.0109 H         1 RES1    0.0000
     27 C15        1.0534    4.3108    3.9131 C.ar      1 RES1    0.0000
     28 H8         0.3275    3.8990    4.3679 H         1 RES1    0.0000
     29 C16        0.9370    5.6219    3.4659 C.ar      1 RES1    0.0000
     30 H9         0.1304    6.1030    3.6070 H         1 RES1    0.0000
     31 C17       -1.2565   11.8584    9.5606 C.3       1 RES1    0.0000
     32 H10       -1.8747   11.1000    9.6020 H         1 RES1    0.0000
     33 H11       -1.6182   12.6033   10.0842 H         1 RES1    0.0000
     34 H12       -0.3874   11.5931    9.9287 H         1 RES1    0.0000
     35 C18       -0.4123   13.7095    4.5467 C.3       1 RES1    0.0000
     36 H13        0.5615   13.7472    4.4462 H         1 RES1    0.0000
     37 H14       -0.7810   14.6156    4.5015 H         1 RES1    0.0000
     38 H15       -0.7947   13.1643    3.8272 H         1 RES1    0.0000
@<TRIPOS>BOND
     1    1    5 1
     2    2   17 2
     3    3   10 1
     4    4   11 1
     5    5   19 2
     6    6    7 1
     7    8    6 ar
     8    9    8 1
     9   10    8 ar
    10   11   10 ar
    11   12   11 ar
    12   13   12 1
    13   14    6 ar
    14   15   14 1
    15   16   15 1
    16   17    1 1
    17   18   15 2
    18   19   18 1
    19   20   19 1
    20   21   20 ar
    21   22   21 1
    22   23   21 ar
    23   24   23 1
    24   25   23 ar
    25   26   25 1
    26   27   25 ar
    27   28   27 1
    28   29   20 ar
    29   30   29 1
    30   31    3 1
    31   32   31 1
    32   33   31 1
    33   34   31 1
    34   35    4 1
    35   36   35 1
    36   37   35 1
    37   38   35 1
    38   12   14 ar
    39   17   18 1
    40   27   29 ar
@<TRIPOS>SUBSTRUCTURE
     1 RES1 1

@<TRIPOS>CRYSIN
   7.3390   19.9640   10.7710  90.0000 104.3060  90.0000  14 1

