# MOL2 file generated by ConQuest
# Please check atom types

@<TRIPOS>MOLECULE
UMUMEW
    22    23     1
SMALL
USER_CHARGES
****
Generated from CSD

@<TRIPOS>ATOM
      1 O1         8.3437    2.0001    6.5555 O.3       1 RES1    0.0000
      2 O2         5.9998    6.0967    3.1986 O.3       1 RES1    0.0000
      3 O3         8.7779    4.2186    6.7386 O.2       1 RES1   -1.0000
      4 O4         4.2814    3.0590    4.6050 O.2       1 RES1    0.0000
      5 O5         3.6360    1.0856    3.9367 O.2       1 RES1    0.0000
      6 O6         6.2270    3.9260    2.5819 O.2       1 RES1   -1.0000
      7 O7         5.9649    4.8415    7.5631 O.2       1 RES1    0.0000
      8 O8         6.8316    6.4977    8.6916 O.2       1 RES1    0.0000
      9 N1         8.0758    3.3579    6.2187 N.pl3     1 RES1    1.0000
     10 N2         7.4444    1.2141    5.8667 N.2       1 RES1    0.0000
     11 N3         6.3153    4.7333    3.4928 N.pl3     1 RES1    1.0000
     12 N4         6.1698    6.8199    4.3574 N.2       1 RES1    0.0000
     13 N5         5.7871    1.4392    4.2867 N.pl3     1 RES1    0.0000
     14 H1         5.8074    0.5728    4.2531 H         1 RES1    0.0000
     15 N6         4.4702    1.9023    4.2980 N.pl3     1 RES1    0.0000
     16 N7         6.9874    6.5074    6.4955 N.pl3     1 RES1    0.0000
     17 H2         7.0750    7.3554    6.5749 H         1 RES1    0.0000
     18 N8         6.5494    5.9059    7.6658 N.pl3     1 RES1    0.0000
     19 C1         6.7093    2.0236    5.1467 C.2       1 RES1    0.0000
     20 C2         7.0745    3.3881    5.3410 C.2       1 RES1    0.0000
     21 C3         6.6625    4.6556    4.7781 C.2       1 RES1    0.0000
     22 C4         6.5805    5.9862    5.2731 C.2       1 RES1    0.0000
@<TRIPOS>BOND
     1    1    9 1
     2    2   11 1
     3    3    9 1
     4    4   15 2
     5    5   15 2
     6    6   11 1
     7    7   18 2
     8    8   18 2
     9    9   20 2
    10   10    1 1
    11   11   21 2
    12   12    2 1
    13   13   14 1
    14   15   13 1
    15   16   17 1
    16   18   16 1
    17   19   10 2
    18   20   19 1
    19   21   20 1
    20   22   12 2
    21   13   19 1
    22   16   22 1
    23   21   22 1
@<TRIPOS>SUBSTRUCTURE
     1 RES1 1

@<TRIPOS>CRYSIN
  10.7252    8.3018   11.0809  90.0000 106.2030  90.0000 231 1

