# MOL2 file generated by ConQuest
# Please check atom types

@<TRIPOS>MOLECULE
UNOWOK
    30    31     1
SMALL
NO_CHARGES
****
Generated from CSD

@<TRIPOS>ATOM
      1 O1         1.4495    2.6207   11.6747 O.3       1 RES1    0.0000
      2 O2        -3.2278   -3.5301    6.2871 O.2       1 RES1    0.0000
      3 O3        -1.6187   -4.7113    7.0842 O.2       1 RES1    0.0000
      4 N1         1.2724    1.2248    9.1884 N.3       1 RES1    0.0000
      5 N2        -2.1127   -3.6389    6.7714 N.pl3     1 RES1    0.0000
      6 C1        -1.3224   -2.4150    6.9865 C.ar      1 RES1    0.0000
      7 C2        -1.8592   -1.2001    6.6426 C.ar      1 RES1    0.0000
      8 H1        -2.6998   -1.1489    6.2496 H         1 RES1    0.0000
      9 C3        -1.1282   -0.0528    6.8914 C.ar      1 RES1    0.0000
     10 H2        -1.4858    0.7767    6.6680 H         1 RES1    0.0000
     11 C4         0.1338   -0.1222    7.4717 C.ar      1 RES1    0.0000
     12 C5         0.6588   -1.3767    7.7747 C.ar      1 RES1    0.0000
     13 H3         1.5100   -1.4386    8.1444 H         1 RES1    0.0000
     14 C6        -0.0579   -2.5223    7.5385 C.ar      1 RES1    0.0000
     15 H4         0.2992   -3.3559    7.7457 H         1 RES1    0.0000
     16 C7         0.9437    1.1167    7.7659 C.3       1 RES1    0.0000
     17 H5         1.7641    1.0936    7.2485 H         1 RES1    0.0000
     18 H6         0.4406    1.9000    7.4938 H         1 RES1    0.0000
     19 C8         2.2672    2.2705    9.4206 C.3       1 RES1    0.0000
     20 H7         1.9196    3.1239    9.1170 H         1 RES1    0.0000
     21 H8         3.0707    2.0741    8.9133 H         1 RES1    0.0000
     22 C9         2.6005    2.3531   10.8854 C.3       1 RES1    0.0000
     23 H9         2.9956    1.5145   11.1717 H         1 RES1    0.0000
     24 H10        3.2550    3.0546   11.0250 H         1 RES1    0.0000
     25 C10        0.0950    1.5178    9.9932 C.3       1 RES1    0.0000
     26 H11       -0.5654    0.8179    9.8728 H         1 RES1    0.0000
     27 H12       -0.2974    2.3564    9.7041 H         1 RES1    0.0000
     28 C11        0.4739    1.6111   11.4489 C.3       1 RES1    0.0000
     29 H13       -0.3176    1.8083   11.9735 H         1 RES1    0.0000
     30 H14        0.8235    0.7560   11.7435 H         1 RES1    0.0000
@<TRIPOS>BOND
     1    1   22 1
     2    2    5 2
     3    3    5 2
     4    4   16 1
     5    5    6 1
     6    6    7 ar
     7    7    8 1
     8    9    7 ar
     9   10    9 1
    10   11    9 ar
    11   12   11 ar
    12   13   12 1
    13   14    6 ar
    14   15   14 1
    15   16   11 1
    16   17   16 1
    17   18   16 1
    18   19    4 1
    19   20   19 1
    20   21   19 1
    21   22   19 1
    22   23   22 1
    23   24   22 1
    24   25    4 1
    25   26   25 1
    26   27   25 1
    27   28    1 1
    28   29   28 1
    29   30   28 1
    30   12   14 ar
    31   25   28 1
@<TRIPOS>SUBSTRUCTURE
     1 RES1 1

@<TRIPOS>CRYSIN
   6.1371    8.2535   21.9867  90.0000  94.9290  90.0000  14 1

