# MOL2 file generated by ConQuest
# Please check atom types

@<TRIPOS>MOLECULE
UNOWEB
    37    40     1
SMALL
NO_CHARGES
****
Generated from CSD

@<TRIPOS>ATOM
      1 N1        -0.5520   -0.3620    1.9766 N.3       1 RES1    0.0000
      2 C1        -0.9651    1.5413    3.4622 C.ar      1 RES1    0.0000
      3 C2        -0.0460    0.5949    2.8342 C.2       1 RES1    0.0000
      4 C3         1.3160    0.4160    2.9031 C.2       1 RES1    0.0000
      5 C4        -0.6487    2.2255    4.6344 C.ar      1 RES1    0.0000
      6 H1         0.1747    2.0863    5.0444 H         1 RES1    0.0000
      7 C5         0.4386   -1.1640    1.5384 C.2       1 RES1    0.0000
      8 N2         1.8451    3.2042    2.1831 N.pl3     1 RES1    0.0000
      9 C6         1.6206   -0.7149    2.0923 C.2       1 RES1    0.0000
     10 C7         2.2940    1.2433    3.6282 C.ar      1 RES1    0.0000
     11 C8         2.5197    2.5815    3.3345 C.ar      1 RES1    0.0000
     12 O1         1.7445    2.5808    1.1524 O.2       1 RES1    0.0000
     13 C9        -3.1064    2.6254    3.4410 C.ar      1 RES1    0.0000
     14 H2        -3.9372    2.7662    3.0480 H         1 RES1    0.0000
     15 C10       -2.2217    1.7304    2.8676 C.ar      1 RES1    0.0000
     16 C11       -1.5525    3.1096    5.1903 C.ar      1 RES1    0.0000
     17 H3        -1.3340    3.5654    5.9703 H         1 RES1    0.0000
     18 C12        2.9984    0.7077    4.6999 C.ar      1 RES1    0.0000
     19 H4         2.8925   -0.1921    4.9118 H         1 RES1    0.0000
     20 C13       -2.7668    3.3161    4.5977 C.ar      1 RES1    0.0000
     21 H5        -3.3676    3.9201    4.9696 H         1 RES1    0.0000
     22 O2         1.4322    4.3400    2.3131 O.2       1 RES1    0.0000
     23 C14       -1.9763   -0.4451    1.6649 C.3       1 RES1    0.0000
     24 H6        -2.4327   -0.9696    2.3413 H         1 RES1    0.0000
     25 H7        -2.1015   -0.8797    0.8073 H         1 RES1    0.0000
     26 C15       -2.5514    0.9539    1.6227 C.3       1 RES1    0.0000
     27 H8        -2.1977    1.4218    0.8502 H         1 RES1    0.0000
     28 H9        -3.5145    0.9014    1.5240 H         1 RES1    0.0000
     29 C16        2.9272   -1.2316    1.8735 C.1       1 RES1    0.0000
     30 C17        3.8470    1.4816    5.4510 C.ar      1 RES1    0.0000
     31 H10        4.3099    1.1012    6.1617 H         1 RES1    0.0000
     32 C18        3.3551    3.3842    4.0835 C.ar      1 RES1    0.0000
     33 H11        3.4704    4.2825    3.8732 H         1 RES1    0.0000
     34 N3         3.9913   -1.6088    1.7114 N.1       1 RES1    0.0000
     35 C19        4.0182    2.8127    5.1610 C.ar      1 RES1    0.0000
     36 H12        4.5805    3.3331    5.6882 H         1 RES1    0.0000
     37 H13        0.2633   -1.8880    0.9479 H         1 RES1    0.0000
@<TRIPOS>BOND
     1    1    3 1
     2    2    3 1
     3    3    4 2
     4    4    9 1
     5    5    2 ar
     6    6    5 1
     7    7    1 1
     8    8   11 1
     9    9    7 2
    10   10    4 1
    11   11   10 ar
    12   12    8 2
    13   13   14 1
    14   15    2 ar
    15   16    5 ar
    16   17   16 1
    17   18   10 ar
    18   19   18 1
    19   20   13 ar
    20   21   20 1
    21   22    8 2
    22   23    1 1
    23   24   23 1
    24   25   23 1
    25   26   15 1
    26   27   26 1
    27   28   26 1
    28   29    9 1
    29   30   18 ar
    30   31   30 1
    31   32   11 ar
    32   33   32 1
    33   34   29 3
    34   35   30 ar
    35   36   35 1
    36   37    7 1
    37   13   15 ar
    38   16   20 ar
    39   23   26 1
    40   32   35 ar
@<TRIPOS>SUBSTRUCTURE
     1 RES1 1

@<TRIPOS>CRYSIN
  10.3269   15.4884    9.9808  90.0000  92.9980  90.0000  14 1

