# MOL2 file generated by ConQuest
# Please check atom types

@<TRIPOS>MOLECULE
UNUHIV
    35    36     1
SMALL
NO_CHARGES
****
Generated from CSD

@<TRIPOS>ATOM
      1 N1         2.6652   12.2273    9.9564 N.2       1 RES1    0.0000
      2 N2         2.2103   11.1732    9.1744 N.am      1 RES1    0.0000
      3 N3         0.1406    5.6572    6.5203 N.pl3     1 RES1    0.0000
      4 O1         2.4557   15.8152    8.2931 O.3       1 RES1    0.0000
      5 O2         1.7609    9.9181   11.0009 O.2       1 RES1    0.0000
      6 O3         0.3204    4.5483    6.9587 O.2       1 RES1    0.0000
      7 O4        -0.3704    5.8732    5.4348 O.2       1 RES1    0.0000
      8 C1         3.1182   15.7859    9.4916 C.ar      1 RES1    0.0000
      9 C2         3.2739   14.5295   10.0585 C.ar      1 RES1    0.0000
     10 C3         3.9201   14.4334   11.2825 C.ar      1 RES1    0.0000
     11 H1         4.0251   13.5998   11.6817 H         1 RES1    0.0000
     12 C4         4.4087   15.5616   11.9187 C.ar      1 RES1    0.0000
     13 H2         4.8396   15.4880   12.7390 H         1 RES1    0.0000
     14 C5         4.2511   16.7884   11.3299 C.ar      1 RES1    0.0000
     15 H3         4.5897   17.5440   11.7537 H         1 RES1    0.0000
     16 C6         3.6057   16.9254   10.1278 C.ar      1 RES1    0.0000
     17 H4         3.4943   17.7649    9.7441 H         1 RES1    0.0000
     18 C7         2.1706   17.0580    7.7125 C.3       1 RES1    0.0000
     19 H5         1.7100   17.6103    8.3487 H         1 RES1    0.0000
     20 H6         1.6154   16.9313    6.9396 H         1 RES1    0.0000
     21 H7         2.9900   17.4851    7.4518 H         1 RES1    0.0000
     22 C8         2.7862   13.3462    9.3576 C.2       1 RES1    0.0000
     23 H8         2.5578   13.4098    8.4580 H         1 RES1    0.0000
     24 C9         1.7740   10.0597    9.7823 C.2       1 RES1    0.0000
     25 C10        1.3200    8.9486    8.8855 C.ar      1 RES1    0.0000
     26 C11        1.4503    7.6478    9.3613 C.ar      1 RES1    0.0000
     27 H9         1.7977    7.5054   10.2116 H         1 RES1    0.0000
     28 C12        1.0728    6.5706    8.5966 C.ar      1 RES1    0.0000
     29 H10        1.1779    5.7012    8.9092 H         1 RES1    0.0000
     30 C13        0.5362    6.8149    7.3543 C.ar      1 RES1    0.0000
     31 C14        0.3597    8.0748    6.8630 C.ar      1 RES1    0.0000
     32 H11       -0.0196    8.2079    6.0245 H         1 RES1    0.0000
     33 C15        0.7558    9.1546    7.6377 C.ar      1 RES1    0.0000
     34 H12        0.6416   10.0209    7.3178 H         1 RES1    0.0000
     35 H13        2.1777   11.3199    8.2867 H         1 RES1    0.0000
@<TRIPOS>BOND
     1    1    2 1
     2    2   24 1
     3    3    6 2
     4    4    8 1
     5    5   24 2
     6    7    3 2
     7    8    9 ar
     8    9   10 ar
     9   10   11 1
    10   12   10 ar
    11   13   12 1
    12   14   12 ar
    13   15   14 1
    14   16    8 ar
    15   17   16 1
    16   18    4 1
    17   19   18 1
    18   20   18 1
    19   21   18 1
    20   22    1 2
    21   23   22 1
    22   24   25 1
    23   25   26 ar
    24   26   27 1
    25   28   26 ar
    26   29   28 1
    27   30    3 1
    28   31   30 ar
    29   32   31 1
    30   33   25 ar
    31   34   33 1
    32   35    2 1
    33    9   22 1
    34   14   16 ar
    35   28   30 ar
    36   31   33 ar
@<TRIPOS>SUBSTRUCTURE
     1 RES1 1

@<TRIPOS>CRYSIN
  10.7370   14.7280    9.1320  90.0000  93.5720  90.0000  14 1

