# MOL2 file generated by ConQuest
# Please check atom types

@<TRIPOS>MOLECULE
UPAGEY
    44    48     1
SMALL
NO_CHARGES
****
Generated from CSD

@<TRIPOS>ATOM
      1 C1         0.8637    1.3110   10.2417 C.ar      1 RES1    0.0000
      2 C2         0.4178    0.1926    9.5475 C.ar      1 RES1    0.0000
      3 H1         0.1696    0.2685    8.6550 H         1 RES1    0.0000
      4 C3         0.3445   -1.0201   10.1787 C.ar      1 RES1    0.0000
      5 H2         0.0558   -1.7690    9.7088 H         1 RES1    0.0000
      6 C4         0.6941   -1.1352   11.4966 C.ar      1 RES1    0.0000
      7 H3         0.6403   -1.9583   11.9256 H         1 RES1    0.0000
      8 C5         1.1253   -0.0245   12.1809 C.ar      1 RES1    0.0000
      9 H4         1.3486   -0.1063   13.0798 H         1 RES1    0.0000
     10 C6         1.2369    1.2191   11.5657 C.ar      1 RES1    0.0000
     11 C7         1.6702    2.4329   12.3162 C.3       1 RES1    0.0000
     12 H5         1.2289    2.4602   13.1914 H         1 RES1    0.0000
     13 C8         1.4345    3.7549   11.5696 C.3       1 RES1    0.0000
     14 C9         1.7153    3.5066   10.0912 C.3       1 RES1    0.0000
     15 H6         1.5872    4.3316    9.5972 H         1 RES1    0.0000
     16 H7         2.6387    3.2319    9.9816 H         1 RES1    0.0000
     17 C10        2.4887    4.7087   12.2445 C.3       1 RES1    0.0000
     18 H8         2.0058    5.3821   12.7674 H         1 RES1    0.0000
     19 C11        3.7104    1.6392   13.4396 C.3       1 RES1    0.0000
     20 H9         4.6295    1.8753   13.5844 H         1 RES1    0.0000
     21 H10        3.6607    0.7418   13.1009 H         1 RES1    0.0000
     22 H11        3.2306    1.6950   14.2688 H         1 RES1    0.0000
     23 C12        3.4537    5.4283   11.3062 C.ar      1 RES1    0.0000
     24 C13        4.7525    5.0055   11.2190 C.ar      1 RES1    0.0000
     25 H12        5.0265    4.2707   11.7185 H         1 RES1    0.0000
     26 C14        5.6811    5.6619   10.3885 C.ar      1 RES1    0.0000
     27 H13        6.5613    5.3627   10.3510 H         1 RES1    0.0000
     28 C15        5.3053    6.7100    9.6550 C.ar      1 RES1    0.0000
     29 H14        5.9240    7.1239    9.0976 H         1 RES1    0.0000
     30 C16        3.9808    7.2029    9.7113 C.ar      1 RES1    0.0000
     31 C17        3.0396    6.5606   10.5658 C.ar      1 RES1    0.0000
     32 C18        1.7401    7.1157   10.6450 C.ar      1 RES1    0.0000
     33 H15        1.1127    6.7283   11.2115 H         1 RES1    0.0000
     34 C19        1.3939    8.1977    9.9146 C.ar      1 RES1    0.0000
     35 H16        0.5397    8.5569   10.0002 H         1 RES1    0.0000
     36 C20        2.3096    8.7866    9.0269 C.ar      1 RES1    0.0000
     37 H17        2.0491    9.5050    8.4975 H         1 RES1    0.0000
     38 C21        3.5726    8.3063    8.9434 C.ar      1 RES1    0.0000
     39 H18        4.1806    8.7126    8.3686 H         1 RES1    0.0000
     40 C22        0.0557    4.2295   11.7499 C.1       1 RES1    0.0000
     41 N1         3.1271    2.5454   12.4850 N.3       1 RES1    0.0000
     42 N2        -1.0150    4.5961   11.8750 N.1       1 RES1    0.0000
     43 O1         0.8630    2.5057    9.5622 O.3       1 RES1    0.0000
     44 O2         3.1717    3.8557   13.1378 O.3       1 RES1    0.0000
@<TRIPOS>BOND
     1    1    2 ar
     2    2    3 1
     3    4    2 ar
     4    5    4 1
     5    6    4 ar
     6    7    6 1
     7    8    6 ar
     8    9    8 1
     9   10    1 ar
    10   11   10 1
    11   12   11 1
    12   13   11 1
    13   14   13 1
    14   15   14 1
    15   16   14 1
    16   17   13 1
    17   18   17 1
    18   19   20 1
    19   21   19 1
    20   22   19 1
    21   23   17 1
    22   24   23 ar
    23   25   24 1
    24   26   24 ar
    25   27   26 1
    26   28   26 ar
    27   29   28 1
    28   30   28 ar
    29   31   23 ar
    30   32   31 ar
    31   33   32 1
    32   34   32 ar
    33   35   34 1
    34   36   34 ar
    35   37   36 1
    36   38   30 ar
    37   39   38 1
    38   40   13 1
    39   41   11 1
    40   42   40 3
    41   43    1 1
    42   44   17 1
    43    8   10 ar
    44   14   43 1
    45   19   41 1
    46   30   31 ar
    47   36   38 ar
    48   41   44 1
@<TRIPOS>SUBSTRUCTURE
     1 RES1 1

@<TRIPOS>CRYSIN
  10.6220   12.9690   12.4230  90.0000  93.6400  90.0000  14 1

