# MOL2 file generated by ConQuest
# Please check atom types

@<TRIPOS>MOLECULE
UPAJIF
    19    20     1
SMALL
NO_CHARGES
****
Generated from CSD

@<TRIPOS>ATOM
      1 C1         1.0487   11.6332    1.7156 C.ar      1 RES1    0.0000
      2 C2         1.0757   10.2196    1.7314 C.ar      1 RES1    0.0000
      3 N1         2.2028   12.3371    1.8679 N.ar      1 RES1    0.0000
      4 C3        -0.2085   12.2423    1.4822 C.ar      1 RES1    0.0000
      5 N2         2.3388    9.5307    2.0133 N.pl3     1 RES1    0.0000
      6 C4        -1.3514   11.4340    1.2735 C.ar      1 RES1    0.0000
      7 H1        -2.1799   11.8351    1.1438 H         1 RES1    0.0000
      8 C5        -0.0213    9.4499    1.4887 C.ar      1 RES1    0.0000
      9 H2         0.0454    8.5226    1.4749 H         1 RES1    0.0000
     10 C6        -0.2406   13.6563    1.4472 C.ar      1 RES1    0.0000
     11 H3        -1.0431   14.1047    1.3064 H         1 RES1    0.0000
     12 C7         2.1075   13.6476    1.8143 C.ar      1 RES1    0.0000
     13 H4         2.8888   14.1414    1.9119 H         1 RES1    0.0000
     14 C8        -1.2544   10.0797    1.2597 C.ar      1 RES1    0.0000
     15 H5        -2.0123    9.5656    1.0978 H         1 RES1    0.0000
     16 O1         2.9163    9.7827    3.0490 O.2       1 RES1    0.0000
     17 C9         0.9117   14.3520    1.6203 C.ar      1 RES1    0.0000
     18 H6         0.9078   15.2812    1.6111 H         1 RES1    0.0000
     19 O2         2.7337    8.7155    1.1963 O.2       1 RES1    0.0000
@<TRIPOS>BOND
     1    1    2 ar
     2    2    5 1
     3    3    1 ar
     4    4    1 ar
     5    5   16 2
     6    6    4 ar
     7    7    6 1
     8    8    2 ar
     9    9    8 1
    10   10    4 ar
    11   11   10 1
    12   12    3 ar
    13   13   12 1
    14   14    6 ar
    15   15   14 1
    16   17   10 ar
    17   18   17 1
    18   19    5 2
    19    8   14 ar
    20   12   17 ar
@<TRIPOS>SUBSTRUCTURE
     1 RES1 1

@<TRIPOS>CRYSIN
   7.2421   16.6880    7.2089  90.0000 114.0860  90.0000  14 1

