# MOL2 file generated by ConQuest
# Please check atom types

@<TRIPOS>MOLECULE
UPAJOL
    54    56     1
SMALL
NO_CHARGES
****
Generated from CSD

@<TRIPOS>ATOM
      1 C1        -3.2737   -0.5912   10.7998 C.ar      1 RES1    0.0000
      2 C2        -3.0074   -0.5454   12.1793 C.ar      1 RES1    0.0000
      3 C3        -3.6204   -1.4573   13.0247 C.ar      1 RES1    0.0000
      4 H1        -3.4541   -1.3979   13.9383 H         1 RES1    0.0000
      5 C4        -4.4656   -2.4469   12.5730 C.ar      1 RES1    0.0000
      6 C5        -4.6289   -2.5492   11.2155 C.ar      1 RES1    0.0000
      7 H2        -5.1539   -3.2410   10.8828 H         1 RES1    0.0000
      8 C6        -4.0447   -1.6658   10.3142 C.ar      1 RES1    0.0000
      9 C7        -4.2315   -1.9495    8.8390 C.3       1 RES1    0.0000
     10 H3        -4.7901   -2.7222    8.7298 H         1 RES1    0.0000
     11 H4        -3.3763   -2.1143    8.4343 H         1 RES1    0.0000
     12 H5        -4.6439   -1.1932    8.4168 H         1 RES1    0.0000
     13 C8        -2.0126    0.4124   12.8015 C.3       1 RES1    0.0000
     14 H6        -1.6578    0.9906   12.1230 H         1 RES1    0.0000
     15 H7        -1.2983   -0.0860   13.2046 H         1 RES1    0.0000
     16 H8        -2.4532    0.9395   13.4724 H         1 RES1    0.0000
     17 C9        -5.1418   -3.3945   13.5336 C.3       1 RES1    0.0000
     18 H9        -4.9128   -3.1550   14.4347 H         1 RES1    0.0000
     19 H10       -4.8485   -4.2920   13.3560 H         1 RES1    0.0000
     20 H11       -6.0933   -3.3413   13.4200 H         1 RES1    0.0000
     21 C10       -1.3653    0.0778    9.2882 C.3       1 RES1    0.0000
     22 H12       -1.0462    0.7706    8.7036 H         1 RES1    0.0000
     23 H13       -1.4529   -0.7409    8.7953 H         1 RES1    0.0000
     24 H14       -0.7401   -0.0461   10.0064 H         1 RES1    0.0000
     25 C11       -2.7288    0.4788    9.8609 C.3       1 RES1    0.0000
     26 C12       -2.7217    1.9314   10.4130 C.3       1 RES1    0.0000
     27 H15       -3.2822    2.0498   11.1957 H         1 RES1    0.0000
     28 H16       -1.8298    2.2790   10.5727 H         1 RES1    0.0000
     29 C13       -3.3585    2.4564    9.1214 C.3       1 RES1    0.0000
     30 H17       -2.6688    2.8081    8.5202 H         1 RES1    0.0000
     31 C14       -3.6998    0.9968    8.7508 C.3       1 RES1    0.0000
     32 H18       -3.4289    0.7512    7.8520 H         1 RES1    0.0000
     33 H19       -4.6288    0.7634    8.9074 H         1 RES1    0.0000
     34 C15       -4.4976    3.4273    9.2333 C.2       1 RES1    0.0000
     35 C16       -5.3329    3.5001   10.4743 C.3       1 RES1    0.0000
     36 H20       -4.7728    3.7435   11.2278 H         1 RES1    0.0000
     37 H21       -6.0115    4.1856   10.3689 H         1 RES1    0.0000
     38 C17       -7.0878    1.9618    9.8412 C.3       1 RES1    0.0000
     39 H22       -6.7948    2.0334    8.9190 H         1 RES1    0.0000
     40 H23       -7.7877    2.6157    9.9904 H         1 RES1    0.0000
     41 C18       -7.6144    0.5813   10.1045 C.3       1 RES1    0.0000
     42 H24       -8.3577    0.4032    9.5086 H         1 RES1    0.0000
     43 H25       -6.9182   -0.0675    9.9176 H         1 RES1    0.0000
     44 C19       -6.9588    0.6898   12.3128 C.3       1 RES1    0.0000
     45 H26       -6.2538    0.0430   12.1492 H         1 RES1    0.0000
     46 H27       -7.2530    0.5874   13.2308 H         1 RES1    0.0000
     47 C20       -6.4243    2.0693   12.1122 C.3       1 RES1    0.0000
     48 H28       -7.1162    2.7201   12.3021 H         1 RES1    0.0000
     49 H29       -5.6845    2.2258   12.7198 H         1 RES1    0.0000
     50 N1        -4.8676    4.2209    8.3120 N.2       1 RES1    0.0000
     51 N2        -5.9726    2.2172   10.7365 N.3       1 RES1    0.0000
     52 O1        -4.0752    4.1352    7.1568 O.3       1 RES1    0.0000
     53 H30       -4.3532    4.6645    6.5957 H         1 RES1    0.0000
     54 O2        -8.0410    0.4360   11.4403 O.3       1 RES1    0.0000
@<TRIPOS>BOND
     1    1    2 ar
     2    2    3 ar
     3    3    4 1
     4    5    3 ar
     5    6    5 ar
     6    7    6 1
     7    8    1 ar
     8    9    8 1
     9   10    9 1
    10   11    9 1
    11   12    9 1
    12   13    2 1
    13   14   13 1
    14   15   13 1
    15   16   13 1
    16   17    5 1
    17   18   17 1
    18   19   17 1
    19   20   17 1
    20   21   22 1
    21   23   21 1
    22   24   21 1
    23   25    1 1
    24   26   25 1
    25   27   26 1
    26   28   26 1
    27   29   26 1
    28   30   29 1
    29   31   25 1
    30   32   31 1
    31   33   31 1
    32   34   29 1
    33   35   34 1
    34   36   35 1
    35   37   35 1
    36   38   39 1
    37   40   38 1
    38   41   38 1
    39   42   41 1
    40   43   41 1
    41   44   45 1
    42   46   44 1
    43   47   44 1
    44   48   47 1
    45   49   47 1
    46   50   34 2
    47   51   35 1
    48   52   50 1
    49   53   52 1
    50   54   41 1
    51    6    8 ar
    52   21   25 1
    53   29   31 1
    54   38   51 1
    55   44   54 1
    56   47   51 1
@<TRIPOS>SUBSTRUCTURE
     1 RES1 1

@<TRIPOS>CRYSIN
  13.0273   10.2337   18.1262  90.0000 126.5740  90.0000  14 1

