# MOL2 file generated by ConQuest
# Please check atom types

@<TRIPOS>MOLECULE
UPETEQ
    65    70     1
SMALL
NO_CHARGES
****
Generated from CSD

@<TRIPOS>ATOM
      1 C1         3.0155    0.7107   75.5415 C.3       1 RES1    0.0000
      2 H1         2.7355   -0.2499   75.5574 H         1 RES1    0.0000
      3 C2         3.9718    1.1049   76.6777 C.3       1 RES1    0.0000
      4 H2         4.6926    0.4155   76.7493 H         1 RES1    0.0000
      5 C3         5.8204    2.6966   76.3686 C.2       1 RES1    0.0000
      6 C4         6.4926    3.6720   75.4382 C.3       1 RES1    0.0000
      7 C5         6.7415    5.0508   75.8990 C.3       1 RES1    0.0000
      8 H3         6.4557    5.2535   76.8367 H         1 RES1    0.0000
      9 C6         7.8849    5.8467   75.3905 C.ar      1 RES1    0.0000
     10 C7         7.8726    6.3862   74.1072 C.ar      1 RES1    0.0000
     11 H4         7.1054    6.2751   73.5630 H         1 RES1    0.0000
     12 C8         8.9674    7.0830   73.6194 C.ar      1 RES1    0.0000
     13 H5         8.9679    7.4319   72.7366 H         1 RES1    0.0000
     14 C9        10.0589    7.2579   74.4521 C.ar      1 RES1    0.0000
     15 C10       10.0947    6.7480   75.7346 C.ar      1 RES1    0.0000
     16 H6        10.8555    6.8850   76.2884 H         1 RES1    0.0000
     17 C11        9.0064    6.0364   76.2034 C.ar      1 RES1    0.0000
     18 H7         9.0213    5.6736   77.0830 H         1 RES1    0.0000
     19 C12        3.3435    1.3085   78.0444 C.3       1 RES1    0.0000
     20 H8         2.6206    1.9665   77.9729 H         1 RES1    0.0000
     21 H9         4.0231    1.6324   78.6722 H         1 RES1    0.0000
     22 H10        2.9813    0.4571   78.3702 H         1 RES1    0.0000
     23 C13        7.3816    2.9927   74.4346 C.3       1 RES1    0.0000
     24 H11        8.0484    2.4486   74.9058 H         1 RES1    0.0000
     25 H12        7.8368    3.6701   73.8887 H         1 RES1    0.0000
     26 H13        6.8404    2.4181   73.8570 H         1 RES1    0.0000
     27 C14        3.9141    2.4634   74.7572 C.3       1 RES1    0.0000
     28 H14        4.4399    3.0131   74.1112 H         1 RES1    0.0000
     29 C15        2.4572    2.9178   74.9153 C.3       1 RES1    0.0000
     30 H15        2.0580    3.0686   74.0079 H         1 RES1    0.0000
     31 C16        0.6021    1.3372   75.2888 C.2       1 RES1    0.0000
     32 C17        0.1095    0.0139   75.8410 C.3       1 RES1    0.0000
     33 C18       -0.2479   -0.0037   77.2769 C.3       1 RES1    0.0000
     34 H16       -0.1581    0.8662   77.7584 H         1 RES1    0.0000
     35 C19       -1.2572   -0.9541   77.8243 C.ar      1 RES1    0.0000
     36 C20       -0.8527   -2.1932   78.3074 C.ar      1 RES1    0.0000
     37 H17        0.0705   -2.4171   78.3146 H         1 RES1    0.0000
     38 C21       -1.7786   -3.1029   78.7786 C.ar      1 RES1    0.0000
     39 H18       -1.5040   -3.9505   79.1092 H         1 RES1    0.0000
     40 C22       -3.1084   -2.7503   78.7588 C.ar      1 RES1    0.0000
     41 C23       -3.5407   -1.5075   78.3353 C.ar      1 RES1    0.0000
     42 H19       -4.4623   -1.2789   78.3623 H         1 RES1    0.0000
     43 C24       -2.6030   -0.6034   77.8680 C.ar      1 RES1    0.0000
     44 H20       -2.8792    0.2582   77.5756 H         1 RES1    0.0000
     45 C25        2.2210    4.1393   75.7743 C.3       1 RES1    0.0000
     46 H21        2.5923    3.9866   76.6698 H         1 RES1    0.0000
     47 H22        1.2582    4.3077   75.8434 H         1 RES1    0.0000
     48 H23        2.6591    4.9148   75.3667 H         1 RES1    0.0000
     49 C26       -0.5540   -0.8875   74.8391 C.3       1 RES1    0.0000
     50 H24       -1.3694   -0.4599   74.5006 H         1 RES1    0.0000
     51 H25       -0.7838   -1.7388   75.2634 H         1 RES1    0.0000
     52 H26        0.0593   -1.0522   74.0953 H         1 RES1    0.0000
     53 N1         4.5437    2.3424   76.0786 N.am      1 RES1    0.0000
     54 N2        11.1942    8.0584   73.9793 N.pl3     1 RES1    0.0000
     55 N3         1.8978    1.6631   75.4954 N.am      1 RES1    0.0000
     56 N4        -4.1033   -3.7423   79.1735 N.pl3     1 RES1    0.0000
     57 O1         6.4320    2.2237   77.3229 O.2       1 RES1    0.0000
     58 O2         5.6760    4.7681   74.9662 O.3       1 RES1    0.0000
     59 O3        11.2684    8.3092   72.7819 O.2       1 RES1    0.0000
     60 O4        11.9957    8.4665   74.8152 O.2       1 RES1    0.0000
     61 O5         3.7683    1.0901   74.3695 O.3       1 RES1    0.0000
     62 O6        -0.1885    2.0933   74.7334 O.2       1 RES1    0.0000
     63 O7         0.9779   -0.6015   76.8216 O.3       1 RES1    0.0000
     64 O8        -3.7046   -4.7995   79.6638 O.2       1 RES1    0.0000
     65 O9        -5.2887   -3.4869   78.9805 O.2       1 RES1    0.0000
@<TRIPOS>BOND
     1    1    2 1
     2    3    1 1
     3    4    3 1
     4    5    6 1
     5    6    7 1
     6    7    8 1
     7    9    7 1
     8   10    9 ar
     9   11   10 1
    10   12   10 ar
    11   13   12 1
    12   14   12 ar
    13   15   14 ar
    14   16   15 1
    15   17    9 ar
    16   18   17 1
    17   19    3 1
    18   20   19 1
    19   21   19 1
    20   22   19 1
    21   23    6 1
    22   24   23 1
    23   25   23 1
    24   26   23 1
    25   27   28 1
    26   29   27 1
    27   30   29 1
    28   31   32 1
    29   32   33 1
    30   33   34 1
    31   35   33 1
    32   36   35 ar
    33   37   36 1
    34   38   36 ar
    35   39   38 1
    36   40   38 ar
    37   41   40 ar
    38   42   41 1
    39   43   35 ar
    40   44   43 1
    41   45   29 1
    42   46   45 1
    43   47   45 1
    44   48   45 1
    45   49   32 1
    46   50   49 1
    47   51   49 1
    48   52   49 1
    49   53    3 1
    50   54   14 1
    51   55    1 1
    52   56   40 1
    53   57    5 2
    54   58    6 1
    55   59   54 2
    56   60   54 2
    57   61    1 1
    58   62   31 2
    59   63   32 1
    60   64   56 2
    61   65   56 2
    62    5   53 1
    63    7   58 1
    64   15   17 ar
    65   27   53 1
    66   27   61 1
    67   29   55 1
    68   31   55 1
    69   33   63 1
    70   41   43 ar
@<TRIPOS>SUBSTRUCTURE
     1 RES1 1

@<TRIPOS>CRYSIN
  10.6856   10.6856   79.4588  90.0000  90.0000 120.0000 179 1

