# MOL2 file generated by ConQuest
# Please check atom types

@<TRIPOS>MOLECULE
UPETAM
    38    40     1
SMALL
NO_CHARGES
****
Generated from CSD

@<TRIPOS>ATOM
      1 O1         1.9473    7.5097    6.5818 O.3       1 RES1    0.0000
      2 N1         2.0842    8.4453    5.5006 N.2       1 RES1    0.0000
      3 N2         2.5105    6.3425    4.7852 N.2       1 RES1    0.0000
      4 N3         2.1691    5.2448    6.8600 N.pl3     1 RES1    0.0000
      5 H1         2.3333    4.4529    6.5123 H         1 RES1    0.0000
      6 C1         2.2209    6.2992    6.0688 C.2       1 RES1    0.0000
      7 C2         2.4110    7.6733    4.4991 C.2       1 RES1    0.0000
      8 C3         1.8529    5.3210    8.2800 C.3       1 RES1    0.0000
      9 H2         1.0983    5.9653    8.4008 H         1 RES1    0.0000
     10 C4         1.3984    3.9597    8.7619 C.3       1 RES1    0.0000
     11 H3         2.1230    3.2989    8.6240 H         1 RES1    0.0000
     12 H4         0.6114    3.6680    8.2348 H         1 RES1    0.0000
     13 C5         1.0344    4.0124   10.2349 C.3       1 RES1    0.0000
     14 H5         0.7878    3.1045   10.5439 H         1 RES1    0.0000
     15 H6         0.2467    4.5993   10.3550 H         1 RES1    0.0000
     16 C6         2.1837    4.5337   11.0807 C.3       1 RES1    0.0000
     17 H7         2.9270    3.8800   11.0646 H         1 RES1    0.0000
     18 H8         1.8828    4.6321   12.0175 H         1 RES1    0.0000
     19 C7         2.6819    5.8762   10.5679 C.3       1 RES1    0.0000
     20 H9         1.9807    6.5616   10.7070 H         1 RES1    0.0000
     21 H10        3.4818    6.1480   11.0847 H         1 RES1    0.0000
     22 C8         3.0337    5.8106    9.0949 C.3       1 RES1    0.0000
     23 H11        3.3022    6.7092    8.7785 H         1 RES1    0.0000
     24 H12        3.8005    5.1979    8.9673 H         1 RES1    0.0000
     25 C9         2.6811    8.2040    3.1677 C.ar      1 RES1    0.0000
     26 C10        3.2505    7.3922    2.2041 C.ar      1 RES1    0.0000
     27 H13        3.4527    6.4866    2.4092 H         1 RES1    0.0000
     28 C11        3.5279    7.8842    0.9457 C.ar      1 RES1    0.0000
     29 H14        3.9202    7.3113    0.2976 H         1 RES1    0.0000
     30 C12        3.2440    9.2033    0.6077 C.ar      1 RES1    0.0000
     31 C13        2.6851   10.0128    1.5880 C.ar      1 RES1    0.0000
     32 H15        2.4902   10.9207    1.3877 H         1 RES1    0.0000
     33 C14        2.4077    9.5290    2.8436 C.ar      1 RES1    0.0000
     34 H16        2.0260   10.1030    3.4965 H         1 RES1    0.0000
     35 C15        3.5222    9.7363   -0.7620 C.3       1 RES1    0.0000
     36 H17        2.7984    9.4727   -1.3677 H         1 RES1    0.0000
     37 H18        4.3706    9.3697   -1.0873 H         1 RES1    0.0000
     38 H19        3.5805   10.7134   -0.7268 H         1 RES1    0.0000
@<TRIPOS>BOND
     1    1    2 1
     2    2    7 2
     3    3    6 2
     4    4    5 1
     5    6    1 1
     6    7    3 1
     7    8    4 1
     8    9    8 1
     9   10    8 1
    10   11   10 1
    11   12   10 1
    12   13   10 1
    13   14   13 1
    14   15   13 1
    15   16   13 1
    16   17   16 1
    17   18   16 1
    18   19   16 1
    19   20   19 1
    20   21   19 1
    21   22    8 1
    22   23   22 1
    23   24   22 1
    24   25    7 1
    25   26   25 ar
    26   27   26 1
    27   28   26 ar
    28   29   28 1
    29   30   28 ar
    30   31   30 ar
    31   32   31 1
    32   33   25 ar
    33   34   33 1
    34   35   30 1
    35   36   35 1
    36   37   35 1
    37   38   35 1
    38    4    6 1
    39   19   22 1
    40   31   33 ar
@<TRIPOS>SUBSTRUCTURE
     1 RES1 1

@<TRIPOS>CRYSIN
   8.0878   11.7150   28.6130  90.0000  90.0000  90.0000  61 1

