# MOL2 file generated by ConQuest
# Please check atom types

@<TRIPOS>MOLECULE
UPICED
    71    74     1
SMALL
NO_CHARGES
****
Generated from CSD

@<TRIPOS>ATOM
      1 O1         5.3165    6.2149    3.8207 O.3       1 RES1    0.0000
      2 O2         9.7017    4.6094   -0.3323 O.2       1 RES1    0.0000
      3 O3         9.4562    2.7377    0.7411 O.2       1 RES1    0.0000
      4 O4         6.0052    3.6507    4.1985 O.3       1 RES1    0.0000
      5 O5         7.2787    4.6952    5.7376 O.2       1 RES1    0.0000
      6 O6         1.3881    8.4783    1.6567 O.3       1 RES1    0.0000
      7 O7         2.8751   10.1637    1.4412 O.2       1 RES1    0.0000
      8 N1         3.3038    7.3854    3.4875 N.3       1 RES1    0.0000
      9 N2         9.1802    3.9238    0.5466 N.pl3     1 RES1    0.0000
     10 C1         4.7331    7.5683    3.6429 C.3       1 RES1    0.0000
     11 C2         5.3560    8.2992    2.4950 C.2       1 RES1    0.0000
     12 H1         5.0387    9.1727    2.2980 H         1 RES1    0.0000
     13 C3         6.3296    7.7997    1.7312 C.2       1 RES1    0.0000
     14 H2         6.6983    8.3298    1.0351 H         1 RES1    0.0000
     15 C4         6.8320    6.4545    1.9535 C.ar      1 RES1    0.0000
     16 C5         7.7970    5.8588    1.1427 C.ar      1 RES1    0.0000
     17 H3         8.1911    6.3425    0.4266 H         1 RES1    0.0000
     18 C6         8.1722    4.5485    1.3992 C.ar      1 RES1    0.0000
     19 C7         7.6089    3.7952    2.4221 C.ar      1 RES1    0.0000
     20 H4         7.8779    2.8965    2.5734 H         1 RES1    0.0000
     21 C8         6.6491    4.3916    3.2098 C.ar      1 RES1    0.0000
     22 C9         6.2545    5.7181    2.9980 C.ar      1 RES1    0.0000
     23 C10        4.8549    8.2783    5.0390 C.3       1 RES1    0.0000
     24 C11        3.6197    7.7488    5.7308 C.ar      1 RES1    0.0000
     25 C12        3.2677    7.7582    7.0666 C.ar      1 RES1    0.0000
     26 H5         3.8666    8.0989    7.7202 H         1 RES1    0.0000
     27 C13        2.0151    7.2580    7.4438 C.ar      1 RES1    0.0000
     28 H6         1.7633    7.2509    8.3593 H         1 RES1    0.0000
     29 C14        1.1414    6.7735    6.4823 C.ar      1 RES1    0.0000
     30 H7         0.2952    6.4345    6.7513 H         1 RES1    0.0000
     31 C15        1.4803    6.7733    5.1242 C.ar      1 RES1    0.0000
     32 H8         0.8737    6.4514    4.4686 H         1 RES1    0.0000
     33 C16        2.7333    7.2594    4.7661 C.ar      1 RES1    0.0000
     34 C17        4.6985    9.8007    4.8738 C.3       1 RES1    0.0000
     35 H9         3.8786    9.9926    4.3717 H         1 RES1    0.0000
     36 H10        5.4704   10.1571    4.3870 H         1 RES1    0.0000
     37 H11        4.6473   10.2215    5.7570 H         1 RES1    0.0000
     38 C18        6.1686    7.9670    5.7497 C.3       1 RES1    0.0000
     39 H12        6.2249    8.4909    6.5763 H         1 RES1    0.0000
     40 H13        6.9199    8.1979    5.1638 H         1 RES1    0.0000
     41 H14        6.2045    7.0116    5.9661 H         1 RES1    0.0000
     42 C19        6.3791    3.9432    5.4845 C.2       1 RES1    0.0000
     43 C20        5.5106    3.2399    6.4792 C.3       1 RES1    0.0000
     44 H15        6.0719    2.8404    7.1899 H         1 RES1    0.0000
     45 H16        5.0131    2.5103    6.0324 H         1 RES1    0.0000
     46 C21        4.5271    4.2349    7.0947 C.3       1 RES1    0.0000
     47 H17        5.0377    4.9891    7.4822 H         1 RES1    0.0000
     48 H18        3.9506    4.5994    6.3774 H         1 RES1    0.0000
     49 C22        3.6545    3.6441    8.1604 C.2       1 RES1    0.0000
     50 H19        3.0328    4.2306    8.5752 H         1 RES1    0.0000
     51 C23        3.6598    2.3976    8.5823 C.2       1 RES1    0.0000
     52 H20        4.2625    1.7698    8.2012 H         1 RES1    0.0000
     53 H21        3.0606    2.1253    9.2686 H         1 RES1    0.0000
     54 C24        2.7927    6.6346    2.3478 C.3       1 RES1    0.0000
     55 H22        2.0129    6.0989    2.6380 H         1 RES1    0.0000
     56 H23        3.4917    6.0062    2.0363 H         1 RES1    0.0000
     57 C25        2.3770    7.5264    1.1917 C.3       1 RES1    0.0000
     58 H24        3.1661    8.0075    0.8380 H         1 RES1    0.0000
     59 H25        1.9962    6.9757    0.4623 H         1 RES1    0.0000
     60 C26        1.7955    9.7566    1.8007 C.2       1 RES1    0.0000
     61 C27        0.7488   10.6089    2.4644 C.3       1 RES1    0.0000
     62 H26       -0.0851   10.5787    1.9326 H         1 RES1    0.0000
     63 H27        1.0601   11.5483    2.4918 H         1 RES1    0.0000
     64 C28        0.4614   10.1300    3.8807 C.3       1 RES1    0.0000
     65 H28        0.0219    9.2442    3.8329 H         1 RES1    0.0000
     66 H29        1.3218   10.0112    4.3547 H         1 RES1    0.0000
     67 C29       -0.4073   11.0529    4.6857 C.2       1 RES1    0.0000
     68 H30       -0.6090   10.7806    5.5734 H         1 RES1    0.0000
     69 C30       -0.9190   12.2011    4.2893 C.2       1 RES1    0.0000
     70 H31       -0.7483   12.5190    3.4114 H         1 RES1    0.0000
     71 H32       -1.4594   12.7109    4.8816 H         1 RES1    0.0000
@<TRIPOS>BOND
     1    1   10 1
     2    2    9 2
     3    3    9 2
     4    4   21 1
     5    5   42 2
     6    6   57 1
     7    7   60 2
     8    8   10 1
     9    9   18 1
    10   10   11 1
    11   11   12 1
    12   13   11 2
    13   14   13 1
    14   15   13 1
    15   16   15 ar
    16   17   16 1
    17   18   16 ar
    18   19   18 ar
    19   20   19 1
    20   21   19 ar
    21   22    1 1
    22   23   10 1
    23   24   23 1
    24   25   24 ar
    25   26   25 1
    26   27   25 ar
    27   28   27 1
    28   29   27 ar
    29   30   29 1
    30   31   29 ar
    31   32   31 1
    32   33    8 1
    33   34   23 1
    34   35   34 1
    35   36   34 1
    36   37   34 1
    37   38   23 1
    38   39   38 1
    39   40   38 1
    40   41   38 1
    41   42    4 1
    42   43   42 1
    43   44   43 1
    44   45   43 1
    45   46   43 1
    46   47   46 1
    47   48   46 1
    48   49   46 1
    49   50   49 1
    50   51   49 2
    51   52   51 1
    52   53   51 1
    53   54    8 1
    54   55   54 1
    55   56   54 1
    56   57   54 1
    57   58   57 1
    58   59   57 1
    59   60    6 1
    60   61   60 1
    61   62   61 1
    62   63   61 1
    63   64   61 1
    64   65   64 1
    65   66   64 1
    66   67   64 1
    67   68   67 1
    68   69   67 2
    69   70   69 1
    70   71   69 1
    71   15   22 ar
    72   21   22 ar
    73   24   33 ar
    74   31   33 ar
@<TRIPOS>SUBSTRUCTURE
     1 RES1 1

@<TRIPOS>CRYSIN
   8.5981    9.4861   17.4115  98.2150  96.2990 108.3730   2 1

