# MOL2 file generated by ConQuest
# Please check atom types

@<TRIPOS>MOLECULE
UPIQOA
    42    44     1
SMALL
NO_CHARGES
****
Generated from CSD

@<TRIPOS>ATOM
      1 O1         1.6438    6.2567   -0.6945 O.2       1 RES1    0.0000
      2 O2         2.3611    7.7125    0.6836 O.2       1 RES1    0.0000
      3 O3         5.2080    2.7546    4.4983 O.2       1 RES1    0.0000
      4 O4         4.3919    1.2943    3.0136 O.3       1 RES1    0.0000
      5 O5         2.7392    0.2306    5.1574 O.3       1 RES1    0.0000
      6 N1         2.2581    6.5728    0.3093 N.pl3     1 RES1    0.0000
      7 C1         2.9128    5.5140    1.0793 C.ar      1 RES1    0.0000
      8 C2         2.6896    4.2102    0.7395 C.ar      1 RES1    0.0000
      9 H1         2.1609    3.9954    0.0057 H         1 RES1    0.0000
     10 C3         3.7042    5.8790    2.1441 C.ar      1 RES1    0.0000
     11 H2         3.8508    6.7763    2.3405 H         1 RES1    0.0000
     12 C4         3.2612    3.2214    1.5044 C.ar      1 RES1    0.0000
     13 H3         3.1261    2.3271    1.2857 H         1 RES1    0.0000
     14 C5         4.2741    4.8900    2.9107 C.ar      1 RES1    0.0000
     15 H4         4.8152    5.1120    3.6348 H         1 RES1    0.0000
     16 C6         4.0386    3.5592    2.5988 C.ar      1 RES1    0.0000
     17 C7         4.6134    2.5094    3.4888 C.2       1 RES1    0.0000
     18 C8         4.7699    0.1508    3.7981 C.3       1 RES1    0.0000
     19 H5         5.2912    0.4353    4.5641 H         1 RES1    0.0000
     20 H6         5.3151   -0.4485    3.2642 H         1 RES1    0.0000
     21 C9         3.5214   -0.5697    4.2642 C.3       1 RES1    0.0000
     22 H7         2.9713   -0.7422    3.4723 H         1 RES1    0.0000
     23 C10        3.8607   -1.8999    4.8695 C.2       1 RES1    0.0000
     24 C11        3.4061    0.5530    6.3790 C.3       1 RES1    0.0000
     25 H8         2.7926    1.0332    6.9560 H         1 RES1    0.0000
     26 H9         4.1522    1.1417    6.1862 H         1 RES1    0.0000
     27 C12        4.1638   -1.8810    6.3142 C.3       1 RES1    0.0000
     28 H10        4.9502   -2.3972    6.5882 H         1 RES1    0.0000
     29 C13        3.9076   -0.6377    7.0951 C.3       1 RES1    0.0000
     30 H11        4.5525   -0.4538    7.8112 H         1 RES1    0.0000
     31 C14        3.0536   -1.8244    7.3072 C.3       1 RES1    0.0000
     32 H12        2.1453   -1.7939    6.9674 H         1 RES1    0.0000
     33 H13        3.1632   -2.3178    8.1362 H         1 RES1    0.0000
     34 C15        3.8788   -3.0211    4.1234 C.2       1 RES1    0.0000
     35 C16        3.6178   -3.0389    2.6461 C.3       1 RES1    0.0000
     36 H14        3.5436   -2.1379    2.3234 H         1 RES1    0.0000
     37 H15        2.7992   -3.5098    2.4716 H         1 RES1    0.0000
     38 H16        4.3425   -3.4807    2.1980 H         1 RES1    0.0000
     39 C17        4.1160   -4.3618    4.7198 C.3       1 RES1    0.0000
     40 H17        4.2642   -4.2705    5.6645 H         1 RES1    0.0000
     41 H18        4.8877   -4.7627    4.3133 H         1 RES1    0.0000
     42 H19        3.3493   -4.9201    4.5698 H         1 RES1    0.0000
@<TRIPOS>BOND
     1    1    6 2
     2    2    6 2
     3    3   17 2
     4    4   17 1
     5    5   21 1
     6    6    7 1
     7    7    8 ar
     8    8    9 1
     9   10    7 ar
    10   11   10 1
    11   12    8 ar
    12   13   12 1
    13   14   10 ar
    14   15   14 1
    15   16   12 ar
    16   17   16 1
    17   18    4 1
    18   19   18 1
    19   20   18 1
    20   21   18 1
    21   22   21 1
    22   23   21 1
    23   24    5 1
    24   25   24 1
    25   26   24 1
    26   27   23 1
    27   28   27 1
    28   29   24 1
    29   30   29 1
    30   31   27 1
    31   32   31 1
    32   33   31 1
    33   34   23 2
    34   35   34 1
    35   36   35 1
    36   37   35 1
    37   38   35 1
    38   39   34 1
    39   40   39 1
    40   41   39 1
    41   42   39 1
    42   14   16 ar
    43   27   29 1
    44   29   31 1
@<TRIPOS>SUBSTRUCTURE
     1 RES1 1

@<TRIPOS>CRYSIN
   8.2353   13.2297   28.5080  90.0000  90.0000  90.0000  61 3

