# MOL2 file generated by ConQuest
# Please check atom types

@<TRIPOS>MOLECULE
UPOJIU
    75    80     1
SMALL
NO_CHARGES
****
Generated from CSD

@<TRIPOS>ATOM
      1 O1         1.5651    3.5062    6.1446 O.2       1 RES1    0.0000
      2 O2         2.9718    2.3324    4.8530 O.3       1 RES1    0.0000
      3 O3         5.4395    5.1371    1.9438 O.3       1 RES1    0.0000
      4 O4         1.3304    5.8256   -3.1119 O.2       1 RES1    0.0000
      5 O5         1.2142    6.6984   -1.1414 O.2       1 RES1    0.0000
      6 O6        -1.7791    2.8809   -0.0698 O.2       1 RES1    0.0000
      7 O7         1.1702    2.4455   -0.5349 O.3       1 RES1    0.0000
      8 O8         2.7941    5.0295    1.8717 O.3       1 RES1    0.0000
      9 N1         1.0363    5.7778   -1.9298 N.pl3     1 RES1    0.0000
     10 N2        -1.6852    0.7796   -1.0212 N.am      1 RES1    0.0000
     11 C1        -4.1037    0.9734   -2.6178 C.ar      1 RES1    0.0000
     12 H1        -3.4692    1.6754   -2.7036 H         1 RES1    0.0000
     13 C2        -5.1203    0.8573   -3.5478 C.ar      1 RES1    0.0000
     14 H2        -5.1805    1.4810   -4.2633 H         1 RES1    0.0000
     15 C3        -6.0370   -0.1477   -3.4436 C.ar      1 RES1    0.0000
     16 H3        -6.7398   -0.2209   -4.0792 H         1 RES1    0.0000
     17 C4        -5.9418   -1.0530   -2.4159 C.ar      1 RES1    0.0000
     18 H4        -6.5746   -1.7575   -2.3461 H         1 RES1    0.0000
     19 C5        -4.9231   -0.9431   -1.4746 C.ar      1 RES1    0.0000
     20 H5        -4.8633   -1.5744   -0.7669 H         1 RES1    0.0000
     21 C6        -3.9949    0.0862   -1.5643 C.ar      1 RES1    0.0000
     22 C7        -2.9334    0.2424   -0.5022 C.3       1 RES1    0.0000
     23 H6        -3.2723    0.8446    0.2058 H         1 RES1    0.0000
     24 H7        -2.7575   -0.6401   -0.0910 H         1 RES1    0.0000
     25 C8        -0.7900    0.0836   -1.8563 C.ar      1 RES1    0.0000
     26 C9        -0.9076   -1.1930   -2.3585 C.ar      1 RES1    0.0000
     27 H8        -1.6699   -1.7272   -2.1685 H         1 RES1    0.0000
     28 C10        0.1237   -1.6716   -3.1488 C.ar      1 RES1    0.0000
     29 H9         0.0711   -2.5529   -3.5008 H         1 RES1    0.0000
     30 C11        1.2275   -0.8939   -3.4364 C.ar      1 RES1    0.0000
     31 H10        1.9211   -1.2436   -3.9817 H         1 RES1    0.0000
     32 C12        1.3283    0.3977   -2.9323 C.ar      1 RES1    0.0000
     33 H11        2.0878    0.9355   -3.1260 H         1 RES1    0.0000
     34 C13        0.3052    0.8795   -2.1468 C.ar      1 RES1    0.0000
     35 C14        0.1233    2.2103   -1.4878 C.3       1 RES1    0.0000
     36 C15       -1.2305    2.0376   -0.7530 C.2       1 RES1    0.0000
     37 C16       -2.1240    4.4530   -2.9891 C.ar      1 RES1    0.0000
     38 H12       -2.0962    4.9807   -2.1988 H         1 RES1    0.0000
     39 C17       -3.2217    4.5376   -3.8208 C.ar      1 RES1    0.0000
     40 H13       -3.9350    5.1284   -3.6069 H         1 RES1    0.0000
     41 C18       -3.2823    3.7687   -4.9535 C.ar      1 RES1    0.0000
     42 H14       -4.0483    3.8129   -5.5133 H         1 RES1    0.0000
     43 C19       -2.2389    2.9341   -5.2822 C.ar      1 RES1    0.0000
     44 H15       -2.2823    2.4051   -6.0701 H         1 RES1    0.0000
     45 C20       -1.1165    2.8647   -4.4553 C.ar      1 RES1    0.0000
     46 H16       -0.3861    2.3054   -4.6944 H         1 RES1    0.0000
     47 C21       -1.0613    3.6138   -3.2833 C.ar      1 RES1    0.0000
     48 C22        0.1499    3.4532   -2.3940 C.3       1 RES1    0.0000
     49 H17        0.9549    3.3849   -2.9830 H         1 RES1    0.0000
     50 C23        0.4235    4.5294   -1.3605 C.3       1 RES1    0.0000
     51 H18       -0.4426    4.7749   -0.9250 H         1 RES1    0.0000
     52 C24        1.3325    3.8624   -0.2994 C.3       1 RES1    0.0000
     53 H19        0.9931    4.0856    0.6131 H         1 RES1    0.0000
     54 C25        2.8215    4.1190   -0.3535 C.ar      1 RES1    0.0000
     55 C26        3.5118    4.6074    0.7379 C.ar      1 RES1    0.0000
     56 C27        4.9080    4.6992    0.7693 C.ar      1 RES1    0.0000
     57 C28        5.6200    4.3128   -0.3460 C.ar      1 RES1    0.0000
     58 H20        6.5690    4.3722   -0.3531 H         1 RES1    0.0000
     59 C29        4.9427    3.8369   -1.4549 C.ar      1 RES1    0.0000
     60 H21        5.4348    3.5818   -2.2270 H         1 RES1    0.0000
     61 C30        3.5700    3.7283   -1.4603 C.ar      1 RES1    0.0000
     62 H22        3.1287    3.3823   -2.2270 H         1 RES1    0.0000
     63 C31        2.8814    4.1790    2.9349 C.2       1 RES1    0.0000
     64 H23        3.4286    3.4063    2.8639 H         1 RES1    0.0000
     65 C32        2.2290    4.3987    4.0577 C.2       1 RES1    0.0000
     66 H24        1.7607    5.2181    4.1702 H         1 RES1    0.0000
     67 C33        2.2099    3.4126    5.1357 C.2       1 RES1    0.0000
     68 C34        2.8327    1.2083    5.7494 C.3       1 RES1    0.0000
     69 H25        3.4228    0.4823    5.4570 H         1 RES1    0.0000
     70 H26        1.9031    0.8977    5.7408 H         1 RES1    0.0000
     71 H27        3.0783    1.4835    6.6571 H         1 RES1    0.0000
     72 C35        6.8734    5.2307    1.9848 C.3       1 RES1    0.0000
     73 H28        7.1532    5.5640    2.8617 H         1 RES1    0.0000
     74 H29        7.1805    5.8468    1.2868 H         1 RES1    0.0000
     75 H30        7.2625    4.3444    1.8327 H         1 RES1    0.0000
@<TRIPOS>BOND
     1    1   67 2
     2    2   67 1
     3    3   56 1
     4    4    9 2
     5    5    9 2
     6    6   36 2
     7    7   35 1
     8    8   55 1
     9    9   50 1
    10   10   22 1
    11   11   12 1
    12   13   11 ar
    13   14   13 1
    14   15   13 ar
    15   16   15 1
    16   17   15 ar
    17   18   17 1
    18   19   17 ar
    19   20   19 1
    20   21   11 ar
    21   22   21 1
    22   23   22 1
    23   24   22 1
    24   25   10 1
    25   26   25 ar
    26   27   26 1
    27   28   26 ar
    28   29   28 1
    29   30   28 ar
    30   31   30 1
    31   32   30 ar
    32   33   32 1
    33   34   25 ar
    34   35   34 1
    35   36   10 1
    36   37   38 1
    37   39   37 ar
    38   40   39 1
    39   41   39 ar
    40   42   41 1
    41   43   41 ar
    42   44   43 1
    43   45   43 ar
    44   46   45 1
    45   47   37 ar
    46   48   35 1
    47   49   48 1
    48   50   48 1
    49   51   50 1
    50   52    7 1
    51   53   52 1
    52   54   52 1
    53   55   54 ar
    54   56   55 ar
    55   57   56 ar
    56   58   57 1
    57   59   57 ar
    58   60   59 1
    59   61   54 ar
    60   62   61 1
    61   63    8 1
    62   64   63 1
    63   65   63 2
    64   66   65 1
    65   67   65 1
    66   68    2 1
    67   69   68 1
    68   70   68 1
    69   71   68 1
    70   72    3 1
    71   73   72 1
    72   74   72 1
    73   75   72 1
    74   19   21 ar
    75   32   34 ar
    76   35   36 1
    77   45   47 ar
    78   47   48 1
    79   50   52 1
    80   59   61 ar
@<TRIPOS>SUBSTRUCTURE
     1 RES1 1

@<TRIPOS>CRYSIN
  10.9864   12.6254   21.7926  90.0000  96.2450  90.0000  14 1

