# MOL2 file generated by ConQuest
# Please check atom types

@<TRIPOS>MOLECULE
UPOJOA
    75    80     1
SMALL
NO_CHARGES
****
Generated from CSD

@<TRIPOS>ATOM
      1 O1         1.5331    9.2370    7.0521 O.2       1 RES1    0.0000
      2 O2         3.4527    9.4704    5.9306 O.3       1 RES1    0.0000
      3 O3        -2.0965   11.7152    5.3957 O.3       1 RES1    0.0000
      4 O4        -0.2332   10.8628    3.5922 O.3       1 RES1    0.0000
      5 O5        -2.0419    5.3924   -0.3127 O.2       1 RES1    0.0000
      6 O6        -0.1451    5.5592    0.6903 O.2       1 RES1    0.0000
      7 O7        -1.2921    9.6355   -0.1832 O.3       1 RES1    0.0000
      8 O8        -3.7472    8.3905   -1.2855 O.2       1 RES1    0.0000
      9 N1        -1.1911    6.0227    0.2990 N.pl3     1 RES1    0.0000
     10 N2        -2.1777    7.7422   -2.8385 N.am      1 RES1    0.0000
     11 C1        -3.0012    5.0350   -3.6959 C.ar      1 RES1    0.0000
     12 H1        -2.9278    5.1503   -2.7759 H         1 RES1    0.0000
     13 C2        -3.0277    3.7596   -4.2211 C.ar      1 RES1    0.0000
     14 H2        -2.9737    3.0232   -3.6558 H         1 RES1    0.0000
     15 C3        -3.1360    3.5793   -5.5765 C.ar      1 RES1    0.0000
     16 H3        -3.1552    2.7209   -5.9345 H         1 RES1    0.0000
     17 C4        -3.2142    4.6659   -6.3969 C.ar      1 RES1    0.0000
     18 H4        -3.2870    4.5456   -7.3159 H         1 RES1    0.0000
     19 C5        -3.1873    5.9383   -5.8755 C.ar      1 RES1    0.0000
     20 H5        -3.2406    6.6706   -6.4462 H         1 RES1    0.0000
     21 C6        -3.0816    6.1403   -4.5155 C.ar      1 RES1    0.0000
     22 C7        -3.0669    7.5466   -3.9738 C.3       1 RES1    0.0000
     23 H6        -2.8003    8.1495   -4.6850 H         1 RES1    0.0000
     24 H7        -3.9680    7.7863   -3.7080 H         1 RES1    0.0000
     25 C8        -2.6010    8.1752   -1.6203 C.2       1 RES1    0.0000
     26 C9        -1.3617    8.3168   -0.7194 C.3       1 RES1    0.0000
     27 C10       -0.2314    7.9671   -1.6447 C.ar      1 RES1    0.0000
     28 C11       -0.7744    7.6110   -2.8794 C.ar      1 RES1    0.0000
     29 C12        0.0101    7.2234   -3.9342 C.ar      1 RES1    0.0000
     30 H8        -0.3663    6.9707   -4.7459 H         1 RES1    0.0000
     31 C13        1.3818    7.2208   -3.7483 C.ar      1 RES1    0.0000
     32 H9         1.9346    6.9533   -4.4458 H         1 RES1    0.0000
     33 C14        1.9455    7.6069   -2.5517 C.ar      1 RES1    0.0000
     34 H10        2.8702    7.6102   -2.4527 H         1 RES1    0.0000
     35 C15        1.1308    7.9905   -1.4907 C.ar      1 RES1    0.0000
     36 H11        1.5070    8.2605   -0.6842 H         1 RES1    0.0000
     37 C16       -1.9448   10.2477    2.0703 C.ar      1 RES1    0.0000
     38 C17       -3.2791   10.2682    1.6980 C.ar      1 RES1    0.0000
     39 H12       -3.5330    9.9634    0.8567 H         1 RES1    0.0000
     40 C18       -4.2230   10.7406    2.5731 C.ar      1 RES1    0.0000
     41 H13       -5.1162   10.7508    2.3149 H         1 RES1    0.0000
     42 C19       -3.8816   11.2019    3.8264 C.ar      1 RES1    0.0000
     43 H14       -4.5420   11.4903    4.4139 H         1 RES1    0.0000
     44 C20       -2.5632   11.2330    4.2042 C.ar      1 RES1    0.0000
     45 C21       -1.6017   10.7580    3.3154 C.ar      1 RES1    0.0000
     46 C22        0.2799   10.2962    4.7102 C.2       1 RES1    0.0000
     47 H15       -0.2893    9.8830    5.3184 H         1 RES1    0.0000
     48 C23        1.5655   10.3232    4.9444 C.2       1 RES1    0.0000
     49 H16        2.1270   10.7899    4.3690 H         1 RES1    0.0000
     50 C24        2.1289    9.6348    6.0896 C.2       1 RES1    0.0000
     51 C25        4.1406    8.7657    6.9724 C.3       1 RES1    0.0000
     52 H17        5.0760    8.7150    6.7607 H         1 RES1    0.0000
     53 H18        3.7820    7.8798    7.0492 H         1 RES1    0.0000
     54 H19        4.0256    9.2305    7.8030 H         1 RES1    0.0000
     55 C26       -1.8388    7.5610    3.6516 C.ar      1 RES1    0.0000
     56 H20       -2.6341    7.8189    3.2441 H         1 RES1    0.0000
     57 C27       -1.8527    7.0921    4.9537 C.ar      1 RES1    0.0000
     58 H21       -2.6579    7.0338    5.4156 H         1 RES1    0.0000
     59 C28       -0.6818    6.7099    5.5705 C.ar      1 RES1    0.0000
     60 H22       -0.6919    6.4118    6.4520 H         1 RES1    0.0000
     61 C29        0.4932    6.7717    4.8776 C.ar      1 RES1    0.0000
     62 H23        1.2856    6.5053    5.2851 H         1 RES1    0.0000
     63 C30        0.5089    7.2269    3.5785 C.ar      1 RES1    0.0000
     64 H24        1.3132    7.2513    3.1137 H         1 RES1    0.0000
     65 C31       -0.6484    7.6476    2.9517 C.ar      1 RES1    0.0000
     66 C32       -0.8704    9.6302    1.2136 C.3       1 RES1    0.0000
     67 H25       -0.0471   10.1548    1.3032 H         1 RES1    0.0000
     68 C33       -0.5631    8.1371    1.5270 C.3       1 RES1    0.0000
     69 H26        0.3496    7.9603    1.2162 H         1 RES1    0.0000
     70 C34       -1.5010    7.4616    0.5545 C.3       1 RES1    0.0000
     71 H27       -2.4188    7.5362    0.8900 H         1 RES1    0.0000
     72 C35       -3.0555   12.3289    6.2706 C.3       1 RES1    0.0000
     73 H28       -2.6148   12.6278    7.0695 H         1 RES1    0.0000
     74 H29       -3.7350   11.6904    6.4998 H         1 RES1    0.0000
     75 H30       -3.4582   13.0801    5.8272 H         1 RES1    0.0000
@<TRIPOS>BOND
     1    1   50 2
     2    2   50 1
     3    3   44 1
     4    4   45 1
     5    5    9 2
     6    6    9 2
     7    7   26 1
     8    8   25 2
     9    9   70 1
    10   10   22 1
    11   11   12 1
    12   13   11 ar
    13   14   13 1
    14   15   13 ar
    15   16   15 1
    16   17   15 ar
    17   18   17 1
    18   19   17 ar
    19   20   19 1
    20   21   11 ar
    21   22   21 1
    22   23   22 1
    23   24   22 1
    24   25   10 1
    25   26   25 1
    26   27   26 1
    27   28   10 1
    28   29   28 ar
    29   30   29 1
    30   31   29 ar
    31   32   31 1
    32   33   31 ar
    33   34   33 1
    34   35   27 ar
    35   36   35 1
    36   37   38 ar
    37   38   39 1
    38   40   38 ar
    39   41   40 1
    40   42   40 ar
    41   43   42 1
    42   44   42 ar
    43   45   37 ar
    44   46    4 1
    45   47   46 1
    46   48   46 2
    47   49   48 1
    48   50   48 1
    49   51    2 1
    50   52   51 1
    51   53   51 1
    52   54   51 1
    53   55   56 1
    54   57   55 ar
    55   58   57 1
    56   59   57 ar
    57   60   59 1
    58   61   59 ar
    59   62   61 1
    60   63   61 ar
    61   64   63 1
    62   65   55 ar
    63   66    7 1
    64   67   66 1
    65   68   65 1
    66   69   68 1
    67   70   26 1
    68   71   70 1
    69   72    3 1
    70   73   72 1
    71   74   72 1
    72   75   72 1
    73   19   21 ar
    74   27   28 ar
    75   33   35 ar
    76   37   66 1
    77   44   45 ar
    78   63   65 ar
    79   66   68 1
    80   68   70 1
@<TRIPOS>SUBSTRUCTURE
     1 RES1 1

@<TRIPOS>CRYSIN
   9.4057   21.7495   15.2284  90.0000 107.8470  90.0000  14 1

