# MOL2 file generated by ConQuest
# Please check atom types

@<TRIPOS>MOLECULE
UPURAA
    65    70     1
SMALL
NO_CHARGES
****
Generated from CSD

@<TRIPOS>ATOM
      1 N1        10.0667    8.2328   12.2413 N.ar      1 RES1    0.0000
      2 N2         8.0998    4.1942    5.0111 N.pl3     1 RES1    0.0000
      3 C1         9.5287    6.8696    9.8426 C.ar      1 RES1    0.0000
      4 N3        10.1552    4.8829   13.4747 N.ar      1 RES1    0.0000
      5 C2         9.7086    8.2412    9.8781 C.ar      1 RES1    0.0000
      6 H1         9.6527    8.7310    9.0890 H         1 RES1    0.0000
      7 C3         9.9226    6.9049   12.2122 C.ar      1 RES1    0.0000
      8 C4         9.9692    8.8962   11.0723 C.ar      1 RES1    0.0000
      9 C5        10.0476    6.2009   13.5187 C.ar      1 RES1    0.0000
     10 N4        10.3000   10.9957    9.9644 N.ar      1 RES1    0.0000
     11 C6         9.6611    6.1972   11.0375 C.ar      1 RES1    0.0000
     12 H2         9.5758    5.2710   11.0620 H         1 RES1    0.0000
     13 C7         9.1850    6.1721    8.5889 C.ar      1 RES1    0.0000
     14 C8         9.5748    4.8762    8.3306 C.ar      1 RES1    0.0000
     15 H3        10.0856    4.4276    8.9647 H         1 RES1    0.0000
     16 C9        10.0707    6.9014   14.7126 C.ar      1 RES1    0.0000
     17 H4        10.0053    7.8295   14.7157 H         1 RES1    0.0000
     18 C10        8.4648    4.8526    6.2081 C.ar      1 RES1    0.0000
     19 C11       10.1601   10.3677   11.1320 C.ar      1 RES1    0.0000
     20 C12        9.2330    4.2161    7.1627 C.ar      1 RES1    0.0000
     21 H5         9.5213    3.3425    7.0197 H         1 RES1    0.0000
     22 C13        7.8276    4.8999    3.8573 C.ar      1 RES1    0.0000
     23 C14        7.7071    2.8113    5.0762 C.ar      1 RES1    0.0000
     24 C15       10.2092   11.0387   12.3338 C.ar      1 RES1    0.0000
     25 H6        10.1231   10.5699   13.1329 H         1 RES1    0.0000
     26 C16        8.6381    5.9392    3.4609 C.ar      1 RES1    0.0000
     27 H7         9.3914    6.1561    3.9615 H         1 RES1    0.0000
     28 C17        8.4284    6.8060    7.6136 C.ar      1 RES1    0.0000
     29 H8         8.1616    7.6873    7.7457 H         1 RES1    0.0000
     30 C18        8.0639    6.1572    6.4553 C.ar      1 RES1    0.0000
     31 H9         7.5395    6.6001    5.8272 H         1 RES1    0.0000
     32 C19       10.1923    6.2080   15.8926 C.ar      1 RES1    0.0000
     33 H10       10.1847    6.6596   16.7058 H         1 RES1    0.0000
     34 C20        7.1369    6.2878    1.5750 C.ar      1 RES1    0.0000
     35 C21       10.3251    4.8582   15.8600 C.ar      1 RES1    0.0000
     36 H11       10.4240    4.3664   16.6436 H         1 RES1    0.0000
     37 N5         7.1881    8.0685    0.1166 N.2       1 RES1    0.0000
     38 C22        6.7297    4.5779    3.0613 C.ar      1 RES1    0.0000
     39 H12        6.1820    3.8714    3.3178 H         1 RES1    0.0000
     40 C23       10.5188   13.0388   11.1724 C.ar      1 RES1    0.0000
     41 H13       10.6433   13.9602   11.1538 H         1 RES1    0.0000
     42 C24       10.3852   12.3860   12.3525 C.ar      1 RES1    0.0000
     43 H14       10.4125   12.8508   13.1578 H         1 RES1    0.0000
     44 C25       10.3086    4.2390   14.6286 C.ar      1 RES1    0.0000
     45 H15       10.4101    3.3145   14.6022 H         1 RES1    0.0000
     46 C26        6.8065    2.3684    6.0107 C.ar      1 RES1    0.0000
     47 H16        6.4699    2.9612    6.6434 H         1 RES1    0.0000
     48 C27        8.3396    6.6518    2.3399 C.ar      1 RES1    0.0000
     49 H17        8.8846    7.3528    2.0631 H         1 RES1    0.0000
     50 C28       10.4702   12.3322   10.0203 C.ar      1 RES1    0.0000
     51 H18       10.5590   12.7959    9.2196 H         1 RES1    0.0000
     52 C29        7.7687    0.6019    4.1636 C.ar      1 RES1    0.0000
     53 H19        8.0950    0.0050    3.5293 H         1 RES1    0.0000
     54 C30        8.2137    1.9195    4.1558 C.ar      1 RES1    0.0000
     55 H20        8.8476    2.1963    3.5339 H         1 RES1    0.0000
     56 C31        6.4429    5.2306    1.9683 C.ar      1 RES1    0.0000
     57 H21        5.7265    4.9438    1.4490 H         1 RES1    0.0000
     58 C32        6.8523    0.1671    5.0949 C.ar      1 RES1    0.0000
     59 H22        6.5522   -0.7127    5.0918 H         1 RES1    0.0000
     60 C33        6.3953    1.0533    6.0215 C.ar      1 RES1    0.0000
     61 H23        5.7967    0.7662    6.6730 H         1 RES1    0.0000
     62 C34        6.7009    7.0228    0.3840 C.2       1 RES1    0.0000
     63 H24        6.0394    6.6664   -0.1632 H         1 RES1    0.0000
     64 O1         6.5974    8.7225   -1.0728 O.3       1 RES1    0.0000
     65 H25        6.2296    8.1578   -1.5408 H         1 RES1    0.0000
@<TRIPOS>BOND
     1    1    7 ar
     2    2   18 1
     3    3    5 ar
     4    4    9 ar
     5    5    6 1
     6    7    9 1
     7    8    1 ar
     8    9   16 ar
     9   10   19 ar
    10   11    3 ar
    11   12   11 1
    12   13    3 1
    13   14   13 ar
    14   15   14 1
    15   16   17 1
    16   18   20 ar
    17   19    8 1
    18   20   14 ar
    19   21   20 1
    20   22    2 1
    21   23    2 1
    22   24   19 ar
    23   25   24 1
    24   26   22 ar
    25   27   26 1
    26   28   13 ar
    27   29   28 1
    28   30   18 ar
    29   31   30 1
    30   32   16 ar
    31   33   32 1
    32   34   48 ar
    33   35   32 ar
    34   36   35 1
    35   37   62 2
    36   38   22 ar
    37   39   38 1
    38   40   41 1
    39   42   24 ar
    40   43   42 1
    41   44    4 ar
    42   45   44 1
    43   46   23 ar
    44   47   46 1
    45   48   26 ar
    46   49   48 1
    47   50   10 ar
    48   51   50 1
    49   52   53 1
    50   54   23 ar
    51   55   54 1
    52   56   34 ar
    53   57   56 1
    54   58   52 ar
    55   59   58 1
    56   60   46 ar
    57   61   60 1
    58   62   34 1
    59   63   62 1
    60   64   37 1
    61   65   64 1
    62    5    8 ar
    63    7   11 ar
    64   28   30 ar
    65   35   44 ar
    66   38   56 ar
    67   40   42 ar
    68   40   50 ar
    69   52   54 ar
    70   58   60 ar
@<TRIPOS>SUBSTRUCTURE
     1 RES1 1

@<TRIPOS>CRYSIN
   8.8941   10.2410   15.8110  79.5300  86.8700  70.6500   2 1

