# MOL2 file generated by ConQuest
# Please check atom types

@<TRIPOS>MOLECULE
UPUWUY
    55    61     1
SMALL
NO_CHARGES
****
Generated from CSD

@<TRIPOS>ATOM
      1 O1         3.2669    4.9034    5.0492 O.3       1 RES1    0.0000
      2 O2         7.0876    6.3644    5.5139 O.3       1 RES1    0.0000
      3 N1         7.6731    7.2317    3.3588 N.3       1 RES1    0.0000
      4 N2         7.9944    8.7822    1.0242 N.ar      1 RES1    0.0000
      5 C1         8.5749    9.0952    4.6754 C.ar      1 RES1    0.0000
      6 C2         7.1349    6.8096    2.1242 C.ar      1 RES1    0.0000
      7 O3        13.0440   10.1874    6.4394 O.2       1 RES1    0.0000
      8 C3         6.5992    4.6660    3.2298 C.3       1 RES1    0.0000
      9 H1         6.4768    3.7311    2.9632 H         1 RES1    0.0000
     10 C4        10.7643    9.8770    6.1455 C.ar      1 RES1    0.0000
     11 N3        11.9343   10.2530    6.9525 N.pl3     1 RES1    0.0000
     12 C5         3.5952    5.6631    6.1471 C.ar      1 RES1    0.0000
     13 C6         4.8845    6.1651    6.3272 C.ar      1 RES1    0.0000
     14 C7         7.3976    8.5846    3.8791 C.3       1 RES1    0.0000
     15 H2         6.6091    8.5609    4.4448 H         1 RES1    0.0000
     16 H3         7.2199    9.1869    3.1397 H         1 RES1    0.0000
     17 C8         5.8603    5.8336    5.3173 C.2       1 RES1    0.0000
     18 C9         5.5578    5.0436    4.2561 C.2       1 RES1    0.0000
     19 C10        9.5362    9.8186    6.7563 C.ar      1 RES1    0.0000
     20 H4         9.4428   10.0437    7.6544 H         1 RES1    0.0000
     21 C11        8.0105    6.2658    4.3700 C.3       1 RES1    0.0000
     22 H5         8.9171    6.4578    4.6894 H         1 RES1    0.0000
     23 C12        5.1457    6.9474    7.4625 C.ar      1 RES1    0.0000
     24 H6         5.9952    7.3008    7.5950 H         1 RES1    0.0000
     25 C13        8.4420    9.4190    6.0141 C.ar      1 RES1    0.0000
     26 H7         7.6063    9.3670    6.4191 H         1 RES1    0.0000
     27 O4        11.7485   10.6128    8.1062 O.2       1 RES1    0.0000
     28 C14        7.2745    7.6273    0.9501 C.ar      1 RES1    0.0000
     29 C15        6.5622    5.5527    2.0065 C.ar      1 RES1    0.0000
     30 C16        9.8248    9.2011    4.0805 C.ar      1 RES1    0.0000
     31 H8         9.9175    9.0116    3.1746 H         1 RES1    0.0000
     32 O5         3.8402    3.8004    3.2239 O.2       1 RES1    0.0000
     33 C17        2.5874    5.9129    7.0668 C.ar      1 RES1    0.0000
     34 H9         1.7317    5.5742    6.9363 H         1 RES1    0.0000
     35 C18        6.7036    7.1682   -0.2722 C.ar      1 RES1    0.0000
     36 C19       10.9316    9.5832    4.8098 C.ar      1 RES1    0.0000
     37 H10       11.7691    9.6409    4.4099 H         1 RES1    0.0000
     38 C20        4.2228    4.5272    4.1102 C.2       1 RES1    0.0000
     39 C21        6.0932    5.8974   -0.3381 C.ar      1 RES1    0.0000
     40 H11        5.7200    5.5995   -1.1357 H         1 RES1    0.0000
     41 C22        6.0526    5.1133    0.7675 C.ar      1 RES1    0.0000
     42 H12        5.6792    4.2644    0.7076 H         1 RES1    0.0000
     43 C23        7.9795    4.8481    3.8511 C.3       1 RES1    0.0000
     44 H13        8.1134    4.2167    4.5741 H         1 RES1    0.0000
     45 H14        8.6727    4.7132    3.1868 H         1 RES1    0.0000
     46 C24        6.8178    8.0230   -1.3881 C.ar      1 RES1    0.0000
     47 H15        6.4068    7.7938   -2.1910 H         1 RES1    0.0000
     48 C25        4.1576    7.1936    8.3756 C.ar      1 RES1    0.0000
     49 H16        4.3376    7.7077    9.1290 H         1 RES1    0.0000
     50 C26        8.1227    9.5012   -0.0769 C.ar      1 RES1    0.0000
     51 H17        8.6430   10.2713   -0.0402 H         1 RES1    0.0000
     52 C27        2.8773    6.6717    8.1757 C.ar      1 RES1    0.0000
     53 H18        2.2116    6.8405    8.8023 H         1 RES1    0.0000
     54 C28        7.5188    9.1671   -1.2983 C.ar      1 RES1    0.0000
     55 H19        7.6021    9.7286   -2.0355 H         1 RES1    0.0000
@<TRIPOS>BOND
     1    1   12 1
     2    2   17 1
     3    3    6 1
     4    4   28 ar
     5    5   14 1
     6    6   28 ar
     7    7   11 2
     8    8    9 1
     9   10   11 1
    10   11   27 2
    11   12   13 ar
    12   13   17 1
    13   14    3 1
    14   15   14 1
    15   16   14 1
    16   17   18 2
    17   18    8 1
    18   19   10 ar
    19   20   19 1
    20   21    2 1
    21   22   21 1
    22   23   13 ar
    23   24   23 1
    24   25    5 ar
    25   26   25 1
    26   28   35 ar
    27   29    6 ar
    28   30    5 ar
    29   31   30 1
    30   32   38 2
    31   33   12 ar
    32   34   33 1
    33   35   39 ar
    34   36   10 ar
    35   37   36 1
    36   38    1 1
    37   39   40 1
    38   41   29 ar
    39   42   41 1
    40   43    8 1
    41   44   43 1
    42   45   43 1
    43   46   35 ar
    44   47   46 1
    45   48   23 ar
    46   49   48 1
    47   50    4 ar
    48   51   50 1
    49   52   33 ar
    50   53   52 1
    51   54   46 ar
    52   55   54 1
    53    3   21 1
    54    8   29 1
    55   18   38 1
    56   19   25 ar
    57   21   43 1
    58   30   36 ar
    59   39   41 ar
    60   48   52 ar
    61   50   54 ar
@<TRIPOS>SUBSTRUCTURE
     1 RES1 1

@<TRIPOS>CRYSIN
   7.8949    8.0130   17.8100  78.8960  86.9150  80.7460   2 1

