# MOL2 file generated by ConQuest
# Please check atom types

@<TRIPOS>MOLECULE
UPUXOT
    36    38     1
SMALL
NO_CHARGES
****
Generated from CSD

@<TRIPOS>ATOM
      1 C1         1.8782   17.6735    3.4223 C.3       1 RES1    0.0000
      2 H1         1.9402   18.5548    3.8669 H         1 RES1    0.0000
      3 H2         2.7956   17.3446    3.2516 H         1 RES1    0.0000
      4 C2         1.1334   16.6979    4.3090 C.3       1 RES1    0.0000
      5 H3         0.2123   17.0694    4.4238 H         1 RES1    0.0000
      6 C3         1.7356   16.6088    5.7027 C.ar      1 RES1    0.0000
      7 C4         2.9818   17.1123    6.0398 C.ar      1 RES1    0.0000
      8 H4         3.5229   17.5182    5.3721 H         1 RES1    0.0000
      9 C5         3.4447   17.0297    7.3449 C.ar      1 RES1    0.0000
     10 H5         4.2926   17.3942    7.5697 H         1 RES1    0.0000
     11 C6         2.6807   16.4206    8.3161 C.ar      1 RES1    0.0000
     12 H6         3.0063   16.3527    9.2061 H         1 RES1    0.0000
     13 C7         1.4472   15.9137    7.9937 C.ar      1 RES1    0.0000
     14 H7         0.9205   15.4896    8.6615 H         1 RES1    0.0000
     15 C8         0.9681   16.0156    6.7026 C.ar      1 RES1    0.0000
     16 H8         0.1058   15.6781    6.4934 H         1 RES1    0.0000
     17 C9         0.9665   15.3257    3.6626 C.2       1 RES1    0.0000
     18 C10        2.1427   14.5807    3.3304 C.2       1 RES1    0.0000
     19 C11        0.7774   12.8433    2.3871 C.ar      1 RES1    0.0000
     20 C12        0.7549   11.6257    1.7275 C.ar      1 RES1    0.0000
     21 H9         1.5612   11.1522    1.5586 H         1 RES1    0.0000
     22 C13       -0.4537   11.1141    1.3231 C.ar      1 RES1    0.0000
     23 H10       -0.4837   10.2843    0.8597 H         1 RES1    0.0000
     24 C14       -1.6285   11.7995    1.5856 C.ar      1 RES1    0.0000
     25 H11       -2.4585   11.4424    1.2920 H         1 RES1    0.0000
     26 C15       -1.6024   12.9832    2.2632 C.ar      1 RES1    0.0000
     27 H12       -2.4164   13.4363    2.4494 H         1 RES1    0.0000
     28 C16       -0.3855   13.5382    2.6889 C.ar      1 RES1    0.0000
     29 C17       -0.2588   14.8002    3.3771 C.2       1 RES1    0.0000
     30 N1         1.1298   17.8027    2.1278 N.pl3     1 RES1    0.0000
     31 O1         1.5482   17.1666    1.1902 O.2       1 RES1    0.0000
     32 O2         0.1571   18.5109    2.0639 O.2       1 RES1    0.0000
     33 O3         3.2868   14.9570    3.5379 O.2       1 RES1    0.0000
     34 O4         2.0171   13.3519    2.7308 O.3       1 RES1    0.0000
     35 O5        -1.3371   15.5147    3.7307 O.3       1 RES1    0.0000
     36 H13       -2.0141   15.0160    3.7340 H         1 RES1    0.0000
@<TRIPOS>BOND
     1    1    2 1
     2    3    1 1
     3    4    1 1
     4    5    4 1
     5    6    4 1
     6    7    6 ar
     7    8    7 1
     8    9    7 ar
     9   10    9 1
    10   11    9 ar
    11   12   11 1
    12   13   11 ar
    13   14   13 1
    14   15    6 ar
    15   16   15 1
    16   17    4 1
    17   18   17 1
    18   19   20 ar
    19   20   21 1
    20   22   20 ar
    21   23   22 1
    22   24   22 ar
    23   25   24 1
    24   26   24 ar
    25   27   26 1
    26   28   19 ar
    27   29   17 2
    28   30    1 1
    29   31   30 2
    30   32   30 2
    31   33   18 2
    32   34   18 1
    33   35   29 1
    34   36   35 1
    35   13   15 ar
    36   19   34 1
    37   26   28 ar
    38   28   29 1
@<TRIPOS>SUBSTRUCTURE
     1 RES1 1

@<TRIPOS>CRYSIN
   7.2294   24.7993    8.6181  90.0000 107.8570  90.0000  14 1

