# MOL2 file generated by ConQuest
# Please check atom types

@<TRIPOS>MOLECULE
UPUYOU
    47    48     1
SMALL
NO_CHARGES
****
Generated from CSD

@<TRIPOS>ATOM
      1 O1         5.5753    2.6653    0.3895 O.3       1 RES1    0.0000
      2 O2         6.6655    0.0518    1.0147 O.3       1 RES1    0.0000
      3 H1         6.6249    0.3730    0.2393 H         1 RES1    0.0000
      4 O3         6.9308   -0.6538    4.5231 O.3       1 RES1    0.0000
      5 O4        10.9132    0.5959    1.2322 O.3       1 RES1    0.0000
      6 N1         4.9673    3.8940    0.7312 N.2       1 RES1    0.0000
      7 N2         9.0122    1.2725    2.2788 N.2       1 RES1    0.0000
      8 N3         8.6217   -1.4015    3.2098 N.2       1 RES1    0.0000
      9 C1         5.2240    5.7729    2.2291 C.3       1 RES1    0.0000
     10 H2         4.4714    6.1319    1.7149 H         1 RES1    0.0000
     11 H3         5.9796    6.3943    2.1794 H         1 RES1    0.0000
     12 H4         4.9560    5.6580    3.1642 H         1 RES1    0.0000
     13 C2         5.6255    4.4618    1.6663 C.2       1 RES1    0.0000
     14 C3         6.8191    3.6991    2.1115 C.3       1 RES1    0.0000
     15 H5         6.7627    3.4727    3.0739 H         1 RES1    0.0000
     16 H6         7.6531    4.2064    1.9441 H         1 RES1    0.0000
     17 C4         6.7473    2.4494    1.2434 C.3       1 RES1    0.0000
     18 H7         7.5650    2.4047    0.6693 H         1 RES1    0.0000
     19 C5         6.5689    1.1005    1.9675 C.3       1 RES1    0.0000
     20 C6         5.2330    1.0347    2.7027 C.3       1 RES1    0.0000
     21 H8         4.5003    1.1181    2.0577 H         1 RES1    0.0000
     22 H9         5.1817    1.7658    3.3528 H         1 RES1    0.0000
     23 H10        5.1603    0.1764    3.1703 H         1 RES1    0.0000
     24 C7         7.7644    0.9048    2.9431 C.3       1 RES1    0.0000
     25 H11        7.6348    1.5385    3.7057 H         1 RES1    0.0000
     26 C8         9.7841    0.3414    1.9208 C.2       1 RES1    0.0000
     27 C9        11.1867    1.9746    0.9361 C.3       1 RES1    0.0000
     28 H12       10.4859    2.3274    0.3489 H         1 RES1    0.0000
     29 H13       12.0551    2.0466    0.4878 H         1 RES1    0.0000
     30 H14       11.2050    2.4898    1.7687 H         1 RES1    0.0000
     31 C10        9.6161   -1.1374    2.1804 C.3       1 RES1    0.0000
     32 H15        9.2895   -1.5560    1.3326 H         1 RES1    0.0000
     33 C11       10.9376   -1.8351    2.5618 C.3       1 RES1    0.0000
     34 H16       11.6091   -1.6411    1.8468 H         1 RES1    0.0000
     35 C12       11.4701   -1.2831    3.8741 C.3       1 RES1    0.0000
     36 H17       10.7830   -1.3682    4.5678 H         1 RES1    0.0000
     37 H18       11.7035   -0.3379    3.7605 H         1 RES1    0.0000
     38 H19       12.2671   -1.7868    4.1408 H         1 RES1    0.0000
     39 C13       10.7271   -3.3472    2.6196 C.3       1 RES1    0.0000
     40 H20       10.0209   -3.5552    3.2656 H         1 RES1    0.0000
     41 H21       11.5602   -3.7825    2.8954 H         1 RES1    0.0000
     42 H22       10.4650   -3.6754    1.7332 H         1 RES1    0.0000
     43 C14        7.8243   -0.4862    3.5222 C.2       1 RES1    0.0000
     44 C15        7.0446   -1.8737    5.2655 C.3       1 RES1    0.0000
     45 H23        6.9850   -2.6363    4.6529 H         1 RES1    0.0000
     46 H24        6.3198   -1.9255    5.9227 H         1 RES1    0.0000
     47 H25        7.9083   -1.8948    5.7290 H         1 RES1    0.0000
@<TRIPOS>BOND
     1    1    6 1
     2    2    3 1
     3    4   43 1
     4    5   26 1
     5    6   13 2
     6    7   24 1
     7    8   31 1
     8    9   10 1
     9   11    9 1
    10   12    9 1
    11   13    9 1
    12   14   13 1
    13   15   14 1
    14   16   14 1
    15   17    1 1
    16   18   17 1
    17   19    2 1
    18   20   19 1
    19   21   20 1
    20   22   20 1
    21   23   20 1
    22   24   19 1
    23   25   24 1
    24   26    7 2
    25   27    5 1
    26   28   27 1
    27   29   27 1
    28   30   27 1
    29   31   26 1
    30   32   31 1
    31   33   31 1
    32   34   33 1
    33   35   33 1
    34   36   35 1
    35   37   35 1
    36   38   35 1
    37   39   33 1
    38   40   39 1
    39   41   39 1
    40   42   39 1
    41   43    8 2
    42   44    4 1
    43   45   44 1
    44   46   44 1
    45   47   44 1
    46   14   17 1
    47   17   19 1
    48   24   43 1
@<TRIPOS>SUBSTRUCTURE
     1 RES1 1

@<TRIPOS>CRYSIN
   9.2885    8.7761   10.1421  90.0000  90.5940  90.0000   4 1

