# MOL2 file generated by ConQuest
# Please check atom types

@<TRIPOS>MOLECULE
UQACEV
    24    25     1
SMALL
NO_CHARGES
****
Generated from CSD

@<TRIPOS>ATOM
      1 O1        -1.9068    3.8329   -7.3353 O.2       1 RES1    0.0000
      2 O2        -1.5741    5.9908   -7.5294 O.2       1 RES1    0.0000
      3 O3         1.6663    3.6450    0.6824 O.2       1 RES1    0.0000
      4 O4         0.7336    1.6762    0.0469 O.3       1 RES1    0.0000
      5 N1        -1.5071    4.9216   -6.8879 N.pl3     1 RES1    0.0000
      6 N2         0.7190    4.8395   -1.7492 N.pl3     1 RES1    0.0000
      7 H1         1.0819    5.4335   -1.2427 H         1 RES1    0.0000
      8 C1        -0.9179    4.9453   -5.5269 C.ar      1 RES1    0.0000
      9 C2        -0.4215    6.1960   -5.0346 C.ar      1 RES1    0.0000
     10 H2        -0.4739    6.9628   -5.5577 H         1 RES1    0.0000
     11 C3         0.1436    6.2467   -3.7517 C.ar      1 RES1    0.0000
     12 H3         0.4783    7.0427   -3.4061 H         1 RES1    0.0000
     13 C4         0.1887    5.0587   -3.0061 C.ar      1 RES1    0.0000
     14 C5        -0.3013    3.8254   -3.4960 C.ar      1 RES1    0.0000
     15 C6        -0.8927    3.7703   -4.7955 C.ar      1 RES1    0.0000
     16 H4        -1.2447    2.9797   -5.1363 H         1 RES1    0.0000
     17 C7         0.5632    3.4884   -1.4415 C.2       1 RES1    0.0000
     18 C8        -0.0817    2.8264   -2.4901 C.2       1 RES1    0.0000
     19 H5        -0.3184    1.9278   -2.5279 H         1 RES1    0.0000
     20 C9         1.0388    2.9743   -0.1302 C.2       1 RES1    0.0000
     21 C10        1.1863    1.0757    1.3208 C.3       1 RES1    0.0000
     22 H6         0.9182    0.1534    1.3515 H         1 RES1    0.0000
     23 H7         0.7883    1.5487    2.0545 H         1 RES1    0.0000
     24 H8         2.1412    1.1340    1.3799 H         1 RES1    0.0000
@<TRIPOS>BOND
     1    1    5 2
     2    2    5 2
     3    3   20 2
     4    4   20 1
     5    5    8 1
     6    6    7 1
     7    8    9 ar
     8    9   10 1
     9   11    9 ar
    10   12   11 1
    11   13    6 1
    12   14   13 ar
    13   15    8 ar
    14   16   15 1
    15   17    6 1
    16   18   14 1
    17   19   18 1
    18   20   17 1
    19   21    4 1
    20   22   21 1
    21   23   21 1
    22   24   21 1
    23   11   13 ar
    24   14   15 ar
    25   17   18 2
@<TRIPOS>SUBSTRUCTURE
     1 RES1 1

@<TRIPOS>CRYSIN
   3.7590   10.8000   23.6700  90.0000  90.2300  90.0000  14 1

