# MOL2 file generated by ConQuest
# Please check atom types

@<TRIPOS>MOLECULE
UQELOT
    57    61     1
SMALL
NO_CHARGES
****
Generated from CSD

@<TRIPOS>ATOM
      1 O1         4.9828   10.7076    2.7347 O.2       1 RES1    0.0000
      2 O2         0.7090    9.6228    4.3600 O.2       1 RES1    0.0000
      3 O3         2.4353   11.3127    8.1603 O.2       1 RES1    0.0000
      4 O4         3.7656   15.4234    2.5956 O.2       1 RES1    0.0000
      5 O5         5.0847   16.9619    1.9769 O.2       1 RES1    0.0000
      6 N1         4.5419   12.9405    2.6659 N.am      1 RES1    0.0000
      7 H1         3.9366   13.5492    2.8361 H         1 RES1    0.0000
      8 N2         1.3509   10.3555    6.4155 N.am      1 RES1    0.0000
      9 H2         0.6585   10.2186    6.8443 H         1 RES1    0.0000
     10 N3         3.3418   13.3222    5.9678 N.ar      1 RES1    0.0000
     11 N4         4.8582   15.7940    2.2030 N.pl3     1 RES1    0.0000
     12 C1         4.2458   11.6409    2.9525 C.2       1 RES1    0.0000
     13 C2         2.8931   11.4499    3.5712 C.3       1 RES1    0.0000
     14 H3         2.5051   12.3028    3.8419 H         1 RES1    0.0000
     15 H4         2.3477   10.9935    2.9041 H         1 RES1    0.0000
     16 C3         2.9483   10.4654    4.7268 C.3       1 RES1    0.0000
     17 H5         3.3497    9.6556    4.4621 H         1 RES1    0.0000
     18 C4         1.5406   10.0749    5.0966 C.2       1 RES1    0.0000
     19 C5         2.4278   10.9363    7.0304 C.2       1 RES1    0.0000
     20 C6         3.5898   10.9363    6.0601 C.3       1 RES1    0.0000
     21 C7         4.6023    9.9154    6.5955 C.3       1 RES1    0.0000
     22 H6         4.7669   10.1041    7.5401 H         1 RES1    0.0000
     23 H7         4.1943    8.9685    6.5872 H         1 RES1    0.0000
     24 C8         5.9006    9.9847    5.8181 C.3       1 RES1    0.0000
     25 H8         6.4704    9.2720    6.1259 H         1 RES1    0.0000
     26 H9         5.7689    9.7873    4.9083 H         1 RES1    0.0000
     27 C9         6.5462   11.3501    5.9731 C.3       1 RES1    0.0000
     28 H10        7.1861   11.5279    5.3318 H         1 RES1    0.0000
     29 H11        6.9285   11.3943    6.8595 H         1 RES1    0.0000
     30 C10        5.5770   12.4922    5.9255 C.ar      1 RES1    0.0000
     31 C11        6.0223   13.8020    5.8355 C.ar      1 RES1    0.0000
     32 H12        6.9285   13.9576    5.7931 H         1 RES1    0.0000
     33 C12        5.1591   14.8609    5.8203 C.ar      1 RES1    0.0000
     34 C13        5.6630   16.2779    5.7719 C.3       1 RES1    0.0000
     35 H13        6.3129   16.2708    5.2032 H         1 RES1    0.0000
     36 H14        6.0982   16.4769    6.6553 H         1 RES1    0.0000
     37 C14        4.5837   17.3070    5.4883 C.3       1 RES1    0.0000
     38 H15        4.3661   17.2957    4.5679 H         1 RES1    0.0000
     39 H16        4.9244   18.1699    5.6494 H         1 RES1    0.0000
     40 C15        3.3397   16.9968    6.2832 C.3       1 RES1    0.0000
     41 H17        2.7485   17.7309    6.2015 H         1 RES1    0.0000
     42 H18        3.5644   16.9293    7.2225 H         1 RES1    0.0000
     43 C16        2.7700   15.6547    5.8612 C.3       1 RES1    0.0000
     44 H19        2.0184   15.3833    6.4813 H         1 RES1    0.0000
     45 H20        2.4622   15.6849    4.9763 H         1 RES1    0.0000
     46 C17        3.7953   14.5664    5.8922 C.ar      1 RES1    0.0000
     47 C18        4.2067   12.3093    5.9905 C.ar      1 RES1    0.0000
     48 C19        5.7332   13.4602    2.2015 C.ar      1 RES1    0.0000
     49 C20        6.8297   12.6466    1.9429 C.ar      1 RES1    0.0000
     50 H21        6.7137   11.7455    2.1176 H         1 RES1    0.0000
     51 C21        8.0221   13.1772    1.5186 C.ar      1 RES1    0.0000
     52 H22        8.7178   12.5968    1.3537 H         1 RES1    0.0000
     53 C22        8.1782   14.5349    1.3348 C.ar      1 RES1    0.0000
     54 H23        8.9612   14.8680    0.9983 H         1 RES1    0.0000
     55 C23        7.1303   15.3608    1.5784 C.ar      1 RES1    0.0000
     56 H24        7.2004   16.2994    1.4823 H         1 RES1    0.0000
     57 C24        5.9193   14.8355    1.9936 C.ar      1 RES1    0.0000
@<TRIPOS>BOND
     1    1   12 2
     2    2   18 2
     3    3   19 2
     4    4   11 2
     5    5   11 2
     6    6    7 1
     7    8    9 1
     8   10   46 ar
     9   11   57 1
    10   12    6 1
    11   13   12 1
    12   14   13 1
    13   15   13 1
    14   16   13 1
    15   17   16 1
    16   18    8 1
    17   19    8 1
    18   20   16 1
    19   21   20 1
    20   22   21 1
    21   23   21 1
    22   24   21 1
    23   25   24 1
    24   26   24 1
    25   27   24 1
    26   28   27 1
    27   29   27 1
    28   30   27 1
    29   31   30 ar
    30   32   31 1
    31   33   31 ar
    32   34   33 1
    33   35   34 1
    34   36   34 1
    35   37   34 1
    36   38   37 1
    37   39   37 1
    38   40   37 1
    39   41   40 1
    40   42   40 1
    41   43   40 1
    42   44   43 1
    43   45   43 1
    44   46   33 ar
    45   47   10 ar
    46   48    6 1
    47   49   48 ar
    48   50   49 1
    49   51   49 ar
    50   52   51 1
    51   53   51 ar
    52   54   53 1
    53   55   53 ar
    54   56   55 1
    55   57   48 ar
    56   16   18 1
    57   19   20 1
    58   20   47 1
    59   30   47 ar
    60   43   46 1
    61   55   57 ar
@<TRIPOS>SUBSTRUCTURE
     1 RES1 1

@<TRIPOS>CRYSIN
  14.3150   19.0860    7.5628  90.0000  90.0000  90.0000  33 1

