# MOL2 file generated by ConQuest
# Please check atom types

@<TRIPOS>MOLECULE
UQIJUA
    29    32     1
SMALL
NO_CHARGES
****
Generated from CSD

@<TRIPOS>ATOM
      1 O1         6.8394    3.4659   14.3747 O.3       1 RES1    0.0000
      2 O2         9.6073    7.1340   14.5857 O.3       1 RES1    0.0000
      3 N1         6.4501    4.6218   15.1217 N.2       1 RES1    0.0000
      4 C1         7.4338    5.4350   15.1053 C.2       1 RES1    0.0000
      5 C2         7.4849    6.7432   15.7180 C.ar      1 RES1    0.0000
      6 C3         6.5304    7.2480   16.5911 C.ar      1 RES1    0.0000
      7 H1         5.7755    6.7404   16.7856 H         1 RES1    0.0000
      8 C4         6.6817    8.4885   17.1753 C.ar      1 RES1    0.0000
      9 H2         6.0417    8.8149   17.7651 H         1 RES1    0.0000
     10 C5         7.8003    9.2353   16.8666 C.ar      1 RES1    0.0000
     11 H3         7.9061   10.0747   17.2512 H         1 RES1    0.0000
     12 C6         8.7521    8.7692   16.0134 C.ar      1 RES1    0.0000
     13 H4         9.5024    9.2864   15.8268 H         1 RES1    0.0000
     14 C7         8.6044    7.5246   15.4200 C.ar      1 RES1    0.0000
     15 C8         9.3602    6.0390   13.6706 C.3       1 RES1    0.0000
     16 H5        10.2327    5.6853   13.3971 H         1 RES1    0.0000
     17 C9         8.6263    4.9273   14.3697 C.3       1 RES1    0.0000
     18 H6         9.2335    4.4946   15.0060 H         1 RES1    0.0000
     19 C10        7.9544    3.8659   13.5318 C.3       1 RES1    0.0000
     20 H7         8.5607    3.1102   13.3868 H         1 RES1    0.0000
     21 C11        7.4156    4.3659   12.2162 C.3       1 RES1    0.0000
     22 H8         6.5714    4.8182   12.3711 H         1 RES1    0.0000
     23 H9         7.2451    3.6095   11.6347 H         1 RES1    0.0000
     24 C12        8.3674    5.3188   11.5228 C.3       1 RES1    0.0000
     25 H10        7.9726    5.6286   10.6932 H         1 RES1    0.0000
     26 H11        9.1943    4.8583   11.3123 H         1 RES1    0.0000
     27 C13        8.6591    6.5081   12.4247 C.3       1 RES1    0.0000
     28 H12        9.2180    7.1457   11.9537 H         1 RES1    0.0000
     29 H13        7.8286    6.9493   12.6625 H         1 RES1    0.0000
@<TRIPOS>BOND
     1    1    3 1
     2    2   14 1
     3    3    4 2
     4    4    5 1
     5    5    6 ar
     6    6    7 1
     7    8    6 ar
     8    9    8 1
     9   10    8 ar
    10   11   10 1
    11   12   10 ar
    12   13   12 1
    13   14    5 ar
    14   15    2 1
    15   16   15 1
    16   17    4 1
    17   18   17 1
    18   19    1 1
    19   20   19 1
    20   21   19 1
    21   22   21 1
    22   23   21 1
    23   24   21 1
    24   25   24 1
    25   26   24 1
    26   27   15 1
    27   28   27 1
    28   29   27 1
    29   12   14 ar
    30   15   17 1
    31   17   19 1
    32   24   27 1
@<TRIPOS>SUBSTRUCTURE
     1 RES1 1

@<TRIPOS>CRYSIN
   9.1168   13.8294   17.2443  90.0000  90.0000  90.0000  61 3

