# MOL2 file generated by ConQuest
# Please check atom types

@<TRIPOS>MOLECULE
UQIYIE
    31    33     1
SMALL
NO_CHARGES
****
Generated from CSD

@<TRIPOS>ATOM
      1 O1        -1.3225   11.5715    9.6338 O.2       1 RES1    0.0000
      2 O2        -1.8415    9.4642    7.9200 O.3       1 RES1    0.0000
      3 O3         1.8510   10.4841    2.8945 O.2       1 RES1    0.0000
      4 O4         1.9309    8.5783    1.8972 O.2       1 RES1    0.0000
      5 N1         1.5955    9.2906    2.8363 N.pl3     1 RES1    0.0000
      6 C1        -0.4331    7.5871    6.1072 C.ar      1 RES1    0.0000
      7 H1        -0.9037    7.1896    6.8572 H         1 RES1    0.0000
      8 C2         0.0403    6.7674    5.0887 C.ar      1 RES1    0.0000
      9 H2        -0.0913    5.8034    5.1431 H         1 RES1    0.0000
     10 C3         0.6955    7.3118    3.9910 C.ar      1 RES1    0.0000
     11 H3         0.9987    6.7573    3.2958 H         1 RES1    0.0000
     12 C4         0.8661    8.6846    3.9550 C.ar      1 RES1    0.0000
     13 C5         0.3917    9.5301    4.9442 C.ar      1 RES1    0.0000
     14 H4         0.5238   10.4805    4.8785 H         1 RES1    0.0000
     15 C6        -0.2660    8.9696    6.0332 C.ar      1 RES1    0.0000
     16 C7        -0.7580    9.8908    7.0875 C.3       1 RES1    0.0000
     17 H5        -0.8065   10.8397    6.8552 H         1 RES1    0.0000
     18 C8        -0.5653    9.6192    8.5291 C.3       1 RES1    0.0000
     19 H6        -0.1276    8.7920    8.7817 H         1 RES1    0.0000
     20 C9        -0.4025   10.7969    9.4546 C.2       1 RES1    0.0000
     21 C10        0.9376   10.9736   10.0735 C.ar      1 RES1    0.0000
     22 C11        1.0895   11.8297   11.1681 C.ar      1 RES1    0.0000
     23 H7         0.2862   12.2861   11.5358 H         1 RES1    0.0000
     24 C12        2.3427   12.0026   11.7412 C.ar      1 RES1    0.0000
     25 H8         2.4501   12.5948   12.5043 H         1 RES1    0.0000
     26 C13        3.4450   11.3378   11.2219 C.ar      1 RES1    0.0000
     27 H9         4.2996   11.4312   11.6140 H         1 RES1    0.0000
     28 C14        3.3069   10.4955   10.1292 C.ar      1 RES1    0.0000
     29 H10        4.1014   10.0564    9.7802 H         1 RES1    0.0000
     30 C15        2.0533   10.3099    9.5594 C.ar      1 RES1    0.0000
     31 H11        1.9347    9.7151    8.7740 H         1 RES1    0.0000
@<TRIPOS>BOND
     1    1   20 2
     2    2   16 1
     3    3    5 2
     4    4    5 2
     5    5   12 1
     6    6    7 1
     7    8    6 ar
     8    9    8 1
     9   10    8 ar
    10   11   10 1
    11   12   10 ar
    12   13   12 ar
    13   14   13 1
    14   15    6 ar
    15   16   15 1
    16   17   16 1
    17   18    2 1
    18   19   18 1
    19   20   18 1
    20   21   20 1
    21   22   21 ar
    22   23   22 1
    23   24   22 ar
    24   25   24 1
    25   26   24 ar
    26   27   26 1
    27   28   26 ar
    28   29   28 1
    29   30   21 ar
    30   31   30 1
    31   13   15 ar
    32   16   18 1
    33   28   30 ar
@<TRIPOS>SUBSTRUCTURE
     1 RES1 1

@<TRIPOS>CRYSIN
   7.8463   16.2514   10.2032  90.0000 108.8390  90.0000  14 1

