# MOL2 file generated by ConQuest
# Please check atom types

@<TRIPOS>MOLECULE
URAGIF
    60    65     1
SMALL
NO_CHARGES
****
Generated from CSD

@<TRIPOS>ATOM
      1 C1        -0.7402    2.9153   10.8593 C.ar      1 RES1    0.0000
      2 C2         0.0289    3.9620   11.3156 C.ar      1 RES1    0.0000
      3 C3         1.0689    4.3958   10.5348 C.ar      1 RES1    0.0000
      4 C4         1.3291    3.7830    9.3014 C.ar      1 RES1    0.0000
      5 C5         0.5140    2.7551    8.8661 C.ar      1 RES1    0.0000
      6 C6        -0.5269    2.3077    9.6451 C.ar      1 RES1    0.0000
      7 C7         2.4999    4.2470    8.5282 C.2       1 RES1    0.0000
      8 C8         3.6485    4.0577    6.4491 C.3       1 RES1    0.0000
      9 C9         4.1274    2.7603    5.8191 C.2       1 RES1    0.0000
     10 C10        4.8301    2.8393    4.5457 C.2       1 RES1    0.0000
     11 C11        4.8707    4.0088    3.8851 C.2       1 RES1    0.0000
     12 C12        4.2889    5.2906    4.3758 C.3       1 RES1    0.0000
     13 C13        3.2093    5.0711    5.4163 C.3       1 RES1    0.0000
     14 C14        5.4318    1.5679    4.0073 C.3       1 RES1    0.0000
     15 C15        5.8210    1.7729    2.5239 C.3       1 RES1    0.0000
     16 C16        6.3785    3.1546    2.2509 C.3       1 RES1    0.0000
     17 C17        6.8133    0.7148    2.0447 C.3       1 RES1    0.0000
     18 C18        7.2140    0.9062    0.5995 C.3       1 RES1    0.0000
     19 C19        7.6594    2.3493    0.2997 C.3       1 RES1    0.0000
     20 C20        6.6060    3.3419    0.7637 C.3       1 RES1    0.0000
     21 C21        6.6042    1.0571    4.8626 C.3       1 RES1    0.0000
     22 C22        7.4398    0.0635    4.0932 C.3       1 RES1    0.0000
     23 C23        6.6568   -1.1070    3.5033 C.3       1 RES1    0.0000
     24 C24        7.4806   -2.3670    3.2990 C.3       1 RES1    0.0000
     25 N1        -1.8361    2.4180   11.7070 N.pl3     1 RES1    0.0000
     26 O1        -2.4685    1.4701   11.3500 O.2       1 RES1    0.0000
     27 O2        -2.0830    3.0058   12.7303 O.2       1 RES1    0.0000
     28 O3         3.3524    4.9785    8.9502 O.2       1 RES1    0.0000
     29 O4         2.5291    3.7247    7.2930 O.3       1 RES1    0.0000
     30 O5         3.9511    1.6886    6.3938 O.2       1 RES1    0.0000
     31 O6         5.4717    4.1773    2.6766 O.3       1 RES1    0.0000
     32 O7         7.5713    3.4345    2.9497 O.3       1 RES1    0.0000
     33 O8         5.3647    3.1098    0.1107 O.3       1 RES1    0.0000
     34 O9         7.9560    0.7002    2.8962 O.3       1 RES1    0.0000
     35 O10        6.2338   -0.5910    2.2127 O.3       1 RES1    0.0000
     36 H1        -0.1565    4.3740   12.1518 H         1 RES1    0.0000
     37 H2         1.6150    5.1148   10.8307 H         1 RES1    0.0000
     38 H3         0.6747    2.3535    8.0204 H         1 RES1    0.0000
     39 H4        -1.0845    1.5971    9.3511 H         1 RES1    0.0000
     40 H5         4.3815    4.4468    7.0066 H         1 RES1    0.0000
     41 H6         3.9052    5.7869    3.6102 H         1 RES1    0.0000
     42 H7         5.0090    5.8462    4.7672 H         1 RES1    0.0000
     43 H8         3.0044    5.9294    5.8649 H         1 RES1    0.0000
     44 H9         2.3835    4.7527    4.9734 H         1 RES1    0.0000
     45 H10        4.7189    0.8677    4.0341 H         1 RES1    0.0000
     46 H11        4.9890    1.6720    1.9779 H         1 RES1    0.0000
     47 H12        6.4474    0.6752    0.0172 H         1 RES1    0.0000
     48 H13        7.9561    0.2872    0.3837 H         1 RES1    0.0000
     49 H14        8.5140    2.5345    0.7637 H         1 RES1    0.0000
     50 H15        7.8078    2.4554   -0.6720 H         1 RES1    0.0000
     51 H16        6.9157    4.2751    0.5823 H         1 RES1    0.0000
     52 H17        7.1704    1.8218    5.1356 H         1 RES1    0.0000
     53 H18        6.2525    0.6274    5.6817 H         1 RES1    0.0000
     54 H19        8.1918   -0.2716    4.6603 H         1 RES1    0.0000
     55 H20        5.8582   -1.3078    4.0722 H         1 RES1    0.0000
     56 H21        6.9635   -3.0141    2.7759 H         1 RES1    0.0000
     57 H22        7.7043   -2.7561    4.1696 H         1 RES1    0.0000
     58 H23        8.3052   -2.1433    2.8198 H         1 RES1    0.0000
     59 H24        8.0068    2.7249    3.0566 H         1 RES1    0.0000
     60 H25        5.3827    3.4532   -0.6548 H         1 RES1    0.0000
@<TRIPOS>BOND
     1    1    2 ar
     2    2    3 ar
     3    3    4 ar
     4    4    5 ar
     5    5    6 ar
     6    6    1 ar
     7    7    4 1
     8    8    9 1
     9    9   10 1
    10   10   11 2
    11   11   12 1
    12   12   13 1
    13   13    8 1
    14   14   10 1
    15   15   14 1
    16   16   15 1
    17   17   15 1
    18   18   17 1
    19   19   18 1
    20   20   16 1
    21   21   14 1
    22   22   21 1
    23   23   22 1
    24   24   23 1
    25   25    1 1
    26   26   25 2
    27   27   25 2
    28   28    7 2
    29   29    7 1
    30   30    9 2
    31   31   11 1
    32   32   16 1
    33   33   20 1
    34   34   17 1
    35   35   17 1
    36   36    2 1
    37   37    3 1
    38   38    5 1
    39   39    6 1
    40   40    8 1
    41   41   12 1
    42   42   12 1
    43   43   13 1
    44   44   13 1
    45   45   14 1
    46   46   15 1
    47   47   18 1
    48   48   18 1
    49   49   19 1
    50   50   19 1
    51   51   20 1
    52   52   21 1
    53   53   21 1
    54   54   22 1
    55   55   23 1
    56   56   24 1
    57   57   24 1
    58   58   24 1
    59   59   32 1
    60   60   33 1
    61    8   29 1
    62   16   31 1
    63   19   20 1
    64   22   34 1
    65   23   35 1
@<TRIPOS>SUBSTRUCTURE
     1 RES1 1

@<TRIPOS>CRYSIN
   5.6668   10.4043   19.1570  90.0000  94.7350  90.0000   4 1

