# MOL2 file generated by ConQuest
# Please check atom types

@<TRIPOS>MOLECULE
URAXAO
    28    29     1
SMALL
NO_CHARGES
****
Generated from CSD

@<TRIPOS>ATOM
      1 O1         0.9140    3.6259    8.5328 O.2       1 RES1    0.0000
      2 N1         0.5667    4.1975    6.3778 N.am      1 RES1    0.0000
      3 C1        -0.7608    5.8063    7.6492 C.ar      1 RES1    0.0000
      4 H1         0.0101    6.0862    8.0880 H         1 RES1    0.0000
      5 N2        -4.3923    6.5886    7.5863 N.pl3     1 RES1    0.0000
      6 C2        -0.6898    4.7977    6.6917 C.ar      1 RES1    0.0000
      7 O2        -4.4340    7.3819    8.5118 O.2       1 RES1    0.0000
      8 C3        -1.8347    4.4054    6.0210 C.ar      1 RES1    0.0000
      9 H2        -1.7857    3.7380    5.3762 H         1 RES1    0.0000
     10 C4         1.2806    3.5974    7.3742 C.2       1 RES1    0.0000
     11 C5        -3.0470    4.9968    6.3017 C.ar      1 RES1    0.0000
     12 H3        -3.8158    4.7419    5.8456 H         1 RES1    0.0000
     13 O3        -5.3601    6.2829    6.9355 O.2       1 RES1    0.0000
     14 C6         2.3554    3.7772    4.7139 C.3       1 RES1    0.0000
     15 H4         2.5084    3.5881    3.7751 H         1 RES1    0.0000
     16 H5         2.8827    4.5539    4.9562 H         1 RES1    0.0000
     17 C7         0.8902    4.0654    4.9420 C.3       1 RES1    0.0000
     18 H6         0.6520    4.8869    4.4849 H         1 RES1    0.0000
     19 H7         0.3609    3.3473    4.5609 H         1 RES1    0.0000
     20 C8         2.5772    2.9150    7.0072 C.3       1 RES1    0.0000
     21 H8         3.3104    3.4800    7.2984 H         1 RES1    0.0000
     22 H9         2.6348    2.0853    7.5065 H         1 RES1    0.0000
     23 C9         2.7777    2.5999    5.5434 C.3       1 RES1    0.0000
     24 H10        3.7113    2.3986    5.3762 H         1 RES1    0.0000
     25 H11        2.2513    1.8223    5.3011 H         1 RES1    0.0000
     26 C10       -1.9765    6.3909    7.9465 C.ar      1 RES1    0.0000
     27 H12       -2.0359    7.0558    8.5935 H         1 RES1    0.0000
     28 C11       -3.0960    5.9728    7.2709 C.ar      1 RES1    0.0000
@<TRIPOS>BOND
     1    1   10 2
     2    2    6 1
     3    3    4 1
     4    5    7 2
     5    6    3 ar
     6    8    6 ar
     7    9    8 1
     8   10    2 1
     9   11    8 ar
    10   12   11 1
    11   13    5 2
    12   14   15 1
    13   16   14 1
    14   17    2 1
    15   18   17 1
    16   19   17 1
    17   20   10 1
    18   21   20 1
    19   22   20 1
    20   23   14 1
    21   24   23 1
    22   25   23 1
    23   26    3 ar
    24   27   26 1
    25   28    5 1
    26   11   28 ar
    27   14   17 1
    28   20   23 1
    29   26   28 ar
@<TRIPOS>SUBSTRUCTURE
     1 RES1 1

@<TRIPOS>CRYSIN
   9.1632   12.2880    9.5069  90.0000  91.8430  90.0000 231 1

