# MOL2 file generated by ConQuest
# Please check atom types

@<TRIPOS>MOLECULE
UREAOH04
     9     8     1
SMALL
NO_CHARGES
****
Generated from CSD

@<TRIPOS>ATOM
      1 C1         2.1570    0.1275    0.1982 C.2       1 RES1    0.0000
      2 H1         3.0101   -0.7720   -2.3725 H         1 RES1    0.0000
      3 H2         1.1407   -1.1580   -0.9160 H         1 RES1    0.0000
      4 H3         3.1023    1.4902   -0.7283 H         1 RES1    0.0000
      5 H4         3.1706    1.6368    0.6832 H         1 RES1    0.0000
      6 N1         1.8645   -0.6127   -0.8814 N.am      1 RES1    0.0000
      7 N2         2.9356    1.2015    0.0330 N.am      1 RES1    0.0000
      8 O1         2.3438   -0.1906   -2.1382 O.3       1 RES1    0.0000
      9 O2         1.7049   -0.2306    1.3221 O.2       1 RES1    0.0000
@<TRIPOS>BOND
     1    1    6 1
     2    2    8 1
     3    3    6 1
     4    4    7 1
     5    5    7 1
     6    6    8 1
     7    7    1 1
     8    9    1 2
@<TRIPOS>SUBSTRUCTURE
     1 RES1 1

@<TRIPOS>CRYSIN
   8.3050    4.8860    8.7970  90.0000 121.4100  90.0000  14 1

