# MOL2 file generated by ConQuest
# Please check atom types

@<TRIPOS>MOLECULE
UREAOH01
     9     8     1
SMALL
NO_CHARGES
****
Generated from CSD

@<TRIPOS>ATOM
      1 C1         2.1754    0.1251    0.2024 C.2       1 RES1    0.0000
      2 H1         3.1754   -0.8587   -2.3329 H         1 RES1    0.0000
      3 H2         1.0852   -1.1041   -0.7525 H         1 RES1    0.0000
      4 H3         3.0648    1.4966   -0.9031 H         1 RES1    0.0000
      5 H4         3.4170    1.6438    0.9407 H         1 RES1    0.0000
      6 N1         1.8726   -0.5982   -0.8775 N.am      1 RES1    0.0000
      7 N2         2.9609    1.1953    0.0459 N.am      1 RES1    0.0000
      8 O1         2.3392   -0.1870   -2.1275 O.3       1 RES1    0.0000
      9 O2         1.7379   -0.2409    1.3185 O.2       1 RES1    0.0000
@<TRIPOS>BOND
     1    1    6 1
     2    2    8 1
     3    3    6 1
     4    4    7 1
     5    5    7 1
     6    6    8 1
     7    7    1 1
     8    9    1 2
@<TRIPOS>SUBSTRUCTURE
     1 RES1 1

@<TRIPOS>CRYSIN
   8.3930    4.9070    8.7980  90.0000 121.2000  90.0000  14 1

