# MOL2 file generated by ConQuest
# Please check atom types

@<TRIPOS>MOLECULE
UREAOH12
     9     8     1
SMALL
NO_CHARGES
****
Generated from CSD

@<TRIPOS>ATOM
      1 C1         2.1811    0.1284    0.2041 C.2       1 RES1    0.0000
      2 N1         2.9591    1.1928    0.0467 N.am      1 RES1    0.0000
      3 N2         1.8750   -0.6035   -0.8857 N.am      1 RES1    0.0000
      4 O1         1.7358   -0.2378    1.3187 O.2       1 RES1    0.0000
      5 O2         2.3403   -0.1888   -2.1276 O.3       1 RES1    0.0000
      6 H1         3.2809    1.6644    0.8736 H         1 RES1    0.0000
      7 H2         3.2658    1.4713   -0.8684 H         1 RES1    0.0000
      8 H3         1.1305   -1.2644   -0.9000 H         1 RES1    0.0000
      9 H4         3.0199   -0.8790   -2.3513 H         1 RES1    0.0000
@<TRIPOS>BOND
     1    1    2 1
     2    2    6 1
     3    3    1 1
     4    4    1 2
     5    5    3 1
     6    7    2 1
     7    8    3 1
     8    9    5 1
@<TRIPOS>SUBSTRUCTURE
     1 RES1 1

@<TRIPOS>CRYSIN
   8.3962    4.9026    8.8060  90.0000 121.2120  90.0000  14 1

