# MOL2 file generated by ConQuest
# Please check atom types

@<TRIPOS>MOLECULE
UREAOH03
     9     8     1
SMALL
NO_CHARGES
****
Generated from CSD

@<TRIPOS>ATOM
      1 C1         2.1705    0.1244    0.2006 C.2       1 RES1    0.0000
      2 H1         2.9673   -0.8852   -2.3081 H         1 RES1    0.0000
      3 H2         1.2576   -1.2246   -0.8297 H         1 RES1    0.0000
      4 H3         3.2134    1.4508   -0.8071 H         1 RES1    0.0000
      5 H4         3.3733    1.6082    0.8222 H         1 RES1    0.0000
      6 N1         1.8711   -0.6029   -0.8795 N.am      1 RES1    0.0000
      7 N2         2.9491    1.1926    0.0528 N.am      1 RES1    0.0000
      8 O1         2.3432   -0.1928   -2.1331 O.3       1 RES1    0.0000
      9 O2         1.7327   -0.2449    1.3162 O.2       1 RES1    0.0000
@<TRIPOS>BOND
     1    1    6 1
     2    2    8 1
     3    3    6 1
     4    4    7 1
     5    5    7 1
     6    6    8 1
     7    7    1 1
     8    9    1 2
@<TRIPOS>SUBSTRUCTURE
     1 RES1 1

@<TRIPOS>CRYSIN
   8.3810    4.9180    8.8220  90.0000 121.2400  90.0000  14 1

