# MOL2 file generated by ConQuest
# Please check atom types

@<TRIPOS>MOLECULE
URELAF
    44    45     1
SMALL
NO_CHARGES
****
Generated from CSD

@<TRIPOS>ATOM
      1 O1         4.0691    9.1893    2.1155 O.3       1 RES1    0.0000
      2 O2         4.6002    6.8119    3.5933 O.3       1 RES1    0.0000
      3 O3         4.1259    4.1951    4.8394 O.3       1 RES1    0.0000
      4 O4         0.0893   13.1829   -0.8801 O.2       1 RES1    0.0000
      5 O5         1.5323    0.6905    5.4549 O.2       1 RES1    0.0000
      6 O6         2.2428   -1.2415    6.1546 O.2       1 RES1    0.0000
      7 N1         3.2898    1.9842    7.1757 N.pl3     1 RES1    0.0000
      8 N2         3.8489   -0.0395    7.9739 N.2       1 RES1    0.0000
      9 N3         2.2526   -0.0148    6.1783 N.pl3     1 RES1    0.0000
     10 C1         2.7423   10.0779    0.4163 C.ar      1 RES1    0.0000
     11 H1         3.0096    9.3687   -0.1220 H         1 RES1    0.0000
     12 C2         1.8663   11.0169   -0.0735 C.ar      1 RES1    0.0000
     13 H2         1.5412   10.9365   -0.9414 H         1 RES1    0.0000
     14 C3         1.4600   12.0936    0.7231 C.ar      1 RES1    0.0000
     15 C4         1.9697   12.1939    2.0192 C.ar      1 RES1    0.0000
     16 H3         1.7051   12.9045    2.5584 H         1 RES1    0.0000
     17 C5         2.8622   11.2580    2.5227 C.ar      1 RES1    0.0000
     18 H4         3.2068   11.3459    3.3810 H         1 RES1    0.0000
     19 C6         3.2321   10.1838    1.7164 C.ar      1 RES1    0.0000
     20 C7         4.5327    9.1873    3.4754 C.3       1 RES1    0.0000
     21 H5         3.7809    9.1439    4.0878 H         1 RES1    0.0000
     22 H6         5.0349    9.9960    3.6625 H         1 RES1    0.0000
     23 C8         5.4061    7.9851    3.6399 C.3       1 RES1    0.0000
     24 H7         6.0677    7.9592    2.9306 H         1 RES1    0.0000
     25 H8         5.8727    8.0303    4.4881 H         1 RES1    0.0000
     26 C9         5.4132    5.6471    3.4664 C.3       1 RES1    0.0000
     27 H9         6.0526    5.6116    4.1942 H         1 RES1    0.0000
     28 H10        5.9052    5.6793    2.6303 H         1 RES1    0.0000
     29 C10        4.5380    4.4299    3.4961 C.3       1 RES1    0.0000
     30 H11        3.7614    4.5668    2.9306 H         1 RES1    0.0000
     31 H12        5.0273    3.6619    3.1620 H         1 RES1    0.0000
     32 C11        3.2379    3.1016    4.9398 C.3       1 RES1    0.0000
     33 H13        3.7014    2.2754    4.7352 H         1 RES1    0.0000
     34 H14        2.5061    3.2078    4.3099 H         1 RES1    0.0000
     35 C12        2.7006    3.0619    6.3704 C.3       1 RES1    0.0000
     36 H15        2.8831    3.9119    6.7995 H         1 RES1    0.0000
     37 H16        1.7379    2.9451    6.3428 H         1 RES1    0.0000
     38 C13        4.1774    2.1733    8.1981 C.2       1 RES1    0.0000
     39 H17        4.4976    2.9876    8.5103 H         1 RES1    0.0000
     40 C14        4.5051    0.9255    8.6748 C.2       1 RES1    0.0000
     41 H18        5.0926    0.7638    9.3766 H         1 RES1    0.0000
     42 C15        3.1375    0.6293    7.0982 C.2       1 RES1    0.0000
     43 C16        0.5004   13.0994    0.2533 C.2       1 RES1    0.0000
     44 H19        0.1856   13.7176    0.8726 H         1 RES1    0.0000
@<TRIPOS>BOND
     1    1   19 1
     2    2   23 1
     3    3   29 1
     4    4   43 2
     5    5    9 2
     6    6    9 2
     7    7   35 1
     8    8   40 1
     9    9   42 1
    10   10   11 1
    11   12   10 ar
    12   13   12 1
    13   14   12 ar
    14   15   14 ar
    15   16   15 1
    16   17   15 ar
    17   18   17 1
    18   19   10 ar
    19   20    1 1
    20   21   20 1
    21   22   20 1
    22   23   20 1
    23   24   23 1
    24   25   23 1
    25   26    2 1
    26   27   26 1
    27   28   26 1
    28   29   26 1
    29   30   29 1
    30   31   29 1
    31   32    3 1
    32   33   32 1
    33   34   32 1
    34   35   32 1
    35   36   35 1
    36   37   35 1
    37   38    7 1
    38   39   38 1
    39   40   38 2
    40   41   40 1
    41   42    7 1
    42   43   14 1
    43   44   43 1
    44    8   42 2
    45   17   19 ar
@<TRIPOS>SUBSTRUCTURE
     1 RES1 1

@<TRIPOS>CRYSIN
   4.4403   11.4686   31.2763  90.0000  90.0000  90.0000  19 1

