# MOL2 file generated by ConQuest
# Please check atom types

@<TRIPOS>MOLECULE
URERUG
    39    41     1
SMALL
NO_CHARGES
****
Generated from CSD

@<TRIPOS>ATOM
      1 O1        -0.4956   -4.8092   -1.2469 O.2       1 RES1    0.0000
      2 O2        -0.7372   -2.0497   -2.4283 O.3       1 RES1    0.0000
      3 H1        -0.3653   -1.3342   -2.5800 H         1 RES1    0.0000
      4 O3        -1.0525   -1.5466   -0.1793 O.3       1 RES1    0.0000
      5 N1        -0.0668   -0.5707    0.1839 N.2       1 RES1    0.0000
      6 C1        -3.0664   -5.1608   -0.2770 C.ar      1 RES1    0.0000
      7 H2        -2.4737   -5.8716   -0.1758 H         1 RES1    0.0000
      8 C2        -4.4072   -5.3488   -0.0356 C.ar      1 RES1    0.0000
      9 H3        -4.7150   -6.1828    0.2379 H         1 RES1    0.0000
     10 C3        -5.2910   -4.3146   -0.1954 C.ar      1 RES1    0.0000
     11 H4        -6.1991   -4.4491   -0.0471 H         1 RES1    0.0000
     12 C4        -4.8290   -3.0782   -0.5746 C.ar      1 RES1    0.0000
     13 H5        -5.4294   -2.3750   -0.6781 H         1 RES1    0.0000
     14 C5        -3.4828   -2.8658   -0.8056 C.ar      1 RES1    0.0000
     15 H6        -3.1777   -2.0214   -1.0481 H         1 RES1    0.0000
     16 C6        -2.5882   -3.9150   -0.6735 C.ar      1 RES1    0.0000
     17 C7        -1.1421   -3.8154   -0.9975 C.2       1 RES1    0.0000
     18 C8        -0.4435   -2.4605   -1.1286 C.3       1 RES1    0.0000
     19 C9         1.0455   -2.3975   -0.7516 C.3       1 RES1    0.0000
     20 C10        1.0867   -1.0023   -0.1712 C.2       1 RES1    0.0000
     21 C11        2.2739   -0.1965    0.1839 C.ar      1 RES1    0.0000
     22 C12        3.2657    0.0846   -0.7344 C.ar      1 RES1    0.0000
     23 H7         3.2152   -0.2623   -1.5951 H         1 RES1    0.0000
     24 C13        4.3356    0.8829   -0.3712 C.ar      1 RES1    0.0000
     25 H8         4.9989    1.0709   -0.9952 H         1 RES1    0.0000
     26 C14        4.4333    1.4000    0.8918 C.ar      1 RES1    0.0000
     27 H9         5.1547    1.9387    1.1240 H         1 RES1    0.0000
     28 C15        3.4551    1.1123    1.8124 C.ar      1 RES1    0.0000
     29 H10        3.5186    1.4554    2.6743 H         1 RES1    0.0000
     30 C16        2.3695    0.3112    1.4687 C.ar      1 RES1    0.0000
     31 H11        1.7115    0.1194    2.0974 H         1 RES1    0.0000
     32 C17        1.9906   -2.7031   -1.9158 C.3       1 RES1    0.0000
     33 H12        1.8538   -2.0600   -2.6157 H         1 RES1    0.0000
     34 H13        1.8109   -3.5841   -2.2514 H         1 RES1    0.0000
     35 H14        2.8998   -2.6552   -1.6112 H         1 RES1    0.0000
     36 C18        1.3902   -3.3236    0.4333 C.3       1 RES1    0.0000
     37 H15        2.2327   -3.0604    0.8102 H         1 RES1    0.0000
     38 H16        1.4483   -4.2309    0.1241 H         1 RES1    0.0000
     39 H17        0.7051   -3.2559    1.1021 H         1 RES1    0.0000
@<TRIPOS>BOND
     1    1   17 2
     2    2    3 1
     3    4    5 1
     4    5   20 2
     5    6    7 1
     6    8    6 ar
     7    9    8 1
     8   10    8 ar
     9   11   10 1
    10   12   10 ar
    11   13   12 1
    12   14   12 ar
    13   15   14 1
    14   16    6 ar
    15   17   16 1
    16   18    2 1
    17   19   18 1
    18   20   19 1
    19   21   20 1
    20   22   21 ar
    21   23   22 1
    22   24   22 ar
    23   25   24 1
    24   26   24 ar
    25   27   26 1
    26   28   26 ar
    27   29   28 1
    28   30   21 ar
    29   31   30 1
    30   32   19 1
    31   33   32 1
    32   34   32 1
    33   35   32 1
    34   36   19 1
    35   37   36 1
    36   38   36 1
    37   39   36 1
    38    4   18 1
    39   14   16 ar
    40   17   18 1
    41   28   30 ar
@<TRIPOS>SUBSTRUCTURE
     1 RES1 1

@<TRIPOS>CRYSIN
  10.8566   10.8566   11.4924  90.0000  90.0000 120.0000 145 1

