# MOL2 file generated by ConQuest
# Please check atom types

@<TRIPOS>MOLECULE
UREXOF
    34    35     1
SMALL
NO_CHARGES
****
Generated from CSD

@<TRIPOS>ATOM
      1 C1         1.7916    5.8244   -0.0506 C.ar      1 RES1    0.0000
      2 C2         1.8698    5.4961   -1.3850 C.ar      1 RES1    0.0000
      3 H1         1.7955    4.6087   -1.6543 H         1 RES1    0.0000
      4 C3         2.0596    6.4919   -2.3234 C.ar      1 RES1    0.0000
      5 H2         2.1074    6.2808   -3.2289 H         1 RES1    0.0000
      6 C4         2.1783    7.8101   -1.9044 C.ar      1 RES1    0.0000
      7 C5         2.1217    8.1106   -0.5563 C.ar      1 RES1    0.0000
      8 H3         2.2178    8.9947   -0.2830 H         1 RES1    0.0000
      9 C6         1.9263    7.1232    0.3974 C.ar      1 RES1    0.0000
     10 C7         1.8653    7.4503    1.8708 C.3       1 RES1    0.0000
     11 H4         2.6642    7.9765    2.0828 H         1 RES1    0.0000
     12 C8         1.9397    6.1858    2.6852 C.2       1 RES1    0.0000
     13 C9         1.6839    4.9179    2.1456 C.2       1 RES1    0.0000
     14 C10        1.3423    2.4953    2.1777 C.3       1 RES1    0.0000
     15 H5         0.5227    2.5053    1.6782 H         1 RES1    0.0000
     16 H6         1.2941    1.8193    2.8582 H         1 RES1    0.0000
     17 H7         2.0749    2.3043    1.5865 H         1 RES1    0.0000
     18 C11        0.6356    8.3279    2.2251 C.3       1 RES1    0.0000
     19 H8         0.7224    8.6540    3.1352 H         1 RES1    0.0000
     20 H9         0.6040    9.0947    1.6324 H         1 RES1    0.0000
     21 C12        2.4006    8.6455   -4.1364 C.3       1 RES1    0.0000
     22 H10        3.1335    8.0614   -4.3450 H         1 RES1    0.0000
     23 H11        2.5129    9.4788   -4.6002 H         1 RES1    0.0000
     24 H12        1.5766    8.2360   -4.4108 H         1 RES1    0.0000
     25 N1         1.5465    3.7902    2.7968 N.3       1 RES1    0.0000
     26 H13        1.5793    3.8198    3.6554 H         1 RES1    0.0000
     27 N2         2.2210    6.3271    4.0204 N.pl3     1 RES1    0.0000
     28 N3        -0.6190    7.5523    2.0964 N.pl3     1 RES1    0.0000
     29 O1         1.5407    4.7576    0.8236 O.3       1 RES1    0.0000
     30 O2         2.2577    5.3289    4.7905 O.2       1 RES1    0.0000
     31 O3         2.4473    7.4726    4.4658 O.2       1 RES1    0.0000
     32 O4        -1.0245    6.9482    3.0644 O.2       1 RES1    0.0000
     33 O5        -1.1661    7.5068    1.0079 O.2       1 RES1    0.0000
     34 O6         2.3683    8.8835   -2.7338 O.3       1 RES1    0.0000
@<TRIPOS>BOND
     1    1    2 ar
     2    2    3 1
     3    4    2 ar
     4    5    4 1
     5    6    4 ar
     6    7    6 ar
     7    8    7 1
     8    9    1 ar
     9   10    9 1
    10   11   10 1
    11   12   10 1
    12   13   12 2
    13   14   15 1
    14   16   14 1
    15   17   14 1
    16   18   10 1
    17   19   18 1
    18   20   18 1
    19   21   22 1
    20   23   21 1
    21   24   21 1
    22   25   13 1
    23   26   25 1
    24   27   12 1
    25   28   18 1
    26   29    1 1
    27   30   27 2
    28   31   27 2
    29   32   28 2
    30   33   28 2
    31   34    6 1
    32    7    9 ar
    33   13   29 1
    34   14   25 1
    35   21   34 1
@<TRIPOS>SUBSTRUCTURE
     1 RES1 1

@<TRIPOS>CRYSIN
   6.8354    9.4363   19.9332  90.0000  90.7770  90.0000 231 1

