# MOL2 file generated by ConQuest
# Please check atom types

@<TRIPOS>MOLECULE
URIBUT
    30    32     1
SMALL
NO_CHARGES
****
Generated from CSD

@<TRIPOS>ATOM
      1 N1         1.4591    7.1054    5.0629 N.3       1 RES1    0.0000
      2 O1         4.6300    5.4202    7.8606 O.3       1 RES1    0.0000
      3 O2         2.4954    4.8900    7.6363 O.2       1 RES1    0.0000
      4 O3         2.5236    6.1237    5.1717 O.3       1 RES1    0.0000
      5 O4         2.8422    8.7110    3.8583 O.3       1 RES1    0.0000
      6 C1         4.7223    4.5310    8.9976 C.3       1 RES1    0.0000
      7 H1         4.0391    4.7528    9.6338 H         1 RES1    0.0000
      8 H2         5.5847    4.6249    9.4080 H         1 RES1    0.0000
      9 H3         4.6046    3.6241    8.7046 H         1 RES1    0.0000
     10 C2         3.4626    5.4913    7.2685 C.2       1 RES1    0.0000
     11 C3         3.4701    6.5289    6.1622 C.3       1 RES1    0.0000
     12 C4         3.0197    7.8801    6.6870 C.3       1 RES1    0.0000
     13 C5         1.5438    7.8950    6.3031 C.3       1 RES1    0.0000
     14 C6         0.8821    9.2703    6.1629 C.3       1 RES1    0.0000
     15 C7         1.0195    9.8794    4.7704 C.3       1 RES1    0.0000
     16 C8         0.5131    8.8616    3.7544 C.3       1 RES1    0.0000
     17 C9         1.6675    7.8808    3.8520 C.3       1 RES1    0.0000
     18 C10        2.4482   10.0308    4.3065 C.3       1 RES1    0.0000
     19 H4         4.3292    6.6029    5.7803 H         1 RES1    0.0000
     20 H5         3.5134    8.5432    6.2591 H         1 RES1    0.0000
     21 H6         3.1696    7.9320    7.6141 H         1 RES1    0.0000
     22 H7         1.0667    7.4060    6.9676 H         1 RES1    0.0000
     23 H8        -0.0480    9.1687    6.3494 H         1 RES1    0.0000
     24 H9         1.2853    9.8297    6.8024 H         1 RES1    0.0000
     25 H10        0.5568   10.7181    4.7143 H         1 RES1    0.0000
     26 H11       -0.3325    8.4508    4.0110 H         1 RES1    0.0000
     27 H12        0.4840    9.2682    2.8392 H         1 RES1    0.0000
     28 H13        1.7601    7.2354    3.1270 H         1 RES1    0.0000
     29 H14        2.5384   10.6684    3.5799 H         1 RES1    0.0000
     30 H15        3.0485   10.3130    5.0369 H         1 RES1    0.0000
@<TRIPOS>BOND
     1    1    4 1
     2    2    6 1
     3    3   10 2
     4    4   11 1
     5    5   17 1
     6    6    7 1
     7    8    6 1
     8    9    6 1
     9   10    2 1
    10   11   10 1
    11   12   11 1
    12   13    1 1
    13   14   13 1
    14   15   14 1
    15   16   15 1
    16   17    1 1
    17   18    5 1
    18   19   11 1
    19   20   12 1
    20   21   12 1
    21   22   13 1
    22   23   14 1
    23   24   14 1
    24   25   15 1
    25   26   16 1
    26   27   16 1
    27   28   17 1
    28   29   18 1
    29   30   18 1
    30   12   13 1
    31   15   18 1
    32   16   17 1
@<TRIPOS>SUBSTRUCTURE
     1 RES1 1

@<TRIPOS>CRYSIN
  11.2130    7.1075   12.9100  90.0000  91.5460  90.0000  14 1

