# MOL2 file generated by ConQuest
# Please check atom types

@<TRIPOS>MOLECULE
URIYUR
    55    59     1
SMALL
NO_CHARGES
****
Generated from CSD

@<TRIPOS>ATOM
      1 O1         3.2492    7.3013   13.7478 O.3       1 RES1    0.0000
      2 N1         2.3945    5.1184   13.2723 N.3       1 RES1    0.0000
      3 N2         3.1962    7.8585   12.4168 N.2       1 RES1    0.0000
      4 C1         0.3543    5.8680   12.5625 C.ar      1 RES1    0.0000
      5 C2         4.2980    2.2606   14.8810 C.ar      1 RES1    0.0000
      6 C3         3.2853    3.2007   14.6119 C.ar      1 RES1    0.0000
      7 C4         0.7854    6.8357   13.6524 C.3       1 RES1    0.0000
      8 C5         1.3304    4.8710   12.4215 C.ar      1 RES1    0.0000
      9 C6        -0.7874    5.8457   11.7873 C.ar      1 RES1    0.0000
     10 H1        -1.4292    6.5135   11.8725 H         1 RES1    0.0000
     11 C7         2.1270    3.2105   15.3866 C.ar      1 RES1    0.0000
     12 H2         1.4586    3.8275   15.1921 H         1 RES1    0.0000
     13 C8         1.9002    9.0442   10.8458 C.ar      1 RES1    0.0000
     14 C9        -0.9644    4.8000   10.8694 C.ar      1 RES1    0.0000
     15 H3        -1.7298    4.7692   10.3413 H         1 RES1    0.0000
     16 C10        2.0447    8.3662   12.1539 C.2       1 RES1    0.0000
     17 C11        3.5027    4.2187   13.5046 C.3       1 RES1    0.0000
     18 H4         4.2874    4.7462   13.7217 H         1 RES1    0.0000
     19 H5         3.6899    3.7422   12.6806 H         1 RES1    0.0000
     20 C12        1.9400    2.3228   16.4459 C.ar      1 RES1    0.0000
     21 C13        4.0998    1.3634   15.9273 C.ar      1 RES1    0.0000
     22 H6         4.7534    0.7284   16.1133 H         1 RES1    0.0000
     23 C14        0.7197    8.9410   10.1124 C.ar      1 RES1    0.0000
     24 H7         0.0017    8.4628   10.4594 H         1 RES1    0.0000
     25 C15        5.5641    2.2189   14.0657 C.3       1 RES1    0.0000
     26 H8         5.3535    1.9825   13.1586 H         1 RES1    0.0000
     27 H9         6.1616    1.5650   14.4361 H         1 RES1    0.0000
     28 H10        5.9839    3.0824   14.0815 H         1 RES1    0.0000
     29 C16        0.9088    8.2751   13.1325 C.3       1 RES1    0.0000
     30 H11        0.0817    8.5389   12.6998 H         1 RES1    0.0000
     31 H12        1.0676    8.8790   13.8747 H         1 RES1    0.0000
     32 C17        0.0034    3.8109   10.7487 C.ar      1 RES1    0.0000
     33 H13       -0.1271    3.1211   10.1397 H         1 RES1    0.0000
     34 C18        2.9436    1.3969   16.7017 C.ar      1 RES1    0.0000
     35 H14        2.8417    0.7909   17.3994 H         1 RES1    0.0000
     36 C19        1.1676    3.8260   11.5196 C.ar      1 RES1    0.0000
     37 H15        1.8112    3.1599   11.4327 H         1 RES1    0.0000
     38 C20        2.2143    6.3346   14.0177 C.3       1 RES1    0.0000
     39 H16        2.2327    6.1190   14.9731 H         1 RES1    0.0000
     40 C21       -0.1584    6.7816   14.8603 C.3       1 RES1    0.0000
     41 H17       -1.0399    7.0492   14.5907 H         1 RES1    0.0000
     42 H18        0.1613    7.3764   15.5432 H         1 RES1    0.0000
     43 H19       -0.1872    5.8860   15.2043 H         1 RES1    0.0000
     44 C22        2.9618    9.7904   10.3272 C.ar      1 RES1    0.0000
     45 H20        3.7544    9.8673   10.8071 H         1 RES1    0.0000
     46 C23        0.6094    9.5466    8.8678 C.ar      1 RES1    0.0000
     47 H21       -0.1725    9.4523    8.3721 H         1 RES1    0.0000
     48 C24        0.6998    2.3913   17.3005 C.3       1 RES1    0.0000
     49 H22        0.7861    3.1088   17.9330 H         1 RES1    0.0000
     50 H23        0.5891    1.5615   17.7713 H         1 RES1    0.0000
     51 H24       -0.0652    2.5471   16.7424 H         1 RES1    0.0000
     52 C25        2.8343   10.4170    9.0958 C.ar      1 RES1    0.0000
     53 H25        3.5384   10.9240    8.7597 H         1 RES1    0.0000
     54 C26        1.6640   10.2917    8.3636 C.ar      1 RES1    0.0000
     55 H26        1.5865   10.7070    7.5343 H         1 RES1    0.0000
@<TRIPOS>BOND
     1    1    3 1
     2    2    8 1
     3    3   16 2
     4    4    7 1
     5    5    6 ar
     6    6   11 ar
     7    7   29 1
     8    8    4 ar
     9    9    4 ar
    10   10    9 1
    11   11   12 1
    12   13   16 1
    13   14    9 ar
    14   15   14 1
    15   16   29 1
    16   17    2 1
    17   18   17 1
    18   19   17 1
    19   20   11 ar
    20   21    5 ar
    21   22   21 1
    22   23   13 ar
    23   24   23 1
    24   25    5 1
    25   26   25 1
    26   27   25 1
    27   28   25 1
    28   29   30 1
    29   31   29 1
    30   32   14 ar
    31   33   32 1
    32   34   20 ar
    33   35   34 1
    34   36    8 ar
    35   37   36 1
    36   38    1 1
    37   39   38 1
    38   40    7 1
    39   41   40 1
    40   42   40 1
    41   43   40 1
    42   44   13 ar
    43   45   44 1
    44   46   23 ar
    45   47   46 1
    46   48   20 1
    47   49   48 1
    48   50   48 1
    49   51   48 1
    50   52   44 ar
    51   53   52 1
    52   54   46 ar
    53   55   54 1
    54    2   38 1
    55    6   17 1
    56    7   38 1
    57   21   34 ar
    58   32   36 ar
    59   52   54 ar
@<TRIPOS>SUBSTRUCTURE
     1 RES1 1

@<TRIPOS>CRYSIN
   6.8190    8.4731   17.3870  91.1300  90.9780  96.9930   2 1

