# MOL2 file generated by ConQuest
# Please check atom types

@<TRIPOS>MOLECULE
URODAH
    82    89     1
SMALL
NO_CHARGES
****
Generated from CSD

@<TRIPOS>ATOM
      1 O1        14.4382   -5.2736   -2.4277 O.2       1 RES1    0.0000
      2 O2        13.9452   -7.2507   -1.7980 O.2       1 RES1    0.0000
      3 N1         4.8066   -0.5515    3.5673 N.pl3     1 RES1    0.0000
      4 N2         8.7343   -3.0885    0.4923 N.2       1 RES1    0.0000
      5 N3         9.0858   -4.2413    0.7954 N.2       1 RES1    0.0000
      6 N4        13.7067   -6.0686   -1.8650 N.pl3     1 RES1    0.0000
      7 C1         5.7447   -1.2271    2.7761 C.ar      1 RES1    0.0000
      8 C2         6.1389   -2.5260    3.1006 C.ar      1 RES1    0.0000
      9 C3         7.0854   -3.1883    2.3717 C.ar      1 RES1    0.0000
     10 C4         7.6702   -2.5735    1.2673 C.ar      1 RES1    0.0000
     11 C5         7.2552   -1.3002    0.9201 C.ar      1 RES1    0.0000
     12 C6         6.3142   -0.6269    1.6552 C.ar      1 RES1    0.0000
     13 C7        10.2600   -4.6674    0.0736 C.ar      1 RES1    0.0000
     14 C8        10.4820   -6.0114   -0.0514 C.ar      1 RES1    0.0000
     15 C9        11.5938   -6.4691   -0.7021 C.ar      1 RES1    0.0000
     16 C10       12.4998   -5.5634   -1.2089 C.ar      1 RES1    0.0000
     17 C11       12.3174   -4.2206   -1.0839 C.ar      1 RES1    0.0000
     18 C12       11.1716   -3.7617   -0.4367 C.ar      1 RES1    0.0000
     19 C13        6.0820    2.8645    4.2342 C.ar      1 RES1    0.0000
     20 C14        6.0781    1.5181    3.9282 C.ar      1 RES1    0.0000
     21 C15        4.8641    0.8522    3.7839 C.ar      1 RES1    0.0000
     22 C16        3.6699    1.5619    3.9248 C.ar      1 RES1    0.0000
     23 C17        3.6735    2.8925    4.2570 C.ar      1 RES1    0.0000
     24 C18        4.8787    3.5523    4.4245 C.ar      1 RES1    0.0000
     25 C19        5.1853    4.9316    4.8375 C.ar      1 RES1    0.0000
     26 C20        4.3567    5.9785    5.2023 C.ar      1 RES1    0.0000
     27 C21        4.9329    7.1545    5.6492 C.ar      1 RES1    0.0000
     28 C22        6.2935    7.2835    5.7160 C.ar      1 RES1    0.0000
     29 C23        7.1308    6.2597    5.3187 C.ar      1 RES1    0.0000
     30 C24        6.5768    5.0716    4.8879 C.ar      1 RES1    0.0000
     31 C25        7.2721    3.7860    4.4574 C.3       1 RES1    0.0000
     32 C26        8.0675    3.9784    3.1525 C.3       1 RES1    0.0000
     33 C27        8.1987    3.2626    5.5567 C.3       1 RES1    0.0000
     34 C28        2.6413   -1.7968    6.3047 C.ar      1 RES1    0.0000
     35 C29        3.6154   -1.0774    5.6418 C.ar      1 RES1    0.0000
     36 C30        3.8120   -1.2965    4.2824 C.ar      1 RES1    0.0000
     37 C31        3.0364   -2.2290    3.6092 C.ar      1 RES1    0.0000
     38 C32        2.0736   -2.9655    4.2705 C.ar      1 RES1    0.0000
     39 C33        1.8799   -2.7440    5.6252 C.ar      1 RES1    0.0000
     40 C34        0.9505   -3.3709    6.5799 C.ar      1 RES1    0.0000
     41 C35        0.0077   -4.3631    6.4009 C.ar      1 RES1    0.0000
     42 C36       -0.7573   -4.7465    7.4969 C.ar      1 RES1    0.0000
     43 C37       -0.5730   -4.1610    8.7195 C.ar      1 RES1    0.0000
     44 C38        0.3652   -3.1725    8.8959 C.ar      1 RES1    0.0000
     45 C39        1.1423   -2.7720    7.8236 C.ar      1 RES1    0.0000
     46 C40        2.2352   -1.7250    7.7684 C.3       1 RES1    0.0000
     47 C41        1.7170   -0.3263    8.1390 C.3       1 RES1    0.0000
     48 C42        3.4082   -2.1121    8.6750 C.3       1 RES1    0.0000
     49 H1         5.7383   -2.9606    3.8443 H         1 RES1    0.0000
     50 H2         7.3460   -4.0685    2.6182 H         1 RES1    0.0000
     51 H3         7.6320   -0.8826    0.1541 H         1 RES1    0.0000
     52 H4         6.0502    0.2496    1.4007 H         1 RES1    0.0000
     53 H5         9.8602   -6.6286    0.3168 H         1 RES1    0.0000
     54 H6        11.7402   -7.4028   -0.8031 H         1 RES1    0.0000
     55 H7        12.9568   -3.6095   -1.4316 H         1 RES1    0.0000
     56 H8        11.0188   -2.8280   -0.3459 H         1 RES1    0.0000
     57 H9         6.8970    1.0494    3.8169 H         1 RES1    0.0000
     58 H10        2.8418    1.1151    3.7895 H         1 RES1    0.0000
     59 H11        2.8536    3.3587    4.3717 H         1 RES1    0.0000
     60 H12        3.4120    5.8921    5.1475 H         1 RES1    0.0000
     61 H13        4.3775    7.8800    5.9112 H         1 RES1    0.0000
     62 H14        6.6693    8.0931    6.0430 H         1 RES1    0.0000
     63 H15        8.0748    6.3717    5.3427 H         1 RES1    0.0000
     64 H16        8.3746    3.1347    2.8409 H         1 RES1    0.0000
     65 H17        7.5082    4.3740    2.4950 H         1 RES1    0.0000
     66 H18        8.8130    4.5457    3.3169 H         1 RES1    0.0000
     67 H19        7.7201    3.2053    6.3752 H         1 RES1    0.0000
     68 H20        8.5192    2.4007    5.3170 H         1 RES1    0.0000
     69 H21        8.9335    3.8554    5.6595 H         1 RES1    0.0000
     70 H22        4.1434   -0.4395    6.1081 H         1 RES1    0.0000
     71 H23        3.1701   -2.3641    2.6782 H         1 RES1    0.0000
     72 H24        1.5529   -3.6107    3.8066 H         1 RES1    0.0000
     73 H25       -0.1137   -4.7733    5.5516 H         1 RES1    0.0000
     74 H26       -1.4153   -5.4234    7.3941 H         1 RES1    0.0000
     75 H27       -1.1031   -4.4410    9.4575 H         1 RES1    0.0000
     76 H28        0.4780   -2.7659    9.7469 H         1 RES1    0.0000
     77 H29        2.4233    0.3043    8.0568 H         1 RES1    0.0000
     78 H30        1.0085   -0.0864    7.5534 H         1 RES1    0.0000
     79 H31        1.3999   -0.3336    9.0346 H         1 RES1    0.0000
     80 H32        3.7762   -2.9375    8.3822 H         1 RES1    0.0000
     81 H33        4.0751   -1.4377    8.6356 H         1 RES1    0.0000
     82 H34        3.1014   -2.2034    9.5689 H         1 RES1    0.0000
@<TRIPOS>BOND
     1    1    6 2
     2    2    6 2
     3    3    7 1
     4    4    5 2
     5    5   13 1
     6    6   16 1
     7    7    8 ar
     8    8    9 ar
     9    9   10 ar
    10   10    4 1
    11   11   10 ar
    12   12    7 ar
    13   13   14 ar
    14   14   15 ar
    15   15   16 ar
    16   16   17 ar
    17   17   18 ar
    18   18   13 ar
    19   19   20 ar
    20   20   21 ar
    21   21    3 1
    22   22   21 ar
    23   23   22 ar
    24   24   19 ar
    25   25   24 1
    26   26   25 ar
    27   27   26 ar
    28   28   27 ar
    29   29   28 ar
    30   30   25 ar
    31   31   19 1
    32   32   31 1
    33   33   31 1
    34   34   35 ar
    35   35   36 ar
    36   36    3 1
    37   37   36 ar
    38   38   37 ar
    39   39   34 ar
    40   40   39 1
    41   41   40 ar
    42   42   41 ar
    43   43   42 ar
    44   44   43 ar
    45   45   40 ar
    46   46   34 1
    47   47   46 1
    48   48   46 1
    49   49    8 1
    50   50    9 1
    51   51   11 1
    52   52   12 1
    53   53   14 1
    54   54   15 1
    55   55   17 1
    56   56   18 1
    57   57   20 1
    58   58   22 1
    59   59   23 1
    60   60   26 1
    61   61   27 1
    62   62   28 1
    63   63   29 1
    64   64   32 1
    65   65   32 1
    66   66   32 1
    67   67   33 1
    68   68   33 1
    69   69   33 1
    70   70   35 1
    71   71   37 1
    72   72   38 1
    73   73   41 1
    74   74   42 1
    75   75   43 1
    76   76   44 1
    77   77   47 1
    78   78   47 1
    79   79   47 1
    80   80   48 1
    81   81   48 1
    82   82   48 1
    83   11   12 ar
    84   23   24 ar
    85   29   30 ar
    86   30   31 1
    87   38   39 ar
    88   44   45 ar
    89   45   46 1
@<TRIPOS>SUBSTRUCTURE
     1 RES1 1

@<TRIPOS>CRYSIN
  16.5256   12.1737   17.4298  90.0000 100.7497  90.0000  14 2

