# MOL2 file generated by ConQuest
# Please check atom types

@<TRIPOS>MOLECULE
USAGEB
    62    67     1
SMALL
NO_CHARGES
****
Generated from CSD

@<TRIPOS>ATOM
      1 O1        -1.7144    6.2725    4.4993 O.3       1 RES1    0.0000
      2 O2        -0.0260    5.1872    2.2989 O.2       1 RES1    0.0000
      3 O3        -3.0281    6.2813    2.6280 O.3       1 RES1    0.0000
      4 N1         1.2364    6.9741    2.9805 N.am      1 RES1    0.0000
      5 C1        -1.8532    7.8047    1.1734 C.ar      1 RES1    0.0000
      6 C2         1.0236    8.1447    3.7480 C.ar      1 RES1    0.0000
      7 N2        -0.8792    8.8999   -2.7693 N.pl3     1 RES1    0.0000
      8 C3        -1.1997    8.5190   -1.3872 C.ar      1 RES1    0.0000
      9 C4        -0.3119    8.2356    4.1062 C.ar      1 RES1    0.0000
     10 C5        -1.1568    9.4782   -0.4074 C.ar      1 RES1    0.0000
     11 H1        -0.9152   10.3547   -0.6059 H         1 RES1    0.0000
     12 C6        -1.4835    9.1039    0.8819 C.ar      1 RES1    0.0000
     13 H2        -1.4527    9.7353    1.5635 H         1 RES1    0.0000
     14 O4        -0.4598    8.0353   -3.5295 O.2       1 RES1    0.0000
     15 C7        -1.0501    7.0733    3.5227 C.3       1 RES1    0.0000
     16 C8        -3.9884    5.5565    4.7377 C.ar      1 RES1    0.0000
     17 C9        -2.2183    7.4420    2.5879 C.3       1 RES1    0.0000
     18 H3        -2.7167    8.1869    2.9857 H         1 RES1    0.0000
     19 C10        2.8736    6.8830    1.0916 C.ar      1 RES1    0.0000
     20 C11       -2.7859    5.5808    3.8490 C.3       1 RES1    0.0000
     21 H4        -2.5085    4.6625    3.6494 H         1 RES1    0.0000
     22 C12       -1.8825    6.8607    0.1546 C.ar      1 RES1    0.0000
     23 H5        -2.1344    5.9856    0.3427 H         1 RES1    0.0000
     24 C13       -0.7557    9.3046    4.8595 C.ar      1 RES1    0.0000
     25 H6        -1.6542    9.3820    5.0845 H         1 RES1    0.0000
     26 C14        0.0857    6.2663    2.8365 C.2       1 RES1    0.0000
     27 O5        -1.0150   10.0741   -3.0822 O.2       1 RES1    0.0000
     28 C15       -1.5404    7.2112   -1.1304 C.ar      1 RES1    0.0000
     29 H7        -1.5392    6.5777   -1.8112 H         1 RES1    0.0000
     30 C16        1.9384    9.0901    4.1460 C.ar      1 RES1    0.0000
     31 H8         2.8338    9.0270    3.9023 H         1 RES1    0.0000
     32 C17        1.4754   10.1458    4.9274 C.ar      1 RES1    0.0000
     33 H9         2.0768   10.7907    5.2219 H         1 RES1    0.0000
     34 C18        0.1546   10.2562    5.2724 C.ar      1 RES1    0.0000
     35 H10       -0.1314   10.9759    5.7879 H         1 RES1    0.0000
     36 O6        -7.2759    5.5450    7.2573 O.3       1 RES1    0.0000
     37 C19       -4.5705    6.7287    5.2067 C.ar      1 RES1    0.0000
     38 H11       -4.2142    7.5505    4.9574 H         1 RES1    0.0000
     39 C20        2.5268    6.4844    2.5082 C.3       1 RES1    0.0000
     40 H12        2.5310    5.5159    2.5660 H         1 RES1    0.0000
     41 H13        3.2198    6.8160    3.1013 H         1 RES1    0.0000
     42 C21        4.0687    6.4438    0.5534 C.ar      1 RES1    0.0000
     43 H14        4.6520    5.9469    1.0808 H         1 RES1    0.0000
     44 C22       -5.6642    6.6908    6.0317 C.ar      1 RES1    0.0000
     45 H15       -6.0467    7.4841    6.3309 H         1 RES1    0.0000
     46 C23       -6.1983    5.4840    6.4197 C.ar      1 RES1    0.0000
     47 C24       -5.6379    4.3202    5.9818 C.ar      1 RES1    0.0000
     48 H16       -5.9875    3.5020    6.2501 H         1 RES1    0.0000
     49 C25       -4.5399    4.3705    5.1305 C.ar      1 RES1    0.0000
     50 H17       -4.1703    3.5752    4.8201 H         1 RES1    0.0000
     51 C26        4.4137    6.7288   -0.7502 C.ar      1 RES1    0.0000
     52 H18        5.2167    6.4155   -1.0962 H         1 RES1    0.0000
     53 C27       -7.5937    4.4071    8.0266 C.3       1 RES1    0.0000
     54 H19       -7.9667    3.7301    7.4567 H         1 RES1    0.0000
     55 H20       -8.2324    4.6452    8.7018 H         1 RES1    0.0000
     56 H21       -6.7970    4.0705    8.4438 H         1 RES1    0.0000
     57 C28        2.4154    7.9573   -0.9961 C.ar      1 RES1    0.0000
     58 H22        1.8586    8.4934   -1.5121 H         1 RES1    0.0000
     59 C29        2.0662    7.6582    0.3037 C.ar      1 RES1    0.0000
     60 H23        1.2687    7.9880    0.6508 H         1 RES1    0.0000
     61 C30        3.5801    7.4687   -1.5327 C.ar      1 RES1    0.0000
     62 H24        3.7978    7.6399   -2.4197 H         1 RES1    0.0000
@<TRIPOS>BOND
     1    1   15 1
     2    2   26 2
     3    3   17 1
     4    4    6 1
     5    5   12 ar
     6    6    9 ar
     7    7    8 1
     8    8   10 ar
     9    9   15 1
    10   10   11 1
    11   12   10 ar
    12   13   12 1
    13   14    7 2
    14   15   17 1
    15   16   20 1
    16   17    5 1
    17   18   17 1
    18   19   39 1
    19   20    1 1
    20   21   20 1
    21   22    5 ar
    22   23   22 1
    23   24    9 ar
    24   25   24 1
    25   26    4 1
    26   27    7 2
    27   28    8 ar
    28   29   28 1
    29   30    6 ar
    30   31   30 1
    31   32   30 ar
    32   33   32 1
    33   34   24 ar
    34   35   34 1
    35   36   46 1
    36   37   16 ar
    37   38   37 1
    38   39    4 1
    39   40   39 1
    40   41   39 1
    41   42   19 ar
    42   43   42 1
    43   44   37 ar
    44   45   44 1
    45   46   44 ar
    46   47   46 ar
    47   48   47 1
    48   49   16 ar
    49   50   49 1
    50   51   42 ar
    51   52   51 1
    52   53   36 1
    53   54   53 1
    54   55   53 1
    55   56   53 1
    56   57   58 1
    57   59   19 ar
    58   60   59 1
    59   61   51 ar
    60   62   61 1
    61    3   20 1
    62   15   26 1
    63   22   28 ar
    64   32   34 ar
    65   47   49 ar
    66   57   59 ar
    67   57   61 ar
@<TRIPOS>SUBSTRUCTURE
     1 RES1 1

@<TRIPOS>CRYSIN
   9.8930   10.2390   13.6820  93.8410 107.8300 106.6260   2 1

