# MOL2 file generated by ConQuest
# Please check atom types

@<TRIPOS>MOLECULE
USAHEC
    43    46     1
SMALL
NO_CHARGES
****
Generated from CSD

@<TRIPOS>ATOM
      1 N1        -4.5064   -0.0923   13.0950 N.pl3     1 RES1    0.0000
      2 O1        -5.4401    0.5569   13.5533 O.2       1 RES1    0.0000
      3 O2        -4.0845   -1.1115   13.6278 O.2       1 RES1    0.0000
      4 C1        -3.8682    0.3777   11.8565 C.ar      1 RES1    0.0000
      5 C2        -4.3557    1.5109   11.2207 C.ar      1 RES1    0.0000
      6 H1        -5.0709    1.9893   11.5739 H         1 RES1    0.0000
      7 C3        -3.7417    1.9064   10.0421 C.ar      1 RES1    0.0000
      8 H2        -4.0414    2.6702    9.6050 H         1 RES1    0.0000
      9 C4        -2.6850    1.1810    9.5011 C.ar      1 RES1    0.0000
     10 C5        -2.2140    0.0673   10.1820 C.ar      1 RES1    0.0000
     11 H3        -1.4900   -0.4089    9.8413 H         1 RES1    0.0000
     12 C6        -2.8123   -0.3427   11.3639 C.ar      1 RES1    0.0000
     13 H4        -2.5022   -1.0942   11.8162 H         1 RES1    0.0000
     14 C7        -2.0486    1.6177    8.2050 C.3       1 RES1    0.0000
     15 H5        -2.7310    1.8347    7.5513 H         1 RES1    0.0000
     16 H6        -1.4960    2.4021    8.3480 H         1 RES1    0.0000
     17 O3        -1.2548    0.5300    7.7506 O.3       1 RES1    0.0000
     18 C8        -0.3580    0.7110    6.7211 C.ar      1 RES1    0.0000
     19 C9        -0.3361    1.7796    5.8451 C.ar      1 RES1    0.0000
     20 H7        -0.9481    2.4733    5.9399 H         1 RES1    0.0000
     21 C10        0.6042    1.8163    4.8210 C.ar      1 RES1    0.0000
     22 H8         0.6068    2.5345    4.2315 H         1 RES1    0.0000
     23 C11        1.5369    0.8016    4.6644 C.ar      1 RES1    0.0000
     24 C12        1.5116   -0.2715    5.5728 C.ar      1 RES1    0.0000
     25 H9         2.1323   -0.9591    5.4916 H         1 RES1    0.0000
     26 C13        0.5746   -0.3110    6.5799 C.ar      1 RES1    0.0000
     27 H10        0.5649   -1.0280    7.1727 H         1 RES1    0.0000
     28 N2         2.5744    0.8000    3.6721 N.3       1 RES1    0.0000
     29 O4         2.4347    1.9970    2.8533 O.3       1 RES1    0.0000
     30 C14        2.5305   -0.4050    2.7643 C.3       1 RES1    0.0000
     31 H11        2.6463   -1.2305    3.2804 H         1 RES1    0.0000
     32 C15        1.2049   -0.3989    2.0682 C.2       1 RES1    0.0000
     33 H12        0.6043   -1.1081    2.0991 H         1 RES1    0.0000
     34 C16        0.9769    0.7237    1.4012 C.2       1 RES1    0.0000
     35 H13        0.1834    0.9040    0.9511 H         1 RES1    0.0000
     36 C17        2.1334    1.6667    1.4521 C.3       1 RES1    0.0000
     37 H14        1.9260    2.4828    0.9511 H         1 RES1    0.0000
     38 C18        3.3789    1.0025    0.8811 C.3       1 RES1    0.0000
     39 H15        4.1334    1.6116    0.9178 H         1 RES1    0.0000
     40 H16        3.2319    0.7482   -0.0424 H         1 RES1    0.0000
     41 C19        3.6562   -0.2453    1.7423 C.3       1 RES1    0.0000
     42 H17        3.7031   -1.0325    1.1783 H         1 RES1    0.0000
     43 H18        4.5060   -0.1485    2.1991 H         1 RES1    0.0000
@<TRIPOS>BOND
     1    1    2 2
     2    3    1 2
     3    4    1 1
     4    5    4 ar
     5    6    5 1
     6    7    5 ar
     7    8    7 1
     8    9    7 ar
     9   10    9 ar
    10   11   10 1
    11   12    4 ar
    12   13   12 1
    13   14    9 1
    14   15   14 1
    15   16   14 1
    16   17   14 1
    17   18   17 1
    18   19   18 ar
    19   20   19 1
    20   21   19 ar
    21   22   21 1
    22   23   21 ar
    23   24   23 ar
    24   25   24 1
    25   26   18 ar
    26   27   26 1
    27   28   23 1
    28   29   28 1
    29   30   28 1
    30   31   30 1
    31   32   30 1
    32   33   32 1
    33   34   32 2
    34   35   34 1
    35   36   29 1
    36   37   36 1
    37   38   36 1
    38   39   38 1
    39   40   38 1
    40   41   30 1
    41   42   41 1
    42   43   41 1
    43   10   12 ar
    44   24   26 ar
    45   34   36 1
    46   38   41 1
@<TRIPOS>SUBSTRUCTURE
     1 RES1 1

@<TRIPOS>CRYSIN
   9.5280    5.5630   30.5600  90.0000  97.6200  90.0000 231 1

