# MOL2 file generated by ConQuest
# Please check atom types

@<TRIPOS>MOLECULE
USAXOC
    20    16     2
SMALL
NO_CHARGES
****
Generated from CSD

@<TRIPOS>ATOM
      1 N1         1.5825   -2.0094    6.8495 N.2       1 RES1    0.0000
      2 O1         2.2943   -2.5162    7.7045 O.2       1 RES1    0.0000
      3 O2         0.4259   -2.3098    6.6194 O.2       1 RES1    0.0000
      4 C1         2.2000   -0.9943    6.0896 C.2       1 RES1    0.0000
      5 C2         1.4905   -0.5317    4.9989 C.2       1 RES1    0.0000
      6 H1         0.6648   -0.8997    4.7778 H         1 RES1    0.0000
      7 C3         3.4361   -0.4849    6.4541 C.2       1 RES1    0.0000
      8 H2         3.8901   -0.8230    7.1919 H         1 RES1    0.0000
      9 N2         3.5165    2.1802    3.5729 Du        2 SUP2    0.0000
     10 O3         4.6518    2.6641    3.8415 Du        2 SUP2    0.0000
     11 N3         4.1497    2.1349    4.0031 Du        2 SUP2    0.0000
     12 O4         3.4462    2.5823    3.0497 Du        2 SUP2    0.0000
     13 N1B        3.8844    2.0094    3.8512 N.2       1 RES1    0.0000
     14 O1B        3.1726    2.5162    2.9962 O.2       1 RES1    0.0000
     15 O2B        5.0410    2.3098    4.0812 O.2       1 RES1    0.0000
     16 C1B        3.2669    0.9943    4.6110 C.2       1 RES1    0.0000
     17 C2B        3.9765    0.5317    5.7017 C.2       1 RES1    0.0000
     18 H1B        4.8021    0.8997    5.9228 H         1 RES1    0.0000
     19 C3B        2.0309    0.4849    4.2466 C.2       1 RES1    0.0000
     20 H2B        1.5768    0.8230    3.5087 H         1 RES1    0.0000
@<TRIPOS>BOND
     1    1    2 1
     2    3    1 1
     3    4    1 1
     4    5    4 1
     5    6    5 1
     6    7    4 1
     7    8    7 1
     8   13   14 1
     9   15   13 1
    10   16   13 1
    11   17    7 1
    12   18   17 1
    13   19    5 1
    14   20   19 1
    15   16   17 1
    16   16   19 1
@<TRIPOS>SUBSTRUCTURE
     1 RES1 1
     2 SUP2 9

@<TRIPOS>CRYSIN
   5.8638    5.0832   10.7080  90.0000  92.1240  90.0000 231 1

