# MOL2 file generated by ConQuest
# Please check atom types

@<TRIPOS>MOLECULE
USIKOY
    21    21     1
SMALL
USER_CHARGES
****
Generated from CSD

@<TRIPOS>ATOM
      1 O1         1.5128    9.5720   -1.1434 O.2       1 RES1   -1.0000
      2 N1         1.5223    9.2687    2.2825 N.2       1 RES1    0.0000
      3 N2         1.4661    8.0448    1.8030 N.3       1 RES1    0.0000
      4 N3         1.4616    7.9470    0.4784 N.2       1 RES1    0.0000
      5 N4         1.5098    9.2219    0.0776 N.pl3     1 RES1    1.0000
      6 C1         1.5443   10.0148    1.1900 C.2       1 RES1    0.0000
      7 C2         1.6029   11.4376    1.1117 C.1       1 RES1    0.0000
      8 N5         1.6436   12.5767    1.0279 N.1       1 RES1    0.0000
      9 C3         1.5026    6.8305    2.6935 C.3       1 RES1    0.0000
     10 C4         2.9568    6.6137    3.0691 C.3       1 RES1    0.0000
     11 H1         3.4801    6.4352    2.2594 H         1 RES1    0.0000
     12 H2         3.0266    5.8496    3.6784 H         1 RES1    0.0000
     13 H3         3.3034    7.4169    3.5109 H         1 RES1    0.0000
     14 C5         0.6453    7.1523    3.9111 C.3       1 RES1    0.0000
     15 H4         1.0495    7.8921    4.4090 H         1 RES1    0.0000
     16 H5         0.5884    6.3634    4.4889 H         1 RES1    0.0000
     17 H6        -0.2545    7.4077    3.6184 H         1 RES1    0.0000
     18 C6         0.9437    5.6540    1.9060 C.3       1 RES1    0.0000
     19 H7         1.5142    5.4812    1.1278 H         1 RES1    0.0000
     20 H8         0.0352    5.8643    1.6049 H         1 RES1    0.0000
     21 H9         0.9221    4.8587    2.4776 H         1 RES1    0.0000
@<TRIPOS>BOND
     1    1    5 1
     2    2    3 1
     3    3    4 1
     4    4    5 2
     5    5    6 1
     6    6    2 2
     7    7    6 1
     8    8    7 3
     9    9    3 1
    10   10    9 1
    11   11   10 1
    12   12   10 1
    13   13   10 1
    14   14    9 1
    15   15   14 1
    16   16   14 1
    17   17   14 1
    18   18    9 1
    19   19   18 1
    20   20   18 1
    21   21   18 1
@<TRIPOS>SUBSTRUCTURE
     1 RES1 1

@<TRIPOS>CRYSIN
   6.0345   18.4180    7.6883  90.0000  92.2320  90.0000  14 1

