# MOL2 file generated by ConQuest
# Please check atom types

@<TRIPOS>MOLECULE
USIZEC
    20    21     1
SMALL
NO_CHARGES
****
Generated from CSD

@<TRIPOS>ATOM
      1 O1        -1.8869    4.9034   18.8353 O.2       1 RES1    0.0000
      2 O2        -2.3054    2.8111   19.1924 O.2       1 RES1    0.0000
      3 N1        -1.8408    3.7142   18.4993 N.pl3     1 RES1    0.0000
      4 N2        -0.4180    0.6018   14.9981 N.2       1 RES1    0.0000
      5 N3         0.2302    0.9044   13.8476 N.3       1 RES1    0.0000
      6 C1        -0.5844    1.8097   15.5868 C.2       1 RES1    0.0000
      7 C2        -1.1993    2.0662   16.8297 C.2       1 RES1    0.0000
      8 H1        -1.5779    1.3762   17.3601 H         1 RES1    0.0000
      9 C3        -1.2130    3.3815   17.2196 C.2       1 RES1    0.0000
     10 C4        -0.6797    4.4550   16.4592 C.2       1 RES1    0.0000
     11 H2        -0.7263    5.3436   16.7910 H         1 RES1    0.0000
     12 C5        -0.0991    4.2039   15.2483 C.2       1 RES1    0.0000
     13 H3         0.2562    4.9117   14.7237 H         1 RES1    0.0000
     14 C6        -0.0391    2.8624   14.7935 C.2       1 RES1    0.0000
     15 C7         0.4765    2.2158   13.6721 C.2       1 RES1    0.0000
     16 H4         0.9144    2.6193   12.9317 H         1 RES1    0.0000
     17 C8         0.6298   -0.1776   12.9593 C.3       1 RES1    0.0000
     18 H5         1.1502   -0.8381   13.4627 H         1 RES1    0.0000
     19 H6         1.1773    0.1830   12.2316 H         1 RES1    0.0000
     20 H7        -0.1692   -0.6063   12.5866 H         1 RES1    0.0000
@<TRIPOS>BOND
     1    1    3 2
     2    2    3 2
     3    3    9 1
     4    4    5 1
     5    5   15 1
     6    6    4 2
     7    7    6 1
     8    8    7 1
     9    9    7 2
    10   10    9 1
    11   11   10 1
    12   12   10 2
    13   13   12 1
    14   14    6 1
    15   15   14 2
    16   16   15 1
    17   17    5 1
    18   18   17 1
    19   19   17 1
    20   20   17 1
    21   12   14 1
@<TRIPOS>SUBSTRUCTURE
     1 RES1 1

@<TRIPOS>CRYSIN
   3.7930   12.2000   16.6750  90.0000  95.7220  90.0000  14 1

