# MOL2 file generated by ConQuest
# Please check atom types

@<TRIPOS>MOLECULE
USODEM
    43    45     1
SMALL
NO_CHARGES
****
Generated from CSD

@<TRIPOS>ATOM
      1 O1        -1.6049    8.1487    3.8422 O.3       1 RES1    0.0000
      2 O2        -3.5492    7.4150    2.9516 O.3       1 RES1    0.0000
      3 O3        -3.4630    6.2094    0.5251 O.3       1 RES1    0.0000
      4 O4        -0.5814    7.9627    1.7812 O.3       1 RES1    0.0000
      5 O5        -0.5237    5.0451   -0.3375 O.3       1 RES1    0.0000
      6 O6         1.7666    5.2093   -0.3243 O.3       1 RES1    0.0000
      7 O7        -4.6344    9.0305   -0.4148 O.2       1 RES1    0.0000
      8 O8        -4.2718    7.9363   -2.0759 O.2       1 RES1    0.0000
      9 N1        -3.8588    8.4380   -1.0634 N.pl3     1 RES1    0.0000
     10 C1        -1.5843    8.6206    2.5072 C.3       1 RES1    0.0000
     11 H1        -1.4710    9.5931    2.4726 H         1 RES1    0.0000
     12 C2        -2.9440    8.1923    1.9261 C.3       1 RES1    0.0000
     13 H2        -3.4962    8.9558    1.6544 H         1 RES1    0.0000
     14 C3        -2.5741    7.2760    0.7424 C.3       1 RES1    0.0000
     15 C4        -1.1548    6.8110    1.1606 C.3       1 RES1    0.0000
     16 H3        -1.2429    6.1049    1.8339 H         1 RES1    0.0000
     17 C5        -0.1677    6.3552    0.1086 C.3       1 RES1    0.0000
     18 H4        -0.1624    6.9821   -0.6453 H         1 RES1    0.0000
     19 C6         1.2337    6.1416    0.6239 C.3       1 RES1    0.0000
     20 H5         1.7395    6.9695    0.6272 H         1 RES1    0.0000
     21 H6         1.2270    5.7696    1.5194 H         1 RES1    0.0000
     22 C7        -2.5137    8.0511   -0.5696 C.3       1 RES1    0.0000
     23 H7        -1.9814    8.8514   -0.4412 H         1 RES1    0.0000
     24 H8        -2.0756    7.5057   -1.2412 H         1 RES1    0.0000
     25 C8        -2.9552    7.8559    4.1879 C.3       1 RES1    0.0000
     26 C9        -2.9771    6.6974    5.1575 C.3       1 RES1    0.0000
     27 H9        -2.5389    5.9407    4.7608 H         1 RES1    0.0000
     28 H10       -3.8866    6.4700    5.3633 H         1 RES1    0.0000
     29 H11       -2.5190    6.9465    5.9642 H         1 RES1    0.0000
     30 C10       -3.6420    9.1051    4.7081 C.3       1 RES1    0.0000
     31 H12       -3.6089    9.7917    4.0381 H         1 RES1    0.0000
     32 H13       -3.1939    9.4105    5.5000 H         1 RES1    0.0000
     33 H14       -4.5575    8.9042    4.9156 H         1 RES1    0.0000
     34 C11        0.6742    4.4079   -0.8247 C.3       1 RES1    0.0000
     35 C12        0.7272    3.0392   -0.2568 C.3       1 RES1    0.0000
     36 H15        0.7173    3.0886    0.7013 H         1 RES1    0.0000
     37 H16        1.5333    2.6052   -0.5465 H         1 RES1    0.0000
     38 H17       -0.0331    2.5375   -0.5597 H         1 RES1    0.0000
     39 C13        0.7179    4.4561   -2.3294 C.3       1 RES1    0.0000
     40 H18        0.6914    5.3701   -2.6208 H         1 RES1    0.0000
     41 H19       -0.0365    3.9831   -2.6866 H         1 RES1    0.0000
     42 H20        1.5293    4.0451   -2.6372 H         1 RES1    0.0000
     43 H21       -3.5200    5.7065    1.2676 H         1 RES1    0.0000
@<TRIPOS>BOND
     1    1   10 1
     2    2   12 1
     3    3   14 1
     4    4   10 1
     5    5   17 1
     6    6   19 1
     7    7    9 2
     8    8    9 2
     9    9   22 1
    10   10   11 1
    11   12   10 1
    12   13   12 1
    13   14   12 1
    14   15    4 1
    15   16   15 1
    16   17   15 1
    17   18   17 1
    18   19   17 1
    19   20   19 1
    20   21   19 1
    21   22   14 1
    22   23   22 1
    23   24   22 1
    24   25    1 1
    25   26   25 1
    26   27   26 1
    27   28   26 1
    28   29   26 1
    29   30   25 1
    30   31   30 1
    31   32   30 1
    32   33   30 1
    33   34    5 1
    34   35   34 1
    35   36   35 1
    36   37   35 1
    37   38   35 1
    38   39   34 1
    39   40   39 1
    40   41   39 1
    41   42   39 1
    42   43    3 1
    43    2   25 1
    44    6   34 1
    45   14   15 1
@<TRIPOS>SUBSTRUCTURE
     1 RES1 1

@<TRIPOS>CRYSIN
  13.2581   13.2581   16.4620  90.0000  90.0000 120.0000 169 1

