# MOL2 file generated by ConQuest
# Please check atom types

@<TRIPOS>MOLECULE
USORUQ
    48    52     1
SMALL
NO_CHARGES
****
Generated from CSD

@<TRIPOS>ATOM
      1 C1        26.9246    1.8998    2.7624 C.ar      1 RES1    0.0000
      2 O1        30.2089    2.4734    5.2279 O.2       1 RES1    0.0000
      3 O2        26.6514    4.2092    2.3371 O.2       1 RES1    0.0000
      4 N1        25.0978    2.8108    1.4430 N.am      1 RES1    0.0000
      5 C2        28.6593    1.0901    4.1913 C.ar      1 RES1    0.0000
      6 C3        25.3273    0.3816    1.6645 C.ar      1 RES1    0.0000
      7 C4        27.1548   -0.4514    3.1982 C.ar      1 RES1    0.0000
      8 H1        26.8720   -1.3274    3.0640 H         1 RES1    0.0000
      9 C5        26.4761    0.5933    2.5492 C.ar      1 RES1    0.0000
     10 C6        24.6442    1.5078    1.1332 C.ar      1 RES1    0.0000
     11 O3        30.4129    0.3490    5.5071 O.2       1 RES1    0.0000
     12 N2        23.1603   -2.2163    0.0766 N.3       1 RES1    0.0000
     13 N3        29.8298    1.3216    5.0477 N.pl3     1 RES1    0.0000
     14 C7        26.2427    3.0597    2.1840 C.2       1 RES1    0.0000
     15 C8        24.8727   -0.8970    1.3547 C.ar      1 RES1    0.0000
     16 H2        25.3030   -1.6427    1.7069 H         1 RES1    0.0000
     17 C9        23.1144    0.0535   -0.0071 C.ar      1 RES1    0.0000
     18 C10       28.0237    2.1407    3.5929 C.ar      1 RES1    0.0000
     19 H3        28.3213    3.0097    3.7366 H         1 RES1    0.0000
     20 C11       23.5473    1.3298    0.2910 C.ar      1 RES1    0.0000
     21 H4        23.1084    2.0674   -0.0683 H         1 RES1    0.0000
     22 C12       22.0450   -0.4502   -0.8434 C.ar      1 RES1    0.0000
     23 C13       23.7829   -1.0540    0.5219 C.ar      1 RES1    0.0000
     24 C14       28.2219   -0.2152    4.0217 C.ar      1 RES1    0.0000
     25 H5        28.6454   -0.9179    4.4599 H         1 RES1    0.0000
     26 C15       22.1002   -1.8475   -0.7527 C.ar      1 RES1    0.0000
     27 C16       23.4402   -3.5728    0.4936 C.3       1 RES1    0.0000
     28 H6        24.3819   -3.6426    0.7198 H         1 RES1    0.0000
     29 H7        23.2721   -4.1696   -0.2521 H         1 RES1    0.0000
     30 C17       24.3395    3.9777    0.9883 C.3       1 RES1    0.0000
     31 H8        24.5364    4.7257    1.5738 H         1 RES1    0.0000
     32 H9        23.3923    3.7845    1.0661 H         1 RES1    0.0000
     33 C18       20.2247   -2.0336   -2.2017 C.ar      1 RES1    0.0000
     34 H10       19.6135   -2.5537   -2.6682 H         1 RES1    0.0000
     35 C19       21.1949   -2.6537   -1.4395 C.ar      1 RES1    0.0000
     36 H11       21.2432   -3.5809   -1.3877 H         1 RES1    0.0000
     37 C20       20.1450   -0.6457   -2.2865 C.ar      1 RES1    0.0000
     38 H12       19.4774   -0.2536   -2.8001 H         1 RES1    0.0000
     39 C21       21.0499    0.1547   -1.6115 C.ar      1 RES1    0.0000
     40 H13       20.9949    1.0808   -1.6692 H         1 RES1    0.0000
     41 C22       22.6230   -4.0254    1.6704 C.3       1 RES1    0.0000
     42 H14       22.8133   -3.4658    2.4267 H         1 RES1    0.0000
     43 H15       22.8435   -4.9363    1.8813 H         1 RES1    0.0000
     44 H16       21.6905   -3.9637    1.4548 H         1 RES1    0.0000
     45 C23       24.6394    4.3872   -0.4417 C.3       1 RES1    0.0000
     46 H17       25.5284    4.7432   -0.4924 H         1 RES1    0.0000
     47 H18       24.0087    5.0550   -0.7221 H         1 RES1    0.0000
     48 H19       24.5679    3.6205   -1.0154 H         1 RES1    0.0000
@<TRIPOS>BOND
     1    1    9 ar
     2    2   13 2
     3    3   14 2
     4    4   10 1
     5    5   13 1
     6    6    9 1
     7    7    8 1
     8    9    7 ar
     9   10    6 ar
    10   11   13 2
    11   12   23 1
    12   14    1 1
    13   15    6 ar
    14   16   15 1
    15   17   20 ar
    16   18    1 ar
    17   19   18 1
    18   20   10 ar
    19   21   20 1
    20   22   17 1
    21   23   15 ar
    22   24    5 ar
    23   25   24 1
    24   26   12 1
    25   27   12 1
    26   28   27 1
    27   29   27 1
    28   30    4 1
    29   31   30 1
    30   32   30 1
    31   33   34 1
    32   35   26 ar
    33   36   35 1
    34   37   33 ar
    35   38   37 1
    36   39   22 ar
    37   40   39 1
    38   41   27 1
    39   42   41 1
    40   43   41 1
    41   44   41 1
    42   45   30 1
    43   46   45 1
    44   47   45 1
    45   48   45 1
    46    4   14 1
    47    5   18 ar
    48    7   24 ar
    49   17   23 ar
    50   22   26 ar
    51   33   35 ar
    52   37   39 ar
@<TRIPOS>SUBSTRUCTURE
     1 RES1 1

@<TRIPOS>CRYSIN
  25.9780   11.6340   13.8740  90.0000 121.8900  90.0000  15 1

