# MOL2 file generated by ConQuest
# Please check atom types

@<TRIPOS>MOLECULE
USUMEB
    53    56     1
SMALL
NO_CHARGES
****
Generated from CSD

@<TRIPOS>ATOM
      1 N1         4.6247    4.4511    7.5066 N.3       1 RES1    0.0000
      2 N2         2.9664    5.5988    8.6311 N.3       1 RES1    0.0000
      3 H1         2.4623    6.2940    8.6752 H         1 RES1    0.0000
      4 N3         3.0594    7.3591    6.2045 N.pl3     1 RES1    0.0000
      5 O1         2.2482    7.7017    7.1032 O.2       1 RES1    0.0000
      6 O2         3.1715    8.0240    5.1546 O.2       1 RES1    0.0000
      7 O3         7.3575    5.0336    4.1782 O.2       1 RES1    0.0000
      8 O4         6.7596    4.6111    6.6907 O.3       1 RES1    0.0000
      9 H2         7.2474    4.6424    6.0317 H         1 RES1    0.0000
     10 C1         3.7424    5.4509    7.5905 C.2       1 RES1    0.0000
     11 C2         3.8373    6.2542    6.4056 C.2       1 RES1    0.0000
     12 C3         4.9010    5.7724    5.5839 C.2       1 RES1    0.0000
     13 C4         5.4306    4.4930    6.2803 C.3       1 RES1    0.0000
     14 C5         2.9216    4.6305    9.7179 C.3       1 RES1    0.0000
     15 H3         2.0055    4.5219   10.0188 H         1 RES1    0.0000
     16 H4         3.4472    4.9562   10.4655 H         1 RES1    0.0000
     17 C6         3.4582    3.3193    9.2659 C.3       1 RES1    0.0000
     18 H5         2.8190    2.9034    8.6652 H         1 RES1    0.0000
     19 H6         3.5660    2.7372   10.0338 H         1 RES1    0.0000
     20 C7         4.7855    3.4587    8.5586 C.3       1 RES1    0.0000
     21 H7         5.4694    3.7439    9.1856 H         1 RES1    0.0000
     22 H8         5.0528    2.6086    8.1783 H         1 RES1    0.0000
     23 C8         5.3834    6.3030    4.4382 C.2       1 RES1    0.0000
     24 H9         4.9187    7.0239    4.0791 H         1 RES1    0.0000
     25 C9         6.5555    5.8541    3.7166 C.2       1 RES1    0.0000
     26 C10        6.8296    6.4220    2.3605 C.ar      1 RES1    0.0000
     27 C11        5.9097    7.1764    1.6572 C.ar      1 RES1    0.0000
     28 H10        5.0748    7.3479    2.0295 H         1 RES1    0.0000
     29 C12        6.2192    7.6792    0.4054 C.ar      1 RES1    0.0000
     30 H11        5.5857    8.1859   -0.0502 H         1 RES1    0.0000
     31 C13        7.4351    7.4491   -0.1774 C.ar      1 RES1    0.0000
     32 C14        8.3536    6.6819    0.5254 C.ar      1 RES1    0.0000
     33 H12        9.1830    6.5031    0.1439 H         1 RES1    0.0000
     34 C15        8.0613    6.1784    1.7789 C.ar      1 RES1    0.0000
     35 H13        8.6958    5.6736    2.2336 H         1 RES1    0.0000
     36 C16        7.7757    8.0073   -1.5443 C.3       1 RES1    0.0000
     37 H14        7.2739    7.5383   -2.2152 H         1 RES1    0.0000
     38 H15        8.7140    7.8956   -1.7100 H         1 RES1    0.0000
     39 H16        7.5538    8.9410   -1.5728 H         1 RES1    0.0000
     40 C17        5.1696    3.2240    5.4705 C.ar      1 RES1    0.0000
     41 C18        6.0696    2.1718    5.4871 C.ar      1 RES1    0.0000
     42 H17        6.8694    2.2572    5.9547 H         1 RES1    0.0000
     43 C19        5.7912    0.9927    4.8150 C.ar      1 RES1    0.0000
     44 H18        6.4097    0.2996    4.8437 H         1 RES1    0.0000
     45 C20        4.6366    0.8238    4.1141 C.ar      1 RES1    0.0000
     46 C21        3.7238    1.8744    4.0950 C.ar      1 RES1    0.0000
     47 H19        2.9239    1.7801    3.6307 H         1 RES1    0.0000
     48 C22        3.9964    3.0660    4.7661 C.ar      1 RES1    0.0000
     49 H20        3.3796    3.7615    4.7383 H         1 RES1    0.0000
     50 C23        4.3269   -0.4615    3.3630 C.3       1 RES1    0.0000
     51 H21        4.2685   -0.2768    2.4227 H         1 RES1    0.0000
     52 H22        3.4918   -0.8183    3.6725 H         1 RES1    0.0000
     53 H23        5.0267   -1.0996    3.5203 H         1 RES1    0.0000
@<TRIPOS>BOND
     1    1   10 1
     2    2    3 1
     3    4    5 2
     4    6    4 2
     5    7   25 2
     6    8    9 1
     7   10    2 1
     8   11    4 1
     9   12   11 1
    10   13    1 1
    11   14    2 1
    12   15   14 1
    13   16   14 1
    14   17   14 1
    15   18   17 1
    16   19   17 1
    17   20    1 1
    18   21   20 1
    19   22   20 1
    20   23   12 2
    21   24   23 1
    22   25   23 1
    23   26   25 1
    24   27   26 ar
    25   28   27 1
    26   29   27 ar
    27   30   29 1
    28   31   29 ar
    29   32   31 ar
    30   33   32 1
    31   34   26 ar
    32   35   34 1
    33   36   31 1
    34   37   36 1
    35   38   36 1
    36   39   36 1
    37   40   13 1
    38   41   40 ar
    39   42   41 1
    40   43   41 ar
    41   44   43 1
    42   45   43 ar
    43   46   45 ar
    44   47   46 1
    45   48   40 ar
    46   49   48 1
    47   50   45 1
    48   51   50 1
    49   52   50 1
    50   53   50 1
    51    8   13 1
    52   10   11 2
    53   12   13 1
    54   17   20 1
    55   32   34 ar
    56   46   48 ar
@<TRIPOS>SUBSTRUCTURE
     1 RES1 1

@<TRIPOS>CRYSIN
   5.9788   10.8688   17.1088  77.9910  88.6070  78.2780   2 1

