# MOL2 file generated by ConQuest
# Please check atom types

@<TRIPOS>MOLECULE
UTIZUU
    32    34     1
SMALL
NO_CHARGES
****
Generated from CSD

@<TRIPOS>ATOM
      1 C1         5.8597    2.3315    8.7443 C.2       1 RES1    0.0000
      2 C2         6.5686    3.6262    8.5234 C.3       1 RES1    0.0000
      3 H1         5.9519    4.3719    8.7348 H         1 RES1    0.0000
      4 H2         6.8176    3.6997    7.5673 H         1 RES1    0.0000
      5 C3         7.8214    3.7613    9.3752 C.3       1 RES1    0.0000
      6 H3         8.5453    3.2112    8.9850 H         1 RES1    0.0000
      7 H4         8.1200    4.7055    9.3748 H         1 RES1    0.0000
      8 C4         7.5645    3.3187   10.7955 C.3       1 RES1    0.0000
      9 H5         6.8732    3.8999   11.1997 H         1 RES1    0.0000
     10 H6         8.3950    3.4187   11.3258 H         1 RES1    0.0000
     11 C5         7.1059    1.8804   10.8545 C.3       1 RES1    0.0000
     12 H7         7.8896    1.2868   10.7440 H         1 RES1    0.0000
     13 H8         6.7160    1.7029   11.7466 H         1 RES1    0.0000
     14 C6         6.0891    1.5485    9.8032 C.2       1 RES1    0.0000
     15 H9         5.5872    0.7474    9.8926 H         1 RES1    0.0000
     16 C7         4.8593    1.9776    7.7355 C.2       1 RES1    0.0000
     17 C8         4.2561    2.6939    6.7586 C.2       1 RES1    0.0000
     18 H10        4.3958    3.6081    6.5414 H         1 RES1    0.0000
     19 C9         3.3729    1.7865    6.1328 C.2       1 RES1    0.0000
     20 N1         3.4521    0.5902    6.6671 N.2       1 RES1    0.0000
     21 O1         4.4083    0.7027    7.7005 O.3       1 RES1    0.0000
     22 C10        2.3723    2.0630    5.0793 C.ar      1 RES1    0.0000
     23 C11        2.4605    3.2271    4.3214 C.ar      1 RES1    0.0000
     24 H11        3.1786    3.8331    4.4585 H         1 RES1    0.0000
     25 C12        1.4930    3.4984    3.3617 C.ar      1 RES1    0.0000
     26 H12        1.5528    4.2916    2.8411 H         1 RES1    0.0000
     27 C13        0.4494    2.6272    3.1607 C.ar      1 RES1    0.0000
     28 H13       -0.2082    2.8228    2.5037 H         1 RES1    0.0000
     29 C14        0.3511    1.4694    3.9076 C.ar      1 RES1    0.0000
     30 H14       -0.3740    0.8707    3.7701 H         1 RES1    0.0000
     31 C15        1.3225    1.1873    4.8641 C.ar      1 RES1    0.0000
     32 H15        1.2644    0.3873    5.3720 H         1 RES1    0.0000
@<TRIPOS>BOND
     1    1    2 1
     2    2    3 1
     3    4    2 1
     4    5    2 1
     5    6    5 1
     6    7    5 1
     7    8    5 1
     8    9    8 1
     9   10    8 1
    10   11    8 1
    11   12   11 1
    12   13   11 1
    13   14    1 2
    14   15   14 1
    15   16    1 1
    16   17   16 2
    17   18   17 1
    18   19   17 1
    19   20   19 2
    20   21   16 1
    21   22   19 1
    22   23   22 ar
    23   24   23 1
    24   25   23 ar
    25   26   25 1
    26   27   25 ar
    27   28   27 1
    28   29   27 ar
    29   30   29 1
    30   31   22 ar
    31   32   31 1
    32   11   14 1
    33   20   21 1
    34   29   31 ar
@<TRIPOS>SUBSTRUCTURE
     1 RES1 1

@<TRIPOS>CRYSIN
  10.7025    5.6536   19.5304  90.0000  96.7900  90.0000  14 1

