# MOL2 file generated by ConQuest
# Please check atom types

@<TRIPOS>MOLECULE
UVATIW
    32    32     1
SMALL
NO_CHARGES
****
Generated from CSD

@<TRIPOS>ATOM
      1 H1         8.4387    4.6060    0.0725 H         1 RES1    0.0000
      2 O1         4.4520    2.2919    4.6886 O.2       1 RES1    0.0000
      3 O2         4.8238    4.4074    4.5738 O.2       1 RES1    0.0000
      4 O3         7.8134    4.0172    0.3772 O.3       1 RES1    0.0000
      5 O4         6.5000    5.8055    0.6634 O.2       1 RES1    0.0000
      6 N1         4.3628    3.3693    4.1188 N.pl3     1 RES1    0.0000
      7 C1         2.2642    4.1377    3.1656 C.ar      1 RES1    0.0000
      8 C2         1.9409    5.4133    2.7072 C.ar      1 RES1    0.0000
      9 H2         2.5183    5.8555    2.1279 H         1 RES1    0.0000
     10 C3         0.7648    6.0293    3.1081 C.ar      1 RES1    0.0000
     11 H3         0.5583    6.8785    2.7906 H         1 RES1    0.0000
     12 C4        -0.1034    5.3919    3.9749 C.ar      1 RES1    0.0000
     13 H4        -0.8883    5.8107    4.2456 H         1 RES1    0.0000
     14 C5         0.2087    4.1197    4.4364 C.ar      1 RES1    0.0000
     15 H5        -0.3711    3.6841    5.0189 H         1 RES1    0.0000
     16 C6         1.3803    3.4961    4.0338 C.ar      1 RES1    0.0000
     17 H6         1.5788    2.6427    4.3448 H         1 RES1    0.0000
     18 C7         3.5767    3.4541    2.7735 C.3       1 RES1    0.0000
     19 C8         4.4419    4.3014    1.8356 C.3       1 RES1    0.0000
     20 H7         3.9457    4.4692    1.0188 H         1 RES1    0.0000
     21 H8         4.6134    5.1578    2.2576 H         1 RES1    0.0000
     22 C9         5.7760    3.6547    1.4759 C.3       1 RES1    0.0000
     23 H9         6.1938    3.3186    2.2843 H         1 RES1    0.0000
     24 H10        5.6142    2.8990    0.8891 H         1 RES1    0.0000
     25 C10        6.7156    4.6095    0.7988 C.2       1 RES1    0.0000
     26 C11        3.3616    2.0241    2.2668 C.3       1 RES1    0.0000
     27 H11        4.2222    1.5851    2.1762 H         1 RES1    0.0000
     28 H12        2.8426    1.5288    2.9203 H         1 RES1    0.0000
     29 C12        2.6401    1.9928    0.9257 C.3       1 RES1    0.0000
     30 H13        1.7712    2.3886    1.0201 H         1 RES1    0.0000
     31 H14        2.5467    1.0828    0.6334 H         1 RES1    0.0000
     32 H15        3.1476    2.4863    0.2773 H         1 RES1    0.0000
@<TRIPOS>BOND
     1    1    4 1
     2    2    6 2
     3    3    6 2
     4    4   25 1
     5    5   25 2
     6    6   18 1
     7    7    8 ar
     8    8    9 1
     9   10    8 ar
    10   11   10 1
    11   12   10 ar
    12   13   12 1
    13   14   12 ar
    14   15   14 1
    15   16    7 ar
    16   17   16 1
    17   18    7 1
    18   19   18 1
    19   20   19 1
    20   21   19 1
    21   22   19 1
    22   23   22 1
    23   24   22 1
    24   25   22 1
    25   26   18 1
    26   27   26 1
    27   28   26 1
    28   29   26 1
    29   30   29 1
    30   31   29 1
    31   32   29 1
    32   14   16 ar
@<TRIPOS>SUBSTRUCTURE
     1 RES1 1

@<TRIPOS>CRYSIN
   8.0538   11.4949   12.7223  90.0000  91.3030  90.0000  14 1

