# MOL2 file generated by ConQuest
# Please check atom types

@<TRIPOS>MOLECULE
UVEGEJ
    26    28     1
SMALL
NO_CHARGES
****
Generated from CSD

@<TRIPOS>ATOM
      1 N1        18.0537    6.4934    4.8946 N.2       1 RES1    0.0000
      2 N2        19.4556    8.2807    5.0243 N.2       1 RES1    0.0000
      3 N3        17.9463    9.7067    2.2007 N.2       1 RES1    0.0000
      4 N4        16.8196    7.1823    2.9747 N.pl3     1 RES1    0.0000
      5 N5        16.0510    6.0696    2.8346 N.pl3     1 RES1    0.0000
      6 O1        19.1173    7.0843    5.5692 O.3       1 RES1    0.0000
      7 O2        17.9586   10.9414    1.4722 O.3       1 RES1    0.0000
      8 O3        16.1277    5.2157    3.6745 O.2       1 RES1    0.0000
      9 O4        15.3695    6.0385    1.8315 O.2       1 RES1    0.0000
     10 C1        17.7709    7.3330    3.9443 C.2       1 RES1    0.0000
     11 C2        18.6405    8.4627    4.0369 C.2       1 RES1    0.0000
     12 C3        18.6545    9.6825    3.2399 C.2       1 RES1    0.0000
     13 H1        16.6114    7.7699    2.4632 H         1 RES1    0.0000
     14 N1I       19.3398   15.0958    0.3352 N.2       1 RES1    0.0000
     15 N2I       17.9379   13.3084    0.2055 N.2       1 RES1    0.0000
     16 N3I       19.4472   11.8825    3.0291 N.2       1 RES1    0.0000
     17 N4I       20.5739   14.4069    2.2551 N.pl3     1 RES1    0.0000
     18 N5I       21.3425   15.5196    2.3952 N.pl3     1 RES1    0.0000
     19 O1I       18.2762   14.5049   -0.3394 O.3       1 RES1    0.0000
     20 O2I       19.4349   10.6478    3.7576 O.3       1 RES1    0.0000
     21 O3I       21.2658   16.3734    1.5553 O.2       1 RES1    0.0000
     22 O4I       22.0240   15.5507    3.3983 O.2       1 RES1    0.0000
     23 C1I       19.6226   14.2562    1.2855 C.2       1 RES1    0.0000
     24 C2I       18.7530   13.1264    1.1929 C.2       1 RES1    0.0000
     25 C3I       18.7390   11.9066    1.9899 C.2       1 RES1    0.0000
     26 H1I       20.7821   13.8192    2.7666 H         1 RES1    0.0000
@<TRIPOS>BOND
     1    1    6 1
     2    2    6 1
     3    3    7 1
     4    4    5 1
     5    5    8 2
     6    7   25 1
     7    9    5 2
     8   10    1 2
     9   11    2 2
    10   12    3 2
    11   13    4 1
    12   14   19 1
    13   15   19 1
    14   16   20 1
    15   17   18 1
    16   18   21 2
    17   20   12 1
    18   22   18 2
    19   23   14 2
    20   24   15 2
    21   25   16 2
    22   26   17 1
    23    4   10 1
    24   10   11 1
    25   11   12 1
    26   17   23 1
    27   23   24 1
    28   24   25 1
@<TRIPOS>SUBSTRUCTURE
     1 RES1 1

@<TRIPOS>CRYSIN
  24.9290   24.9290    5.2298  90.0000  90.0000 120.0000 233 1

