# MOL2 file generated by ConQuest
# Please check atom types

@<TRIPOS>MOLECULE
UVINOD
    43    45     1
SMALL
NO_CHARGES
****
Generated from CSD

@<TRIPOS>ATOM
      1 C1         2.6698    6.7205    5.6768 C.ar      1 RES1    0.0000
      2 C2         2.5173    5.3911    5.2312 C.ar      1 RES1    0.0000
      3 C3         2.7999    4.3322    6.1039 C.ar      1 RES1    0.0000
      4 H1         2.6796    3.4367    5.8101 H         1 RES1    0.0000
      5 C4         3.2516    4.5735    7.3874 C.ar      1 RES1    0.0000
      6 H2         3.4225    3.8504    7.9782 H         1 RES1    0.0000
      7 C5         3.4534    5.8795    7.8048 C.ar      1 RES1    0.0000
      8 H3         3.7884    6.0500    8.6772 H         1 RES1    0.0000
      9 C6         3.1717    6.9344    6.9613 C.ar      1 RES1    0.0000
     10 H4         3.3220    7.8239    7.2611 H         1 RES1    0.0000
     11 C7         2.2940    7.8790    4.8215 C.ar      1 RES1    0.0000
     12 C8         0.9585    8.0316    4.3956 C.ar      1 RES1    0.0000
     13 H5         0.3040    7.3969    4.6638 H         1 RES1    0.0000
     14 C9         0.5926    9.0947    3.5922 C.ar      1 RES1    0.0000
     15 H6        -0.3100    9.1882    3.3129 H         1 RES1    0.0000
     16 C10        1.5399   10.0259    3.1934 C.ar      1 RES1    0.0000
     17 O1         1.0677   11.0539    2.4080 O.3       1 RES1    0.0000
     18 C11        2.8625    9.8956    3.6046 C.ar      1 RES1    0.0000
     19 H7         3.5144   10.5283    3.3281 H         1 RES1    0.0000
     20 C12        3.2207    8.8286    4.4256 C.ar      1 RES1    0.0000
     21 H8         4.1208    8.7504    4.7199 H         1 RES1    0.0000
     22 C13        2.1236    5.1243    3.8484 C.2       1 RES1    0.0000
     23 H9         1.8173    5.8358    3.2977 H         1 RES1    0.0000
     24 N1         2.1888    3.9457    3.3795 N.2       1 RES1    0.0000
     25 O2         1.7039    3.9861    2.0165 O.3       1 RES1    0.0000
     26 C14        1.7752    2.7595    1.4448 C.2       1 RES1    0.0000
     27 O3         2.2053    1.7615    1.9077 O.2       1 RES1    0.0000
     28 O4         1.2357    2.9249    0.2217 O.3       1 RES1    0.0000
     29 C15        1.2857    1.7920   -0.6227 C.ar      1 RES1    0.0000
     30 C16        2.4091    1.5918   -1.3829 C.ar      1 RES1    0.0000
     31 H10        3.1580    2.1715   -1.3070 H         1 RES1    0.0000
     32 C17        2.4263    0.5201   -2.2666 C.ar      1 RES1    0.0000
     33 H11        3.1958    0.3655   -2.8019 H         1 RES1    0.0000
     34 C18        1.3424   -0.3194   -2.3747 C.ar      1 RES1    0.0000
     35 H12        1.3639   -1.0510   -2.9793 H         1 RES1    0.0000
     36 C19        0.2156   -0.0910   -1.5934 C.ar      1 RES1    0.0000
     37 H13       -0.5359   -0.6681   -1.6663 H         1 RES1    0.0000
     38 C20        0.1838    0.9817   -0.7043 C.ar      1 RES1    0.0000
     39 H14       -0.5832    1.1474   -0.1683 H         1 RES1    0.0000
     40 C21        2.0406   11.8955    1.7790 C.3       1 RES1    0.0000
     41 H15        2.5345   12.3919    2.4638 H         1 RES1    0.0000
     42 H16        1.5889   12.5258    1.1796 H         1 RES1    0.0000
     43 H17        2.6642   11.3437    1.2615 H         1 RES1    0.0000
@<TRIPOS>BOND
     1    1    2 ar
     2    2    3 ar
     3    3    4 1
     4    5    3 ar
     5    6    5 1
     6    7    5 ar
     7    8    7 1
     8    9    1 ar
     9   10    9 1
    10   11    1 1
    11   12   11 ar
    12   13   12 1
    13   14   12 ar
    14   15   14 1
    15   16   14 ar
    16   17   16 1
    17   18   16 ar
    18   19   18 1
    19   20   11 ar
    20   21   20 1
    21   22    2 1
    22   23   22 1
    23   24   22 2
    24   25   24 1
    25   26   25 1
    26   27   26 2
    27   28   26 1
    28   29   28 1
    29   30   29 ar
    30   31   30 1
    31   32   30 ar
    32   33   32 1
    33   34   32 ar
    34   35   34 1
    35   36   34 ar
    36   37   36 1
    37   38   29 ar
    38   39   38 1
    39   40   17 1
    40   41   40 1
    41   42   40 1
    42   43   40 1
    43    7    9 ar
    44   18   20 ar
    45   36   38 ar
@<TRIPOS>SUBSTRUCTURE
     1 RES1 1

@<TRIPOS>CRYSIN
   8.5885   13.3880   15.1620  90.0000  90.0000  90.0000  19 1

