# MOL2 file generated by ConQuest
# Please check atom types

@<TRIPOS>MOLECULE
UVIPAR
    28    30     1
SMALL
NO_CHARGES
****
Generated from CSD

@<TRIPOS>ATOM
      1 N1        -0.0988    8.3442    3.2765 N.ar      1 RES1    0.0000
      2 C1        -0.5014    9.3778    4.0892 C.ar      1 RES1    0.0000
      3 C2        -1.4191    9.0607    5.0982 C.ar      1 RES1    0.0000
      4 H1        -1.7238    8.1665    5.2009 H         1 RES1    0.0000
      5 C3        -1.8783   10.0399    5.9421 C.ar      1 RES1    0.0000
      6 N2        -2.8505    9.7042    6.9657 N.pl3     1 RES1    0.0000
      7 O1        -3.2293    8.5433    7.0487 O.2       1 RES1    0.0000
      8 O2        -3.2344   10.5998    7.7243 O.2       1 RES1    0.0000
      9 C4        -1.4415   11.3587    5.8283 C.ar      1 RES1    0.0000
     10 H2        -1.7603   12.0248    6.4264 H         1 RES1    0.0000
     11 C5        -0.5547   11.6811    4.8524 C.ar      1 RES1    0.0000
     12 H3        -0.2635   12.5807    4.7661 H         1 RES1    0.0000
     13 C6        -0.0569   10.7099    3.9626 C.ar      1 RES1    0.0000
     14 C7         0.8841   11.0005    2.9059 C.ar      1 RES1    0.0000
     15 C8         1.3997   12.2835    2.6546 C.ar      1 RES1    0.0000
     16 H4         1.1287   13.0119    3.2013 H         1 RES1    0.0000
     17 C9         2.2779   12.4971    1.6437 C.ar      1 RES1    0.0000
     18 H5         2.6132   13.3728    1.4896 H         1 RES1    0.0000
     19 C10        2.6955   11.4437    0.8237 C.ar      1 RES1    0.0000
     20 H6         3.3267   11.6015    0.1321 H         1 RES1    0.0000
     21 C11        2.1950   10.1898    1.0200 C.ar      1 RES1    0.0000
     22 H7         2.4650    9.4826    0.4458 H         1 RES1    0.0000
     23 C12        1.2814    9.9298    2.0639 C.ar      1 RES1    0.0000
     24 C13        0.7366    8.6136    2.3042 C.ar      1 RES1    0.0000
     25 C14        1.1505    7.4725    1.4181 C.3       1 RES1    0.0000
     26 H8         0.7071    6.6512    1.7153 H         1 RES1    0.0000
     27 H9         2.1221    7.3558    1.4695 H         1 RES1    0.0000
     28 H10        0.8924    7.6676    0.4935 H         1 RES1    0.0000
@<TRIPOS>BOND
     1    1    2 ar
     2    2    3 ar
     3    3    4 1
     4    5    3 ar
     5    6    5 1
     6    7    6 2
     7    8    6 2
     8    9    5 ar
     9   10    9 1
    10   11    9 ar
    11   12   11 1
    12   13    2 ar
    13   14   13 ar
    14   15   14 ar
    15   16   15 1
    16   17   15 ar
    17   18   17 1
    18   19   17 ar
    19   20   19 1
    20   21   19 ar
    21   22   21 1
    22   23   14 ar
    23   24    1 ar
    24   25   24 1
    25   26   25 1
    26   27   25 1
    27   28   25 1
    28   11   13 ar
    29   21   23 ar
    30   23   24 ar
@<TRIPOS>SUBSTRUCTURE
     1 RES1 1

@<TRIPOS>CRYSIN
   4.4690   13.2680   18.4590  90.0000  96.3600  90.0000 231 1

