# MOL2 file generated by ConQuest
# Please check atom types

@<TRIPOS>MOLECULE
UVIPEV
    42    45     1
SMALL
NO_CHARGES
****
Generated from CSD

@<TRIPOS>ATOM
      1 C1         2.3818   -0.2628    3.6665 C.ar      1 RES1    0.0000
      2 C2         3.4372    0.5956    4.0808 C.ar      1 RES1    0.0000
      3 C3         3.1921    1.6284    5.0205 C.ar      1 RES1    0.0000
      4 H1         3.8927    2.1998    5.3127 H         1 RES1    0.0000
      5 C4         1.9216    1.7779    5.4928 C.ar      1 RES1    0.0000
      6 O1         1.4186    2.7032    6.3855 O.3       1 RES1    0.0000
      7 C5         0.8923    0.9099    5.1115 C.ar      1 RES1    0.0000
      8 O2        -0.2749    1.2731    5.7518 O.3       1 RES1    0.0000
      9 C6         1.0979   -0.1214    4.2319 C.ar      1 RES1    0.0000
     10 H2         0.3961   -0.7216    4.0088 H         1 RES1    0.0000
     11 C7         2.5641   -1.2523    2.5648 C.ar      1 RES1    0.0000
     12 C8         3.0754   -0.8620    1.3219 C.ar      1 RES1    0.0000
     13 H3         3.3413    0.0409    1.1888 H         1 RES1    0.0000
     14 C9         3.2005   -1.7733    0.2762 C.ar      1 RES1    0.0000
     15 H4         3.5611   -1.4959   -0.5574 H         1 RES1    0.0000
     16 C10        2.7937   -3.0918    0.4593 C.ar      1 RES1    0.0000
     17 H5         2.8784   -3.7198   -0.2482 H         1 RES1    0.0000
     18 C11        2.2637   -3.4851    1.6822 C.ar      1 RES1    0.0000
     19 H6         1.9782   -4.3835    1.8052 H         1 RES1    0.0000
     20 C12        2.1474   -2.5804    2.7179 C.ar      1 RES1    0.0000
     21 H7         1.7808   -2.8636    3.5475 H         1 RES1    0.0000
     22 C13        4.7794    0.3857    3.5414 C.2       1 RES1    0.0000
     23 H8         5.0027   -0.4550    3.1582 H         1 RES1    0.0000
     24 N1         5.6625    1.3148    3.5760 N.2       1 RES1    0.0000
     25 O3         6.8632    0.7643    2.9740 O.3       1 RES1    0.0000
     26 C14        7.7279    1.7319    2.5908 C.2       1 RES1    0.0000
     27 O4         7.6806    2.8948    2.8418 O.2       1 RES1    0.0000
     28 O5         8.6430    1.0830    1.8597 O.3       1 RES1    0.0000
     29 C15        9.6481    1.8141    1.1708 C.ar      1 RES1    0.0000
     30 C16        9.6490    1.6802   -0.2001 C.ar      1 RES1    0.0000
     31 H9         8.9417    1.2248   -0.6404 H         1 RES1    0.0000
     32 C17       10.7001    2.2210   -0.9296 C.ar      1 RES1    0.0000
     33 H10       10.7274    2.1147   -1.8733 H         1 RES1    0.0000
     34 C18       11.7084    2.9135   -0.2832 C.ar      1 RES1    0.0000
     35 H11       12.4239    3.2904   -0.7815 H         1 RES1    0.0000
     36 C19       11.6713    3.0565    1.1048 C.ar      1 RES1    0.0000
     37 H12       12.3608    3.5365    1.5471 H         1 RES1    0.0000
     38 C20       10.6341    2.5044    1.8453 C.ar      1 RES1    0.0000
     39 H13       10.6040    2.5993    2.7909 H         1 RES1    0.0000
     40 C21       -0.0112    2.5812    6.2833 C.3       1 RES1    0.0000
     41 H14       -0.4308    2.6828    7.1750 H         1 RES1    0.0000
     42 H15       -0.3757    3.2784    5.6819 H         1 RES1    0.0000
@<TRIPOS>BOND
     1    1    2 ar
     2    2    3 ar
     3    3    4 1
     4    5    3 ar
     5    6    5 1
     6    7    5 ar
     7    8    7 1
     8    9    1 ar
     9   10    9 1
    10   11    1 1
    11   12   11 ar
    12   13   12 1
    13   14   12 ar
    14   15   14 1
    15   16   14 ar
    16   17   16 1
    17   18   16 ar
    18   19   18 1
    19   20   11 ar
    20   21   20 1
    21   22    2 1
    22   23   22 1
    23   24   22 2
    24   25   24 1
    25   26   25 1
    26   27   26 2
    27   28   26 1
    28   29   28 1
    29   30   29 ar
    30   31   30 1
    31   32   30 ar
    32   33   32 1
    33   34   32 ar
    34   35   34 1
    35   36   34 ar
    36   37   36 1
    37   38   29 ar
    38   39   38 1
    39   40    6 1
    40   41   40 1
    41   42   40 1
    42    7    9 ar
    43    8   40 1
    44   18   20 ar
    45   36   38 ar
@<TRIPOS>SUBSTRUCTURE
     1 RES1 1

@<TRIPOS>CRYSIN
   9.1190    9.5810   10.2320  97.8560  96.7610 104.7000   2 1

