# MOL2 file generated by ConQuest
# Please check atom types

@<TRIPOS>MOLECULE
UVISOI
    62    67     1
SMALL
NO_CHARGES
****
Generated from CSD

@<TRIPOS>ATOM
      1 O1         3.7735    5.2189    5.9031 O.2       1 RES1    0.0000
      2 O2         1.6926    1.3076    4.6000 O.2       1 RES1    0.0000
      3 O3         6.2639    6.0773   -0.4135 O.2       1 RES1    0.0000
      4 O4         5.5145    4.1739   -0.9956 O.2       1 RES1    0.0000
      5 N1        -0.0253    7.6122    5.4600 N.3       1 RES1    0.0000
      6 H1        -0.6182    7.9528    6.0522 H         1 RES1    0.0000
      7 N2         1.6908    6.1199    6.2464 N.am      1 RES1    0.0000
      8 N3         1.4994    3.5323    4.4519 N.am      1 RES1    0.0000
      9 N4         5.5317    5.1191   -0.2639 N.pl3     1 RES1    0.0000
     10 C1         0.0872    8.0290    4.1476 C.ar      1 RES1    0.0000
     11 C2        -0.2265    9.2747    3.6248 C.ar      1 RES1    0.0000
     12 H2        -0.5904    9.9562    4.1784 H         1 RES1    0.0000
     13 C3         0.0024    9.5015    2.2869 C.ar      1 RES1    0.0000
     14 H3        -0.1999   10.3533    1.9196 H         1 RES1    0.0000
     15 C4         0.5223    8.5147    1.4657 C.ar      1 RES1    0.0000
     16 H4         0.6883    8.6969    0.5485 H         1 RES1    0.0000
     17 C5         0.8012    7.2500    1.9906 C.ar      1 RES1    0.0000
     18 H5         1.1344    6.5607    1.4289 H         1 RES1    0.0000
     19 C6         0.5877    7.0111    3.3323 C.ar      1 RES1    0.0000
     20 C7         0.6351    5.7276    4.1389 C.3       1 RES1    0.0000
     21 C8         0.3870    6.2374    5.5901 C.3       1 RES1    0.0000
     22 H6        -0.3071    5.6897    6.0570 H         1 RES1    0.0000
     23 C9         2.6221    5.4418    5.5541 C.2       1 RES1    0.0000
     24 C10        1.9751    4.9270    4.2361 C.3       1 RES1    0.0000
     25 C11        0.0283    3.4196    4.3826 C.3       1 RES1    0.0000
     26 H7        -0.3653    3.3556    5.2897 H         1 RES1    0.0000
     27 H8        -0.2422    2.6249    3.8560 H         1 RES1    0.0000
     28 C12       -0.4015    4.6921    3.6970 C.3       1 RES1    0.0000
     29 H9        -1.3105    4.9574    3.9835 H         1 RES1    0.0000
     30 H10       -0.3945    4.5824    2.7134 H         1 RES1    0.0000
     31 C13        1.8438    6.5715    7.6423 C.3       1 RES1    0.0000
     32 H11        0.9981    7.0449    7.8876 H         1 RES1    0.0000
     33 C14        2.9724    7.5700    7.8200 C.3       1 RES1    0.0000
     34 H12        2.8168    8.3573    7.2406 H         1 RES1    0.0000
     35 H13        3.8308    7.1556    7.5533 H         1 RES1    0.0000
     36 C15        3.0432    8.0134    9.2857 C.3       1 RES1    0.0000
     37 H14        3.8109    8.6275    9.4055 H         1 RES1    0.0000
     38 H15        2.2172    8.5050    9.5210 H         1 RES1    0.0000
     39 C16        3.2024    6.8249   10.2188 C.3       1 RES1    0.0000
     40 H16        4.0664    6.3747   10.0382 H         1 RES1    0.0000
     41 H17        3.2126    7.1409   11.1567 H         1 RES1    0.0000
     42 C17        2.0795    5.8450   10.0319 C.3       1 RES1    0.0000
     43 H18        1.2284    6.2684   10.3052 H         1 RES1    0.0000
     44 H19        2.2304    5.0593   10.6155 H         1 RES1    0.0000
     45 C18        1.9669    5.3808    8.5814 C.3       1 RES1    0.0000
     46 H20        2.7679    4.8511    8.3399 H         1 RES1    0.0000
     47 H21        1.1728    4.7980    8.4818 H         1 RES1    0.0000
     48 C19        2.2510    2.4084    4.5204 C.2       1 RES1    0.0000
     49 C20        3.7440    2.4693    4.4617 C.3       1 RES1    0.0000
     50 H22        4.1220    1.8719    5.1406 H         1 RES1    0.0000
     51 H23        4.0399    3.3881    4.6330 H         1 RES1    0.0000
     52 H24        4.0479    2.1879    3.5746 H         1 RES1    0.0000
     53 C21        2.8707    5.0323    3.0218 C.ar      1 RES1    0.0000
     54 C22        2.7129    4.1472    1.9525 C.ar      1 RES1    0.0000
     55 H25        2.0081    3.5106    1.9701 H         1 RES1    0.0000
     56 C23        3.5683    4.1869    0.8734 C.ar      1 RES1    0.0000
     57 H26        3.4774    3.5653    0.1612 H         1 RES1    0.0000
     58 C24        4.5558    5.1434    0.8463 C.ar      1 RES1    0.0000
     59 C25        4.6940    6.0866    1.8417 C.ar      1 RES1    0.0000
     60 H27        5.3530    6.7674    1.7777 H         1 RES1    0.0000
     61 C26        3.8484    6.0174    2.9371 C.ar      1 RES1    0.0000
     62 H28        3.9380    6.6507    3.6395 H         1 RES1    0.0000
@<TRIPOS>BOND
     1    1   23 2
     2    2   48 2
     3    3    9 2
     4    4    9 2
     5    5    6 1
     6    7   21 1
     7    8   24 1
     8    9   58 1
     9   10    5 1
    10   11   10 ar
    11   12   11 1
    12   13   11 ar
    13   14   13 1
    14   15   13 ar
    15   16   15 1
    16   17   15 ar
    17   18   17 1
    18   19   10 ar
    19   20   19 1
    20   21    5 1
    21   22   21 1
    22   23    7 1
    23   24   20 1
    24   25    8 1
    25   26   25 1
    26   27   25 1
    27   28   20 1
    28   29   28 1
    29   30   28 1
    30   31    7 1
    31   32   31 1
    32   33   31 1
    33   34   33 1
    34   35   33 1
    35   36   33 1
    36   37   36 1
    37   38   36 1
    38   39   36 1
    39   40   39 1
    40   41   39 1
    41   42   39 1
    42   43   42 1
    43   44   42 1
    44   45   31 1
    45   46   45 1
    46   47   45 1
    47   48    8 1
    48   49   48 1
    49   50   49 1
    50   51   49 1
    51   52   49 1
    52   53   24 1
    53   54   53 ar
    54   55   54 1
    55   56   54 ar
    56   57   56 1
    57   58   56 ar
    58   59   58 ar
    59   60   59 1
    60   61   53 ar
    61   62   61 1
    62   17   19 ar
    63   20   21 1
    64   23   24 1
    65   25   28 1
    66   42   45 1
    67   59   61 ar
@<TRIPOS>SUBSTRUCTURE
     1 RES1 1

@<TRIPOS>CRYSIN
  13.2370   14.7630   24.0550  90.0000  90.0000  90.0000  61 1

