# MOL2 file generated by ConQuest
# Please check atom types

@<TRIPOS>MOLECULE
UVOKAT
    11    12     1
SMALL
NO_CHARGES
****
Generated from CSD

@<TRIPOS>ATOM
      1 O1         3.1975    0.0000    4.5697 O.3       1 RES1    0.0000
      2 N1         2.4397    0.8638    3.8210 N.2       1 RES1    0.0000
      3 C1         2.7230    0.5339    2.5794 C.2       1 RES1    0.0000
      4 N2         2.2197    1.0943    1.4443 N.2       1 RES1    0.0000
      5 C2         2.7057    0.5419    0.3763 C.2       1 RES1    0.0000
      6 H1         2.4020    0.8632   -0.4650 H         1 RES1    0.0000
      7 N1A        3.9553   -0.8638    3.8210 N.2       1 RES1    0.0000
      8 C1A        3.6720   -0.5339    2.5794 C.2       1 RES1    0.0000
      9 N2A        4.1753   -1.0943    1.4443 N.2       1 RES1    0.0000
     10 C2A        3.6893   -0.5419    0.3763 C.2       1 RES1    0.0000
     11 H1A        3.9930   -0.8632   -0.4650 H         1 RES1    0.0000
@<TRIPOS>BOND
     1    1    2 1
     2    2    3 2
     3    3    4 1
     4    4    5 2
     5    5    6 1
     6    7    1 1
     7    8    3 1
     8    9    8 1
     9   10    5 1
    10   11   10 1
    11    7    8 2
    12    9   10 2
@<TRIPOS>SUBSTRUCTURE
     1 RES1 1

@<TRIPOS>CRYSIN
   6.3950    6.1790   12.6690  90.0000  90.0000  90.0000  41 1

