# MOL2 file generated by ConQuest
# Please check atom types

@<TRIPOS>MOLECULE
UWIRID
    35    36     1
SMALL
NO_CHARGES
****
Generated from CSD

@<TRIPOS>ATOM
      1 C1         2.6270    4.3669   10.6556 C.2       1 RES1    0.0000
      2 H1         2.6386    3.4366   10.6680 H         1 RES1    0.0000
      3 O1         3.6380    4.9145   10.3755 O.2       1 RES1    0.0000
      4 C2         1.3205    5.0415   10.9953 C.3       1 RES1    0.0000
      5 H2         0.5938    4.5512   10.5568 H         1 RES1    0.0000
      6 C3         1.3006    6.4984   10.4939 C.3       1 RES1    0.0000
      7 H3         2.0907    6.9476   10.8610 H         1 RES1    0.0000
      8 C4         0.0683    7.2125   11.0462 C.3       1 RES1    0.0000
      9 H4        -0.7266    6.8214   10.6510 H         1 RES1    0.0000
     10 H5         0.0235    7.0677   12.0051 H         1 RES1    0.0000
     11 N1         0.0717    8.6772   10.7776 N.pl3     1 RES1    0.0000
     12 O2         1.0965    9.2666   10.8471 O.2       1 RES1    0.0000
     13 O3        -0.9903    9.1938   10.5223 O.2       1 RES1    0.0000
     14 C5         1.1414    4.9253   12.5177 C.ar      1 RES1    0.0000
     15 C6         2.0584    5.4977   13.3685 C.ar      1 RES1    0.0000
     16 H6         2.8103    5.9198   13.0211 H         1 RES1    0.0000
     17 C7         1.8694    5.4489   14.7412 C.ar      1 RES1    0.0000
     18 H7         2.4874    5.8478   15.3110 H         1 RES1    0.0000
     19 C8         0.7667    4.8114   15.2646 C.ar      1 RES1    0.0000
     20 H8         0.6372    4.7828   16.1849 H         1 RES1    0.0000
     21 C9        -0.1360    4.2205   14.4278 C.ar      1 RES1    0.0000
     22 H9        -0.8726    3.7743   14.7798 H         1 RES1    0.0000
     23 C10        0.0426    4.2840   13.0551 C.ar      1 RES1    0.0000
     24 H10       -0.5835    3.8913   12.4899 H         1 RES1    0.0000
     25 C11        1.3774    6.6006    8.9892 C.ar      1 RES1    0.0000
     26 C12        0.3992    6.0220    8.1820 C.ar      1 RES1    0.0000
     27 H11       -0.3125    5.5720    8.5773 H         1 RES1    0.0000
     28 C13        0.4698    6.1049    6.8016 C.ar      1 RES1    0.0000
     29 H12       -0.1932    5.7130    6.2813 H         1 RES1    0.0000
     30 C14        1.4987    6.7555    6.2056 C.ar      1 RES1    0.0000
     31 H13        1.5451    6.8074    5.2776 H         1 RES1    0.0000
     32 C15        2.4786    7.3411    6.9838 C.ar      1 RES1    0.0000
     33 H14        3.1884    7.7849    6.5777 H         1 RES1    0.0000
     34 C16        2.4102    7.2729    8.3596 C.ar      1 RES1    0.0000
     35 H15        3.0683    7.6842    8.8707 H         1 RES1    0.0000
@<TRIPOS>BOND
     1    1    2 1
     2    3    1 2
     3    4    1 1
     4    5    4 1
     5    6    4 1
     6    7    6 1
     7    8    6 1
     8    9    8 1
     9   10    8 1
    10   11    8 1
    11   12   11 2
    12   13   11 2
    13   14    4 1
    14   15   14 ar
    15   16   15 1
    16   17   15 ar
    17   18   17 1
    18   19   17 ar
    19   20   19 1
    20   21   19 ar
    21   22   21 1
    22   23   14 ar
    23   24   23 1
    24   25    6 1
    25   26   25 ar
    26   27   26 1
    27   28   26 ar
    28   29   28 1
    29   30   28 ar
    30   31   30 1
    31   32   30 ar
    32   33   32 1
    33   34   25 ar
    34   35   34 1
    35   21   23 ar
    36   32   34 ar
@<TRIPOS>SUBSTRUCTURE
     1 RES1 1

