# MOL2 file generated by ConQuest
# Please check atom types

@<TRIPOS>MOLECULE
UWUDIB
    45    47     1
SMALL
NO_CHARGES
****
Generated from CSD

@<TRIPOS>ATOM
      1 O1         4.3727   16.5307    6.1362 O.2       1 RES1    0.0000
      2 O2         4.2960   13.6585   11.2350 O.2       1 RES1    0.0000
      3 O3         0.6494   16.2053   10.1862 O.2       1 RES1    0.0000
      4 O4         2.2041   12.5624   12.7957 O.3       1 RES1    0.0000
      5 N1         4.0480   16.5718    7.3705 N.3       1 RES1    0.0000
      6 N2         2.7268   15.1755   10.4587 N.am      1 RES1    0.0000
      7 C1         3.5802   15.3632    8.0881 C.3       1 RES1    0.0000
      8 C2         3.6146   15.8996    9.5383 C.3       1 RES1    0.0000
      9 H1         4.5494   15.7854    9.8748 H         1 RES1    0.0000
     10 C3         3.3466   17.4039    9.4423 C.3       1 RES1    0.0000
     11 H2         3.7654   17.8804   10.2009 H         1 RES1    0.0000
     12 H3         2.3730   17.5846    9.4504 H         1 RES1    0.0000
     13 C4         3.9671   17.8535    8.1135 C.3       1 RES1    0.0000
     14 C5         2.1851   14.9962    7.5781 C.3       1 RES1    0.0000
     15 H4         2.2274   14.8088    6.6171 H         1 RES1    0.0000
     16 H5         1.5715   15.7431    7.7377 H         1 RES1    0.0000
     17 H6         1.8618   14.2019    8.0522 H         1 RES1    0.0000
     18 C6         4.5586   14.2187    7.8869 C.3       1 RES1    0.0000
     19 H7         5.4634   14.5184    8.1147 H         1 RES1    0.0000
     20 H8         4.5366   13.9318    6.9502 H         1 RES1    0.0000
     21 H9         4.3076   13.4687    8.4651 H         1 RES1    0.0000
     22 C7         3.0611   18.8213    7.3549 C.3       1 RES1    0.0000
     23 H10        2.1809   18.4117    7.2242 H         1 RES1    0.0000
     24 H11        3.4591   19.0266    6.4830 H         1 RES1    0.0000
     25 H12        2.9620   19.6489    7.8718 H         1 RES1    0.0000
     26 C8         5.3677   18.4400    8.2465 C.3       1 RES1    0.0000
     27 H13        5.7624   18.5484    7.3561 H         1 RES1    0.0000
     28 H14        5.9259   17.8356    8.7796 H         1 RES1    0.0000
     29 H15        5.3158   19.3123    8.6894 H         1 RES1    0.0000
     30 C9         3.1740   14.0979   11.2070 C.2       1 RES1    0.0000
     31 C10        1.9795   13.6016   11.9767 C.2       1 RES1    0.0000
     32 C11        0.9235   14.3455   11.6823 C.2       1 RES1    0.0000
     33 H16        0.0491   14.2432   12.0408 H         1 RES1    0.0000
     34 C12        1.3466   15.3632   10.6993 C.2       1 RES1    0.0000
     35 C13        1.1436   12.1204   13.6263 C.ar      1 RES1    0.0000
     36 C14       -0.1216   11.8744   13.1267 C.ar      1 RES1    0.0000
     37 H17       -0.3150   12.0063   12.2062 H         1 RES1    0.0000
     38 C15       -1.1053   11.4299   14.0044 C.ar      1 RES1    0.0000
     39 H18       -1.9859   11.2689   13.6852 H         1 RES1    0.0000
     40 C16       -0.8070   11.2189   15.3424 C.ar      1 RES1    0.0000
     41 H19       -1.4842   10.9283   15.9414 H         1 RES1    0.0000
     42 C17        0.4899   11.4350   15.8038 C.ar      1 RES1    0.0000
     43 H20        0.7001   11.2659   16.7151 H         1 RES1    0.0000
     44 C18        1.4717   11.8908   14.9492 C.ar      1 RES1    0.0000
     45 H21        2.3556   12.0433   15.2626 H         1 RES1    0.0000
@<TRIPOS>BOND
     1    1    5 1
     2    2   30 2
     3    3   34 2
     4    4   31 1
     5    5    7 1
     6    6    8 1
     7    7    8 1
     8    8    9 1
     9   10    8 1
    10   11   10 1
    11   12   10 1
    12   13    5 1
    13   14    7 1
    14   15   14 1
    15   16   14 1
    16   17   14 1
    17   18    7 1
    18   19   18 1
    19   20   18 1
    20   21   18 1
    21   22   13 1
    22   23   22 1
    23   24   22 1
    24   25   22 1
    25   26   13 1
    26   27   26 1
    27   28   26 1
    28   29   26 1
    29   30    6 1
    30   31   30 1
    31   32   31 2
    32   33   32 1
    33   34    6 1
    34   35    4 1
    35   36   35 ar
    36   37   36 1
    37   38   36 ar
    38   39   38 1
    39   40   38 ar
    40   41   40 1
    41   42   40 ar
    42   43   42 1
    43   44   35 ar
    44   45   44 1
    45   10   13 1
    46   32   34 1
    47   42   44 ar
@<TRIPOS>SUBSTRUCTURE
     1 RES1 1

@<TRIPOS>CRYSIN
   6.4460   11.3110   12.8790  64.0140  89.9600  84.4400   2 1

