# MOL2 file generated by ConQuest
# Please check atom types

@<TRIPOS>MOLECULE
UWUJED
    43    36     2
SMALL
NO_CHARGES
****
Generated from CSD

@<TRIPOS>ATOM
      1 O1         0.6641    6.8365   15.8698 O.3       1 RES1    0.0000
      2 O2        -0.9346    7.7344   17.6879 O.2       1 RES1    0.0000
      3 O3         0.6774    8.2676   19.0079 O.2       1 RES1    0.0000
      4 N1         0.5853   10.9367   13.4927 N.1       1 RES1    0.0000
      5 N2         0.2272    7.8757   17.9547 N.pl3     1 RES1    0.0000
      6 C1        -0.7203    5.6647   13.8541 C.ar      1 RES1    0.0000
      7 H1        -0.4175    5.1738   14.5848 H         1 RES1    0.0000
      8 C2        -1.4092    5.0413   12.8439 C.ar      1 RES1    0.0000
      9 H2        -1.5604    4.1250   12.8961 H         1 RES1    0.0000
     10 C3        -1.8618    5.7006   11.8030 C.ar      1 RES1    0.0000
     11 H3        -2.3337    5.2569   11.1367 H         1 RES1    0.0000
     12 C4        -1.6327    7.0552   11.7078 C.ar      1 RES1    0.0000
     13 H4        -1.9332    7.5261   10.9647 H         1 RES1    0.0000
     14 C5        -0.9576    7.7153   12.7118 C.ar      1 RES1    0.0000
     15 H5        -0.8295    8.6348   12.6596 H         1 RES1    0.0000
     16 C6        -0.4765    7.0208   13.7844 C.ar      1 RES1    0.0000
     17 C7         0.3009    7.6634   14.8342 C.2       1 RES1    0.0000
     18 C8         0.8065    8.8950   15.0006 C.2       1 RES1    0.0000
     19 C9         1.6696    8.9389   16.2404 C.3       1 RES1    0.0000
     20 H6         1.3926    9.6804   16.8171 H         1 RES1    0.0000
     21 C10        1.2525    7.5955   16.8671 C.3       1 RES1    0.0000
     22 H7         2.0318    7.1318   17.2377 H         1 RES1    0.0000
     23 C11        0.6728   10.0140   14.1430 C.1       1 RES1    0.0000
     24 C12        3.1493    9.0339   15.9451 C.ar      1 RES1    0.0000
     25 C13        3.8281    8.0529   15.3985 C.ar      1 RES1    0.0000
     26 H8         3.4009    7.2651   15.1467 H         1 RES1    0.0000
     27 C14        5.2088    8.2109   15.1928 C.ar      1 RES1    0.0000
     28 H9         5.6811    7.4790   14.8704 H         1 RES1    0.0000
     29 C15        5.8466    9.2566   15.4139 C.ar      1 RES1    0.0000
     30 H10        6.9724    9.0913   15.3832 H         1 RES1    0.0000
     31 C16        5.1263   10.4052   15.9143 C.ar      1 RES1    0.0000
     32 H11        5.5535   11.2233   16.0310 H         1 RES1    0.0000
     33 C17        3.7853   10.2551   16.2122 C.ar      1 RES1    0.0000
     34 H12        3.3079   10.9591   16.5899 H         1 RES1    0.0000
     35 C18        3.6986    8.5805   14.7199 Du        2 SUP2    0.0000
     36 H13        3.1429    8.2437   14.0536 Du        2 SUP2    0.0000
     37 C19        5.0692    8.6364   14.5173 Du        2 SUP2    0.0000
     38 H14        5.4415    8.2437   13.7650 Du        2 SUP2    0.0000
     39 H15        6.6844    9.5806   15.1713 Du        2 SUP2    0.0000
     40 C20        5.3604    9.4106   16.7403 Du        2 SUP2    0.0000
     41 H16        5.9355    9.5319   17.4619 Du        2 SUP2    0.0000
     42 C21        4.0046    9.3547   16.8938 Du        2 SUP2    0.0000
     43 H17        3.6562    9.5687   17.7290 Du        2 SUP2    0.0000
@<TRIPOS>BOND
     1    1   17 1
     2    2    5 2
     3    3    5 2
     4    4   23 3
     5    5   21 1
     6    6    7 1
     7    8    6 ar
     8    9    8 1
     9   10    8 ar
    10   11   10 1
    11   12   10 ar
    12   13   12 1
    13   14   12 ar
    14   15   14 1
    15   16    6 ar
    16   17   16 1
    17   18   17 2
    18   19   18 1
    19   20   19 1
    20   21    1 1
    21   22   21 1
    22   23   18 1
    23   24   19 1
    24   25   24 ar
    25   26   25 1
    26   27   25 ar
    27   28   27 1
    28   29   27 ar
    29   30   29 1
    30   31   29 ar
    31   32   31 1
    32   33   24 ar
    33   34   33 1
    34   14   16 ar
    35   19   21 1
    36   31   33 ar
@<TRIPOS>SUBSTRUCTURE
     1 RES1 1
     2 SUP2 35

@<TRIPOS>CRYSIN
   9.2167    9.2167   30.7049  90.0000  90.0000 120.0000 170 1

