# MOL2 file generated by ConQuest
# Please check atom types

@<TRIPOS>MOLECULE
UWUXOB
    39    42     1
SMALL
NO_CHARGES
****
Generated from CSD

@<TRIPOS>ATOM
      1 N1         7.4204    0.4711    2.4375 N.2       1 RES1    0.0000
      2 N2         6.7514    0.9209    1.3130 N.pl3     1 RES1    0.0000
      3 H1         5.8970    0.7190    1.1921 H         1 RES1    0.0000
      4 N3         5.3277    1.9393   -1.0226 N.pl3     1 RES1    0.0000
      5 N4         9.1387    4.7261   -2.0225 N.pl3     1 RES1    0.0000
      6 O1         4.7392    1.0965   -0.3444 O.2       1 RES1    0.0000
      7 O2         4.8092    2.4611   -1.9954 O.2       1 RES1    0.0000
      8 O3         8.5227    5.1181   -2.9997 O.2       1 RES1    0.0000
      9 O4        10.2225    5.1881   -1.6899 O.2       1 RES1    0.0000
     10 C1         6.7003   -0.2711    3.2049 C.2       1 RES1    0.0000
     11 C2         5.2814   -0.6311    2.9599 C.3       1 RES1    0.0000
     12 H2         5.1173   -1.3217    2.2561 H         1 RES1    0.0000
     13 C3         4.1806    0.3857    3.1635 C.3       1 RES1    0.0000
     14 H3         4.4437    1.3066    3.4131 H         1 RES1    0.0000
     15 H4         3.3829    0.3253    2.5810 H         1 RES1    0.0000
     16 C4         4.3885   -0.6959    4.1719 C.3       1 RES1    0.0000
     17 H5         3.7104   -1.4292    4.1986 H         1 RES1    0.0000
     18 C5         5.1008   -0.3795    5.4537 C.3       1 RES1    0.0000
     19 H6         4.5022   -0.5733    6.2188 H         1 RES1    0.0000
     20 H7         5.3246    0.5848    5.4757 H         1 RES1    0.0000
     21 C6         6.3700   -1.1946    5.5885 C.3       1 RES1    0.0000
     22 H8         6.2091   -2.1758    5.6982 H         1 RES1    0.0000
     23 C7         7.4016   -0.6231    6.5697 C.3       1 RES1    0.0000
     24 H9         7.0182    0.0062    7.2312 H         1 RES1    0.0000
     25 H10        7.9534   -1.3137    7.0154 H         1 RES1    0.0000
     26 C8         8.1000    0.0613    5.4054 C.3       1 RES1    0.0000
     27 H11        9.0807   -0.0755    5.3934 H         1 RES1    0.0000
     28 H12        7.8750    1.0212    5.3133 H         1 RES1    0.0000
     29 C9         7.3385   -0.8461    4.4340 C.3       1 RES1    0.0000
     30 H13        7.8942   -1.6425    4.1963 H         1 RES1    0.0000
     31 C10        7.3330    1.8003    0.4842 C.ar      1 RES1    0.0000
     32 C11        6.6737    2.3307   -0.6595 C.ar      1 RES1    0.0000
     33 C12        7.2777    3.2699   -1.4803 C.ar      1 RES1    0.0000
     34 H14        6.8175    3.6112   -2.2383 H         1 RES1    0.0000
     35 C13        8.5427    3.7002   -1.1868 C.ar      1 RES1    0.0000
     36 C14        9.2407    3.1926   -0.0866 C.ar      1 RES1    0.0000
     37 H15       10.1243    3.4921    0.0957 H         1 RES1    0.0000
     38 C15        8.6531    2.2727    0.7198 C.ar      1 RES1    0.0000
     39 H16        9.1384    1.9341    1.4640 H         1 RES1    0.0000
@<TRIPOS>BOND
     1    1    2 1
     2    2    3 1
     3    4    6 2
     4    5    8 2
     5    7    4 2
     6    9    5 2
     7   10    1 2
     8   11   10 1
     9   12   11 1
    10   13   11 1
    11   14   13 1
    12   15   13 1
    13   16   11 1
    14   17   16 1
    15   18   16 1
    16   19   18 1
    17   20   18 1
    18   21   18 1
    19   22   21 1
    20   23   21 1
    21   24   23 1
    22   25   23 1
    23   26   23 1
    24   27   26 1
    25   28   26 1
    26   29   10 1
    27   30   29 1
    28   31    2 1
    29   32    4 1
    30   33   32 ar
    31   34   33 1
    32   35    5 1
    33   36   35 ar
    34   37   36 1
    35   38   31 ar
    36   39   38 1
    37   13   16 1
    38   21   29 1
    39   26   29 1
    40   31   32 ar
    41   33   35 ar
    42   36   38 ar
@<TRIPOS>SUBSTRUCTURE
     1 RES1 1

@<TRIPOS>CRYSIN
   7.3808    8.8881   22.5371  90.0000  99.1570  90.0000 231 1

