# MOL2 file generated by ConQuest
# Please check atom types

@<TRIPOS>MOLECULE
UXAFIK02
    56    59     1
SMALL
NO_CHARGES
****
Generated from CSD

@<TRIPOS>ATOM
      1 O1         6.4528    7.5994   18.1180 O.2       1 RES1    0.0000
      2 O2         4.2743    3.5576   19.4833 O.3       1 RES1    0.0000
      3 H1         4.6587    2.9586   19.0385 H         1 RES1    0.0000
      4 O3         2.1570    8.9264   18.5001 O.2       1 RES1    0.0000
      5 O4         1.0175    7.4428   19.5834 O.2       1 RES1    0.0000
      6 O5         3.6458    4.0462   22.2722 O.2       1 RES1    0.0000
      7 O6         5.6582    4.7217   22.6633 O.2       1 RES1    0.0000
      8 O7         3.9356    7.6074   15.1881 O.2       1 RES1    0.0000
      9 O8         2.1378    8.8008   15.3376 O.2       1 RES1    0.0000
     10 O9         0.8931    4.5961   21.2310 O.2       1 RES1    0.0000
     11 O10       -0.6602    5.6303   22.2507 O.2       1 RES1    0.0000
     12 N1         2.0650    7.9111   19.1739 N.pl3     1 RES1    0.0000
     13 N2         4.6372    4.7020   21.9948 N.pl3     1 RES1    0.0000
     14 N3         2.7800    7.7788   15.5427 N.pl3     1 RES1    0.0000
     15 N4         0.5073    5.5056   21.9348 N.pl3     1 RES1    0.0000
     16 C1         6.3192    6.4642   18.4957 C.2       1 RES1    0.0000
     17 C2         7.3269    5.6588   19.2795 C.3       1 RES1    0.0000
     18 H2         7.6236    6.1575   20.0829 H         1 RES1    0.0000
     19 H3         8.1184    5.4527   18.7226 H         1 RES1    0.0000
     20 C3         6.6009    4.3717   19.6811 C.3       1 RES1    0.0000
     21 H4         6.8190    4.1220   20.6140 H         1 RES1    0.0000
     22 H5         6.8528    3.6250   19.0819 H         1 RES1    0.0000
     23 C4         5.0985    4.7035   19.5399 C.3       1 RES1    0.0000
     24 C5         5.0438    5.6245   18.2774 C.3       1 RES1    0.0000
     25 C6         3.8229    6.5627   18.0728 C.3       1 RES1    0.0000
     26 H6         4.1583    7.3325   17.5301 H         1 RES1    0.0000
     27 C7         3.3641    7.1699   19.4349 C.3       1 RES1    0.0000
     28 H7         4.0493    7.8388   19.7216 H         1 RES1    0.0000
     29 C8         3.2098    6.1405   20.5583 C.3       1 RES1    0.0000
     30 H8         2.5791    5.4213   20.2685 H         1 RES1    0.0000
     31 C9         4.6164    5.5465   20.7417 C.3       1 RES1    0.0000
     32 H9         5.2586    6.3026   20.8667 H         1 RES1    0.0000
     33 C10        5.3046    4.8059   16.9950 C.3       1 RES1    0.0000
     34 H10        5.2624    5.3981   16.2152 H         1 RES1    0.0000
     35 H11        4.6239    4.1058   16.9101 H         1 RES1    0.0000
     36 H12        6.1928    4.3949   17.0444 H         1 RES1    0.0000
     37 C11        2.6396    5.9953   17.3014 C.ar      1 RES1    0.0000
     38 C12        2.0889    6.6566   16.1954 C.ar      1 RES1    0.0000
     39 C13        0.8919    6.2891   15.5996 C.ar      1 RES1    0.0000
     40 H13        0.5521    6.7787   14.8608 H         1 RES1    0.0000
     41 C14        0.2019    5.2019   16.0955 C.ar      1 RES1    0.0000
     42 H14       -0.6262    4.9429   15.7078 H         1 RES1    0.0000
     43 C15        0.7229    4.4944   17.1607 C.ar      1 RES1    0.0000
     44 H15        0.2601    3.7354   17.4945 H         1 RES1    0.0000
     45 C16        1.9191    4.8837   17.7469 C.ar      1 RES1    0.0000
     46 H16        2.2599    4.3775   18.4758 H         1 RES1    0.0000
     47 C17        2.7105    6.7614   21.8576 C.ar      1 RES1    0.0000
     48 C18        1.4646    6.5103   22.4513 C.ar      1 RES1    0.0000
     49 C19        1.0384    7.1850   23.5871 C.ar      1 RES1    0.0000
     50 H17        0.1728    7.0202   23.9427 H         1 RES1    0.0000
     51 C20        1.8759    8.0963   24.1996 C.ar      1 RES1    0.0000
     52 H18        1.5933    8.5564   24.9812 H         1 RES1    0.0000
     53 C21        3.1236    8.3338   23.6691 C.ar      1 RES1    0.0000
     54 H19        3.7114    8.9430   24.1006 H         1 RES1    0.0000
     55 C22        3.5266    7.6888   22.5076 C.ar      1 RES1    0.0000
     56 H20        4.3826    7.8841   22.1441 H         1 RES1    0.0000
@<TRIPOS>BOND
     1    1   16 2
     2    2    3 1
     3    4   12 2
     4    5   12 2
     5    6   13 2
     6    7   13 2
     7    8   14 2
     8    9   14 2
     9   10   15 2
    10   11   15 2
    11   12   27 1
    12   13   31 1
    13   14   38 1
    14   15   48 1
    15   16   17 1
    16   17   18 1
    17   19   17 1
    18   20   17 1
    19   21   20 1
    20   22   20 1
    21   23    2 1
    22   24   16 1
    23   25   24 1
    24   26   25 1
    25   27   25 1
    26   28   27 1
    27   29   27 1
    28   30   29 1
    29   31   23 1
    30   32   31 1
    31   33   24 1
    32   34   33 1
    33   35   33 1
    34   36   33 1
    35   37   25 1
    36   38   37 ar
    37   39   38 ar
    38   40   39 1
    39   41   39 ar
    40   42   41 1
    41   43   41 ar
    42   44   43 1
    43   45   37 ar
    44   46   45 1
    45   47   29 1
    46   48   47 ar
    47   49   48 ar
    48   50   49 1
    49   51   49 ar
    50   52   51 1
    51   53   51 ar
    52   54   53 1
    53   55   47 ar
    54   56   55 1
    55   20   23 1
    56   23   24 1
    57   29   31 1
    58   43   45 ar
    59   53   55 ar
@<TRIPOS>SUBSTRUCTURE
     1 RES1 1

@<TRIPOS>CRYSIN
   9.3887   11.6113   19.7433  90.0000  90.0000  90.0000  19 1

