# MOL2 file generated by ConQuest
# Please check atom types

@<TRIPOS>MOLECULE
UXAFIK01
    56    59     1
SMALL
NO_CHARGES
****
Generated from CSD

@<TRIPOS>ATOM
      1 O1        11.1415    9.8155    1.6248 O.2       1 RES1    0.0000
      2 O2         8.9641   13.8566    0.2593 O.3       1 RES1    0.0000
      3 H1         9.3520   14.4590    0.6972 H         1 RES1    0.0000
      4 O3         6.8476    8.4873    1.2449 O.2       1 RES1    0.0000
      5 O4         5.7092    9.9720    0.1582 O.2       1 RES1    0.0000
      6 O5         8.3370   13.3687   -2.5304 O.2       1 RES1    0.0000
      7 O6        10.3479   12.6928   -2.9226 O.2       1 RES1    0.0000
      8 O7         8.6267    9.8086    4.5576 O.2       1 RES1    0.0000
      9 O8         6.8277    8.6156    4.4079 O.2       1 RES1    0.0000
     10 O9         5.5858   12.8190   -1.4889 O.2       1 RES1    0.0000
     11 O10        4.0331   11.7808   -2.5074 O.2       1 RES1    0.0000
     12 N1         6.7565    9.5057    0.5694 N.pl3     1 RES1    0.0000
     13 N2         9.3266   12.7124   -2.2534 N.pl3     1 RES1    0.0000
     14 N3         7.4715    9.6349    4.2043 N.pl3     1 RES1    0.0000
     15 N4         5.1984   11.9082   -2.1938 N.pl3     1 RES1    0.0000
     16 C1        11.0056   10.9520    1.2487 C.2       1 RES1    0.0000
     17 C2        12.0154   11.7581    0.4661 C.3       1 RES1    0.0000
     18 H2        12.3145   11.2596   -0.3358 H         1 RES1    0.0000
     19 H3        12.8053   11.9654    1.0251 H         1 RES1    0.0000
     20 C3        11.2891   13.0417    0.0620 C.3       1 RES1    0.0000
     21 H4        11.5075   13.2900   -0.8710 H         1 RES1    0.0000
     22 H5        11.5413   13.7903    0.6597 H         1 RES1    0.0000
     23 C4         9.7881   12.7108    0.2028 C.3       1 RES1    0.0000
     24 C5         9.7334   11.7886    1.4673 C.3       1 RES1    0.0000
     25 C6         8.5135   10.8530    1.6712 C.3       1 RES1    0.0000
     26 H6         8.8490   10.0836    2.2141 H         1 RES1    0.0000
     27 C7         8.0541   10.2431    0.3087 C.3       1 RES1    0.0000
     28 H7         8.7392    9.5728    0.0237 H         1 RES1    0.0000
     29 C8         7.9014   11.2764   -0.8169 C.3       1 RES1    0.0000
     30 H8         7.2716   11.9967   -0.5274 H         1 RES1    0.0000
     31 C9         9.3055   11.8663   -0.9992 C.3       1 RES1    0.0000
     32 H9         9.9469   11.1098   -1.1239 H         1 RES1    0.0000
     33 C10        9.9939   12.6091    2.7496 C.3       1 RES1    0.0000
     34 H10        9.9544   12.0176    3.5296 H         1 RES1    0.0000
     35 H11        9.3107   13.3074    2.8343 H         1 RES1    0.0000
     36 H12       10.8797   13.0230    2.6980 H         1 RES1    0.0000
     37 C11        7.3308   11.4192    2.4427 C.ar      1 RES1    0.0000
     38 C12        6.7808   10.7612    3.5493 C.ar      1 RES1    0.0000
     39 C13        5.5853   11.1275    4.1438 C.ar      1 RES1    0.0000
     40 H13        5.2456   10.6373    4.8825 H         1 RES1    0.0000
     41 C14        4.8937   12.2148    3.6481 C.ar      1 RES1    0.0000
     42 H14        4.0670   12.4750    4.0372 H         1 RES1    0.0000
     43 C15        5.4154   12.9186    2.5819 C.ar      1 RES1    0.0000
     44 H15        4.9509   13.6766    2.2457 H         1 RES1    0.0000
     45 C16        6.6100   12.5315    1.9969 C.ar      1 RES1    0.0000
     46 H16        6.9507   13.0381    1.2700 H         1 RES1    0.0000
     47 C17        7.4009   10.6533   -2.1166 C.ar      1 RES1    0.0000
     48 C18        6.1566   10.9044   -2.7085 C.ar      1 RES1    0.0000
     49 C19        5.7289   10.2299   -3.8466 C.ar      1 RES1    0.0000
     50 H17        4.8637   10.3947   -4.2011 H         1 RES1    0.0000
     51 C20        6.5678    9.3205   -4.4579 C.ar      1 RES1    0.0000
     52 H18        6.2853    8.8611   -5.2400 H         1 RES1    0.0000
     53 C21        7.8140    9.0828   -3.9288 C.ar      1 RES1    0.0000
     54 H19        8.4033    8.4757   -4.3611 H         1 RES1    0.0000
     55 C22        8.2162    9.7261   -2.7662 C.ar      1 RES1    0.0000
     56 H20        9.0714    9.5287   -2.4018 H         1 RES1    0.0000
@<TRIPOS>BOND
     1    1   16 2
     2    2    3 1
     3    4   12 2
     4    5   12 2
     5    6   13 2
     6    7   13 2
     7    8   14 2
     8    9   14 2
     9   10   15 2
    10   11   15 2
    11   12   27 1
    12   13   31 1
    13   14   38 1
    14   15   48 1
    15   16   17 1
    16   17   18 1
    17   19   17 1
    18   20   17 1
    19   21   20 1
    20   22   20 1
    21   23    2 1
    22   24   16 1
    23   25   24 1
    24   26   25 1
    25   27   25 1
    26   28   27 1
    27   29   27 1
    28   30   29 1
    29   31   23 1
    30   32   31 1
    31   33   24 1
    32   34   33 1
    33   35   33 1
    34   36   33 1
    35   37   25 1
    36   38   37 ar
    37   39   38 ar
    38   40   39 1
    39   41   39 ar
    40   42   41 1
    41   43   41 ar
    42   44   43 1
    43   45   37 ar
    44   46   45 1
    45   47   29 1
    46   48   47 ar
    47   49   48 ar
    48   50   49 1
    49   51   49 ar
    50   52   51 1
    51   53   51 ar
    52   54   53 1
    53   55   47 ar
    54   56   55 1
    55   20   23 1
    56   23   24 1
    57   29   31 1
    58   43   45 ar
    59   53   55 ar
@<TRIPOS>SUBSTRUCTURE
     1 RES1 1

@<TRIPOS>CRYSIN
   9.3839   11.6090   19.7514  90.0000  90.0000  90.0000  19 1

