# MOL2 file generated by ConQuest
# Please check atom types

@<TRIPOS>MOLECULE
UXIJIV
    14    13     1
SMALL
NO_CHARGES
****
Generated from CSD

@<TRIPOS>ATOM
      1 O1         1.1753    1.4880    6.7903 O.2       1 RES1    0.0000
      2 O2         3.3139    1.4880    7.1660 O.2       1 RES1    0.0000
      3 O3         3.9934    1.4880    9.7247 O.2       1 RES1    0.0000
      4 N1         1.8566    1.4880    8.8725 N.am      1 RES1    0.0000
      5 H1         1.0264    1.4880    9.0959 H         1 RES1    0.0000
      6 N2         2.1520    1.4880    7.5185 N.pl3     1 RES1    0.0000
      7 C1         2.7975    1.4880    9.9022 C.2       1 RES1    0.0000
      8 C2         2.1356    1.4880   11.2573 C.3       1 RES1    0.0000
      9 H2         1.5710    0.7035   11.3380 H         1 RES1    0.0000
     10 C3         3.1562    1.4880   12.3830 C.3       1 RES1    0.0000
     11 H3         2.7009    1.4880   13.2281 H         1 RES1    0.0000
     12 H4         3.7065    2.2719   12.3156 H         1 RES1    0.0000
     13 H2C        1.5710    2.2725   11.3380 H         1 RES1    0.0000
     14 H4C        3.7065    0.7041   12.3156 H         1 RES1    0.0000
@<TRIPOS>BOND
     1    1    6 2
     2    2    6 2
     3    3    7 2
     4    4    5 1
     5    6    4 1
     6    7    4 1
     7    8    7 1
     8    9    8 1
     9   10    8 1
    10   11   10 1
    11   12   10 1
    12   13    8 1
    13   14   10 1
@<TRIPOS>SUBSTRUCTURE
     1 RES1 1

@<TRIPOS>CRYSIN
   4.8970    5.9520    8.8520  90.0000 100.9750  90.0000  11 1

