# MOL2 file generated by ConQuest
# Please check atom types

@<TRIPOS>MOLECULE
UXOMAW
    47    49     1
SMALL
NO_CHARGES
****
Generated from CSD

@<TRIPOS>ATOM
      1 N1         2.3297    2.9808    2.9845 N.3       1 RES1    0.0000
      2 C1         1.2146    3.7394    2.6834 C.2       1 RES1    0.0000
      3 C2         1.3803    4.9858    3.2706 C.2       1 RES1    0.0000
      4 C3         2.6409    4.9877    3.9339 C.2       1 RES1    0.0000
      5 C4         3.1844    3.7333    3.7185 C.2       1 RES1    0.0000
      6 H1         4.0307    3.4432    4.0376 H         1 RES1    0.0000
      7 C5         0.0649    3.1881    1.9580 C.2       1 RES1    0.0000
      8 O1        -0.0974    2.0220    1.6835 O.2       1 RES1    0.0000
      9 O2        -0.8038    4.1529    1.6508 O.3       1 RES1    0.0000
     10 C6        -2.0128    3.7468    0.9721 C.3       1 RES1    0.0000
     11 H2        -1.7818    3.3153    0.1229 H         1 RES1    0.0000
     12 H3        -2.5691    4.5335    0.7965 H         1 RES1    0.0000
     13 H4        -2.5070    3.1153    1.5349 H         1 RES1    0.0000
     14 C7         0.3468    6.0560    3.2787 C.2       1 RES1    0.0000
     15 O3        -0.3750    6.2932    4.2136 O.2       1 RES1    0.0000
     16 O4         0.3250    6.7283    2.1230 O.3       1 RES1    0.0000
     17 C8        -0.8141    7.5951    1.9124 C.3       1 RES1    0.0000
     18 H5        -1.6340    7.1260    2.1757 H         1 RES1    0.0000
     19 H6        -0.8673    7.8406    0.9655 H         1 RES1    0.0000
     20 H7        -0.7127    8.4046    2.4544 H         1 RES1    0.0000
     21 C9         2.6552    1.6258    2.5222 C.3       1 RES1    0.0000
     22 H8         1.8887    1.0297    2.7144 H         1 RES1    0.0000
     23 H9         3.4323    1.2904    3.0359 H         1 RES1    0.0000
     24 C10        2.9745    1.5504    1.0489 C.ar      1 RES1    0.0000
     25 C11        3.6113    2.5851    0.3824 C.ar      1 RES1    0.0000
     26 H10        3.8237    3.3866    0.8459 H         1 RES1    0.0000
     27 C12        3.9414    2.4533   -0.9622 C.ar      1 RES1    0.0000
     28 H11        4.3842    3.1632   -1.4121 H         1 RES1    0.0000
     29 C13        3.6305    1.3015   -1.6414 C.ar      1 RES1    0.0000
     30 H12        3.8486    1.2204   -2.5630 H         1 RES1    0.0000
     31 C14        3.0046    0.2655   -0.9888 C.ar      1 RES1    0.0000
     32 H13        2.7939   -0.5340   -1.4570 H         1 RES1    0.0000
     33 C15        2.6806    0.3901    0.3532 C.ar      1 RES1    0.0000
     34 H14        2.2522   -0.3299    0.8009 H         1 RES1    0.0000
     35 C16        3.3137    6.0701    4.6718 C.ar      1 RES1    0.0000
     36 C17        4.5040    5.7933    5.3594 C.ar      1 RES1    0.0000
     37 H15        4.8420    4.9060    5.4014 H         1 RES1    0.0000
     38 C18        5.1771    6.8280    5.9741 C.ar      1 RES1    0.0000
     39 C19        4.7405    8.1340    5.9740 C.ar      1 RES1    0.0000
     40 H16        5.2367    8.8219    6.4009 H         1 RES1    0.0000
     41 C20        3.5508    8.4009    5.3266 C.ar      1 RES1    0.0000
     42 H17        3.2061    9.2858    5.3235 H         1 RES1    0.0000
     43 C21        2.8554    7.3922    4.6821 C.ar      1 RES1    0.0000
     44 H18        2.0449    7.6036    4.2340 H         1 RES1    0.0000
     45 N2         6.4471    6.5027    6.6572 N.pl3     1 RES1    0.0000
     46 O5         6.7449    5.3221    6.7869 O.2       1 RES1    0.0000
     47 O6         7.1332    7.4227    7.0766 O.2       1 RES1    0.0000
@<TRIPOS>BOND
     1    1    2 1
     2    2    3 2
     3    3    4 1
     4    4    5 2
     5    5    1 1
     6    6    5 1
     7    7    2 1
     8    8    7 2
     9    9    7 1
    10   10    9 1
    11   11   10 1
    12   12   10 1
    13   13   10 1
    14   14    3 1
    15   15   14 2
    16   16   14 1
    17   17   16 1
    18   18   17 1
    19   19   17 1
    20   20   17 1
    21   21    1 1
    22   22   21 1
    23   23   21 1
    24   24   21 1
    25   25   24 ar
    26   26   25 1
    27   27   25 ar
    28   28   27 1
    29   29   27 ar
    30   30   29 1
    31   31   29 ar
    32   32   31 1
    33   33   24 ar
    34   34   33 1
    35   35    4 1
    36   36   35 ar
    37   37   36 1
    38   38   36 ar
    39   39   38 ar
    40   40   39 1
    41   41   39 ar
    42   42   41 1
    43   43   35 ar
    44   44   43 1
    45   45   38 1
    46   46   45 2
    47   47   45 2
    48   31   33 ar
    49   41   43 ar
@<TRIPOS>SUBSTRUCTURE
     1 RES1 1

@<TRIPOS>CRYSIN
   9.0976    9.2228   11.7610  90.5240 110.9980  94.3040   2 1

