# MOL2 file generated by ConQuest
# Please check atom types

@<TRIPOS>MOLECULE
UXUCUM
    67    71     1
SMALL
NO_CHARGES
****
Generated from CSD

@<TRIPOS>ATOM
      1 C1        -0.0600    0.1720    8.7376 C.ar      1 RES1    0.0000
      2 H1        -0.7140   -0.2874    8.2632 H         1 RES1    0.0000
      3 C2         0.1870   -0.1499   10.0491 C.ar      1 RES1    0.0000
      4 H2        -0.3011   -0.8371   10.4444 H         1 RES1    0.0000
      5 C3         1.1313    0.5095   10.7950 C.ar      1 RES1    0.0000
      6 C4         1.3455    0.1902   12.2581 C.3       1 RES1    0.0000
      7 H3         2.0937    0.6914   12.5887 H         1 RES1    0.0000
      8 H4         1.5195   -0.7497   12.3591 H         1 RES1    0.0000
      9 H5         0.5584    0.4234   12.7555 H         1 RES1    0.0000
     10 C5         1.8420    1.4841   10.1558 C.ar      1 RES1    0.0000
     11 H6         2.5021    1.9395   10.6263 H         1 RES1    0.0000
     12 C6         1.6132    1.8159    8.8333 C.ar      1 RES1    0.0000
     13 H7         2.1175    2.4837    8.4278 H         1 RES1    0.0000
     14 C7         0.6516    1.1663    8.1272 C.ar      1 RES1    0.0000
     15 C8         1.1438    1.2868    5.6575 C.2       1 RES1    0.0000
     16 C9         2.4426    0.5825    5.7407 C.ar      1 RES1    0.0000
     17 C10        2.5797   -0.6453    6.3671 C.ar      1 RES1    0.0000
     18 H8         1.8402   -1.0329    6.7773 H         1 RES1    0.0000
     19 C11        3.7934   -1.3058    6.3964 C.ar      1 RES1    0.0000
     20 H9         3.8673   -2.1255    6.8293 H         1 RES1    0.0000
     21 C12        4.8994   -0.7441    5.7808 C.ar      1 RES1    0.0000
     22 C13        7.1895   -1.0579    5.1145 C.3       1 RES1    0.0000
     23 H10        6.9478   -0.9649    4.1912 H         1 RES1    0.0000
     24 H11        7.8907   -1.7090    5.1984 H         1 RES1    0.0000
     25 H12        7.4943   -0.2138    5.4539 H         1 RES1    0.0000
     26 C14        4.7954    0.4712    5.1578 C.ar      1 RES1    0.0000
     27 H13        5.5398    0.8538    4.7522 H         1 RES1    0.0000
     28 C15        3.5689    1.1315    5.1336 C.ar      1 RES1    0.0000
     29 H14        3.5020    1.9533    4.7045 H         1 RES1    0.0000
     30 C16        0.5109    1.8269    4.5646 C.2       1 RES1    0.0000
     31 C17        0.8687    1.7044    3.1402 C.ar      1 RES1    0.0000
     32 C18        1.1507    0.4588    2.5983 C.ar      1 RES1    0.0000
     33 H15        1.1683   -0.2860    3.1558 H         1 RES1    0.0000
     34 C19        1.4069    0.3006    1.2463 C.ar      1 RES1    0.0000
     35 H16        1.5973   -0.5387    0.8924 H         1 RES1    0.0000
     36 C20        1.3737    1.4090    0.4440 C.ar      1 RES1    0.0000
     37 C21        1.1192    2.6630    0.9329 C.ar      1 RES1    0.0000
     38 H17        1.1109    3.4013    0.3682 H         1 RES1    0.0000
     39 C22        0.8726    2.8031    2.2890 C.ar      1 RES1    0.0000
     40 H18        0.7073    3.6498    2.6360 H         1 RES1    0.0000
     41 C23       -0.6933    2.4473    5.0407 C.2       1 RES1    0.0000
     42 C24       -1.6635    3.0626    4.2005 C.1       1 RES1    0.0000
     43 C25       -0.7680    2.2471    6.4065 C.2       1 RES1    0.0000
     44 C26       -2.6680    3.3282    7.1865 C.2       1 RES1    0.0000
     45 H19       -2.8261    3.6082    6.3138 H         1 RES1    0.0000
     46 C27       -3.5901    3.7459    8.2264 C.ar      1 RES1    0.0000
     47 C28       -4.7271    4.4735    7.8941 C.ar      1 RES1    0.0000
     48 H20       -4.8973    4.6702    7.0004 H         1 RES1    0.0000
     49 C29       -5.6019    4.9067    8.8576 C.ar      1 RES1    0.0000
     50 H21       -6.3561    5.3949    8.6163 H         1 RES1    0.0000
     51 C30       -5.3661    4.6187   10.1762 C.ar      1 RES1    0.0000
     52 C31       -6.0679    4.9035   12.4470 C.3       1 RES1    0.0000
     53 H22       -6.0196    3.9650   12.6407 H         1 RES1    0.0000
     54 H23       -6.7858    5.2964   12.9482 H         1 RES1    0.0000
     55 H24       -5.2396    5.3241   12.6905 H         1 RES1    0.0000
     56 C32       -4.2382    3.9014   10.5492 C.ar      1 RES1    0.0000
     57 H25       -4.0738    3.7081   11.4450 H         1 RES1    0.0000
     58 C33       -3.3638    3.4795    9.5680 C.ar      1 RES1    0.0000
     59 H26       -2.6037    3.0043    9.8141 H         1 RES1    0.0000
     60 N1         0.3547    1.5374    6.7786 N.pl3     1 RES1    0.0000
     61 N2        -1.6513    2.5958    7.4159 N.2       1 RES1    0.0000
     62 N3        -2.4201    3.5529    3.4991 N.1       1 RES1    0.0000
     63 N4         1.6334    1.2425   -0.9987 N.pl3     1 RES1    0.0000
     64 O1         6.0549   -1.4865    5.8596 O.3       1 RES1    0.0000
     65 O2        -6.3037    5.0908   11.0532 O.3       1 RES1    0.0000
     66 O3         1.4893    2.2073   -1.7211 O.2       1 RES1    0.0000
     67 O4         1.9843    0.1449   -1.4055 O.2       1 RES1    0.0000
@<TRIPOS>BOND
     1    1    2 1
     2    3    1 ar
     3    4    3 1
     4    5    3 ar
     5    6    5 1
     6    7    6 1
     7    8    6 1
     8    9    6 1
     9   10    5 ar
    10   11   10 1
    11   12   10 ar
    12   13   12 1
    13   14    1 ar
    14   15   16 1
    15   16   17 ar
    16   17   18 1
    17   19   17 ar
    18   20   19 1
    19   21   19 ar
    20   22   23 1
    21   24   22 1
    22   25   22 1
    23   26   21 ar
    24   27   26 1
    25   28   16 ar
    26   29   28 1
    27   30   15 2
    28   31   30 1
    29   32   31 ar
    30   33   32 1
    31   34   32 ar
    32   35   34 1
    33   36   34 ar
    34   37   36 ar
    35   38   37 1
    36   39   31 ar
    37   40   39 1
    38   41   30 1
    39   42   41 1
    40   43   41 2
    41   44   45 1
    42   46   44 1
    43   47   46 ar
    44   48   47 1
    45   49   47 ar
    46   50   49 1
    47   51   49 ar
    48   52   53 1
    49   54   52 1
    50   55   52 1
    51   56   51 ar
    52   57   56 1
    53   58   46 ar
    54   59   58 1
    55   60   14 1
    56   61   43 1
    57   62   42 3
    58   63   36 1
    59   64   21 1
    60   65   51 1
    61   66   63 2
    62   67   63 2
    63   12   14 ar
    64   15   60 1
    65   22   64 1
    66   26   28 ar
    67   37   39 ar
    68   43   60 1
    69   44   61 2
    70   52   65 1
    71   56   58 ar
@<TRIPOS>SUBSTRUCTURE
     1 RES1 1

@<TRIPOS>CRYSIN
   9.3082   13.8830   21.8430  90.0000  97.4260  90.0000  14 1

