# MOL2 file generated by ConQuest
# Please check atom types

@<TRIPOS>MOLECULE
UXUGAW
    23    24     1
SMALL
NO_CHARGES
****
Generated from CSD

@<TRIPOS>ATOM
      1 O1         2.4752    7.4502    7.5998 O.2       1 RES1    0.0000
      2 O2         1.3692    5.6589    8.1007 O.2       1 RES1    0.0000
      3 O3        -0.0741    8.1690    2.2683 O.3       1 RES1    0.0000
      4 O4         1.3581    6.5676    1.5261 O.3       1 RES1    0.0000
      5 N1         0.2768    5.7226    4.1675 N.3       1 RES1    0.0000
      6 N2         1.6747    7.2720    4.9727 N.2       1 RES1    0.0000
      7 N3         1.7493    6.5108    7.2963 N.pl3     1 RES1    0.0000
      8 C1         1.0348    6.8368    3.9052 C.2       1 RES1    0.0000
      9 C2         1.2966    6.3916    5.9417 C.2       1 RES1    0.0000
     10 C3         0.4461    5.4260    5.4829 C.2       1 RES1    0.0000
     11 H1         0.0369    4.6933    5.8946 H         1 RES1    0.0000
     12 C4        -0.5528    4.9481    3.2342 C.3       1 RES1    0.0000
     13 H2         0.0132    4.3214    2.7361 H         1 RES1    0.0000
     14 H3        -0.9953    5.5576    2.6070 H         1 RES1    0.0000
     15 H4        -1.2301    4.4481    3.7374 H         1 RES1    0.0000
     16 C5         1.1356    7.5091    2.5734 C.3       1 RES1    0.0000
     17 H5         1.8605    8.1626    2.5992 H         1 RES1    0.0000
     18 C6        -0.0320    8.3108    0.8331 C.3       1 RES1    0.0000
     19 H6         0.5627    9.0552    0.6082 H         1 RES1    0.0000
     20 H7        -0.9369    8.4726    0.5104 H         1 RES1    0.0000
     21 C7         0.5449    6.9746    0.4025 C.3       1 RES1    0.0000
     22 H8        -0.1416    6.3124    0.2816 H         1 RES1    0.0000
     23 H9         1.1250    7.0399   -0.3990 H         1 RES1    0.0000
@<TRIPOS>BOND
     1    1    7 2
     2    2    7 2
     3    3   16 1
     4    4   16 1
     5    5    8 1
     6    6    8 2
     7    7    9 1
     8    8   16 1
     9    9    6 1
    10   10    5 1
    11   11   10 1
    12   12    5 1
    13   13   12 1
    14   14   12 1
    15   15   12 1
    16   16   17 1
    17   18    3 1
    18   19   18 1
    19   20   18 1
    20   21    4 1
    21   22   21 1
    22   23   21 1
    23    9   10 2
    24   18   21 1
@<TRIPOS>SUBSTRUCTURE
     1 RES1 1

@<TRIPOS>CRYSIN
   4.3538   10.1323   19.6050  90.0000  93.9940  90.0000  14 1

