# MOL2 file generated by ConQuest
# Please check atom types

@<TRIPOS>MOLECULE
UXUKII
    21    21     1
SMALL
USER_CHARGES
****
Generated from CSD

@<TRIPOS>ATOM
      1 C1         1.8169    0.9117    5.6448 C.ar      1 RES1    0.0000
      2 C2         0.8822    0.3098    4.7542 C.ar      1 RES1    0.0000
      3 C3         0.0421    1.2114    4.0423 C.ar      1 RES1    0.0000
      4 H1        -0.5985    0.8695    3.4304 H         1 RES1    0.0000
      5 C4         0.1436    2.5682    4.2274 C.ar      1 RES1    0.0000
      6 H2        -0.4161    3.1517    3.7292 H         1 RES1    0.0000
      7 C5         1.0471    3.0954    5.1283 C.ar      1 RES1    0.0000
      8 H3         1.1050    4.0345    5.2570 H         1 RES1    0.0000
      9 C6         2.7633    0.0695    6.4249 C.2       1 RES1    0.0000
     10 C7         2.7860    2.8654    6.7961 C.3       1 RES1    0.0000
     11 H4         3.6952    2.8433    6.4303 H         1 RES1    0.0000
     12 H5         2.7587    2.3564    7.6330 H         1 RES1    0.0000
     13 H6         2.5266    3.7941    6.9707 H         1 RES1    0.0000
     14 N1         1.8448    2.2636    5.8200 N.pl3     1 RES1    1.0000
     15 N2         2.3661   -0.2039    7.6150 N.2       1 RES1    0.0000
     16 N3         3.9528   -0.2563    5.8407 N.3       1 RES1    0.0000
     17 O1         0.8171   -0.9709    4.6179 O.2       1 RES1   -1.0000
     18 O2         3.3376   -0.9970    8.3035 O.3       1 RES1    0.0000
     19 H7         4.4543   -0.8377    6.3144 H         1 RES1    0.0000
     20 H8         4.0048   -0.1846    4.8845 H         1 RES1    0.0000
     21 H9         2.8615   -1.3131    9.0690 H         1 RES1    0.0000
@<TRIPOS>BOND
     1    1    2 ar
     2    2    3 ar
     3    3    4 1
     4    5    3 ar
     5    6    5 1
     6    7    5 ar
     7    8    7 1
     8    9    1 1
     9   10   11 1
    10   12   10 1
    11   13   10 1
    12   14    1 ar
    13   15    9 2
    14   16    9 1
    15   17    2 1
    16   18   15 1
    17   19   16 1
    18   20   16 1
    19   21   18 1
    20    7   14 ar
    21   10   14 1
@<TRIPOS>SUBSTRUCTURE
     1 RES1 1

@<TRIPOS>CRYSIN
   6.9464    6.9984    7.9374  98.4130 104.9650  98.2110   2 1

