# MOL2 file generated by ConQuest
# Please check atom types

@<TRIPOS>MOLECULE
UXULIJ
    55    57     1
SMALL
NO_CHARGES
****
Generated from CSD

@<TRIPOS>ATOM
      1 O1         5.3054    7.7725    1.6939 O.3       1 RES1    0.0000
      2 N1         6.6700    8.0953    1.8646 N.am      1 RES1    0.0000
      3 C1         6.9997    9.5044    1.5564 C.3       1 RES1    0.0000
      4 C2         6.4262   10.4228    2.6094 C.ar      1 RES1    0.0000
      5 C3         7.0451   10.4857    3.8997 C.ar      1 RES1    0.0000
      6 C4         8.2424    9.7886    4.2207 C.ar      1 RES1    0.0000
      7 C5         8.8151    9.9052    5.4558 C.ar      1 RES1    0.0000
      8 C6         8.2189   10.6878    6.4524 C.ar      1 RES1    0.0000
      9 C7         7.0548   11.3526    6.1885 C.ar      1 RES1    0.0000
     10 C8         6.4513   11.2891    4.9129 C.ar      1 RES1    0.0000
     11 C9         5.2686   12.0187    4.6159 C.ar      1 RES1    0.0000
     12 C10        4.7162   11.9724    3.3712 C.ar      1 RES1    0.0000
     13 C11        5.3011   11.1745    2.3662 C.ar      1 RES1    0.0000
     14 C12        6.6030    9.8274    0.1198 C.3       1 RES1    0.0000
     15 C13        7.5651    7.1004    1.5381 C.2       1 RES1    0.0000
     16 O2         8.7766    7.3344    1.5729 O.2       1 RES1    0.0000
     17 C14        7.0127    5.7772    1.1776 C.2       1 RES1    0.0000
     18 C15        7.6291    4.6542    1.5297 C.2       1 RES1    0.0000
     19 C16        7.2341    3.2857    1.1550 C.ar      1 RES1    0.0000
     20 C17        7.7833    2.2015    1.8336 C.ar      1 RES1    0.0000
     21 C18        7.4888    0.8996    1.4572 C.ar      1 RES1    0.0000
     22 C19        6.6403    0.6578    0.3948 C.ar      1 RES1    0.0000
     23 C20        6.0733    1.7256   -0.2775 C.ar      1 RES1    0.0000
     24 C21        6.3629    3.0324    0.0951 C.ar      1 RES1    0.0000
     25 C22        4.5783    7.3227    2.9219 C.3       1 RES1    0.0000
     26 C23        3.7696    6.1351    2.4224 C.3       1 RES1    0.0000
     27 C24        3.6560    8.4509    3.3518 C.3       1 RES1    0.0000
     28 C25        5.5128    6.9327    4.0458 C.3       1 RES1    0.0000
     29 H1         7.9999    9.5458    1.6085 H         1 RES1    0.0000
     30 H2         8.6383    9.2256    3.5313 H         1 RES1    0.0000
     31 H3         9.6271    9.4390    5.6433 H         1 RES1    0.0000
     32 H4         8.6237   10.7432    7.3313 H         1 RES1    0.0000
     33 H5         6.6330   11.8730    6.8667 H         1 RES1    0.0000
     34 H6         4.8849   12.5706    5.3125 H         1 RES1    0.0000
     35 H7         3.9237   12.4821    3.1733 H         1 RES1    0.0000
     36 H8         4.8938   11.1415    1.4998 H         1 RES1    0.0000
     37 H9         6.8253   10.7640   -0.0495 H         1 RES1    0.0000
     38 H10        7.0775    9.2360   -0.5006 H         1 RES1    0.0000
     39 H11        5.6401    9.6863    0.0194 H         1 RES1    0.0000
     40 H12        6.2104    5.7243    0.6830 H         1 RES1    0.0000
     41 H13        8.4160    4.7690    2.0683 H         1 RES1    0.0000
     42 H14        8.3973    2.3819    2.5670 H         1 RES1    0.0000
     43 H15        7.8871    0.1640    1.9461 H         1 RES1    0.0000
     44 H16        6.4708   -0.2499    0.1271 H         1 RES1    0.0000
     45 H17        5.4690    1.5593   -1.0051 H         1 RES1    0.0000
     46 H18        5.9816    3.7642   -0.3842 H         1 RES1    0.0000
     47 H19        3.1774    5.8597    3.1452 H         1 RES1    0.0000
     48 H20        4.3852    5.4015    2.1915 H         1 RES1    0.0000
     49 H21        3.2577    6.4142    1.6589 H         1 RES1    0.0000
     50 H22        3.0395    8.0620    4.0028 H         1 RES1    0.0000
     51 H23        3.1814    8.7570    2.5583 H         1 RES1    0.0000
     52 H24        4.2133    9.1683    3.7321 H         1 RES1    0.0000
     53 H25        4.9709    6.6510    4.7935 H         1 RES1    0.0000
     54 H26        6.0968    6.1981    3.7709 H         1 RES1    0.0000
     55 H27        6.0409    7.7001    4.2987 H         1 RES1    0.0000
@<TRIPOS>BOND
     1    1    2 1
     2    2    3 1
     3    3    4 1
     4    4    5 ar
     5    5    6 ar
     6    6    7 ar
     7    7    8 ar
     8    8    9 ar
     9    9   10 ar
    10   10    5 ar
    11   11   10 ar
    12   12   11 ar
    13   13    4 ar
    14   14    3 1
    15   15    2 1
    16   16   15 2
    17   17   15 1
    18   18   17 2
    19   19   18 1
    20   20   19 ar
    21   21   20 ar
    22   22   21 ar
    23   23   22 ar
    24   24   19 ar
    25   25    1 1
    26   26   25 1
    27   27   25 1
    28   28   25 1
    29   29    3 1
    30   30    6 1
    31   31    7 1
    32   32    8 1
    33   33    9 1
    34   34   11 1
    35   35   12 1
    36   36   13 1
    37   37   14 1
    38   38   14 1
    39   39   14 1
    40   40   17 1
    41   41   18 1
    42   42   20 1
    43   43   21 1
    44   44   22 1
    45   45   23 1
    46   46   24 1
    47   47   26 1
    48   48   26 1
    49   49   26 1
    50   50   27 1
    51   51   27 1
    52   52   27 1
    53   53   28 1
    54   54   28 1
    55   55   28 1
    56   12   13 ar
    57   23   24 ar
@<TRIPOS>SUBSTRUCTURE
     1 RES1 1

@<TRIPOS>CRYSIN
   8.1118   26.0315    9.7014  90.0000  90.0000  90.0000  19 1

