# MOL2 file generated by ConQuest
# Please check atom types

@<TRIPOS>MOLECULE
UYECOS
    29    26     2
SMALL
NO_CHARGES
****
Generated from CSD

@<TRIPOS>ATOM
      1 C1         8.1115    6.3643    5.2739 C.2       1 RES1    0.0000
      2 C2         8.6926    6.7968    6.4070 C.2       1 RES1    0.0000
      3 H1         8.9839    6.2704    7.1164 H         1 RES1    0.0000
      4 C3         8.7762    8.2088    6.3129 C.2       1 RES1    0.0000
      5 H2         9.1293    8.7886    6.9489 H         1 RES1    0.0000
      6 C4         8.2509    8.5432    5.1377 C.2       1 RES1    0.0000
      7 H3         8.1800    9.4126    4.8171 H         1 RES1    0.0000
      8 C5         7.8019    5.0210    4.8010 C.2       1 RES1    0.0000
      9 C6         6.3801    4.0498    1.7215 C.2       1 RES1    0.0000
     10 C7         6.0397    5.3909    1.1572 C.3       1 RES1    0.0000
     11 H4         6.8349    5.9257    1.1008 H         1 RES1    0.0000
     12 H5         5.4018    5.8259    1.7278 H         1 RES1    0.0000
     13 H6         5.6640    5.2834    0.2813 H         1 RES1    0.0000
     14 C8         6.1518    2.8319    0.9208 C.2       1 RES1    0.0000
     15 C9         6.3976    1.4831    1.4851 C.3       1 RES1    0.0000
     16 H7         6.1920    0.8174    0.8249 H         1 RES1    0.0000
     17 H8         5.8401    1.3522    2.2563 H         1 RES1    0.0000
     18 H9         7.3197    1.4069    1.7412 H         1 RES1    0.0000
     19 N1         7.2133    5.0229    3.5721 N.am      1 RES1    0.0000
     20 H10        7.0196    5.7783    3.2084 H         1 RES1    0.0000
     21 N2         6.9163    3.8599    2.8860 N.2       1 RES1    0.0000
     22 N3         5.7600    3.0796   -0.2830 N.2       1 RES1    0.0000
     23 O1         7.8314    7.4314    4.4678 O.3       1 RES1    0.0000
     24 O2         8.0430    4.0099    5.4423 O.2       1 RES1    0.0000
     25 O3         5.6008    1.9081   -1.0444 O.3       1 RES1    0.0000
     26 H11        5.3550    2.1060   -1.8013 H         1 RES1    0.0000
     27 H12        6.7091    1.5669    2.3897 Du        2 SUP2    0.0000
     28 H13        7.0610    1.0321    0.9584 Du        2 SUP2    0.0000
     29 H14        5.5813    0.9774    1.4734 Du        2 SUP2    0.0000
@<TRIPOS>BOND
     1    1    2 2
     2    2    3 1
     3    4    2 1
     4    5    4 1
     5    6    4 2
     6    7    6 1
     7    8    1 1
     8    9   10 1
     9   10   11 1
    10   12   10 1
    11   13   10 1
    12   14    9 1
    13   15   14 1
    14   16   15 1
    15   17   15 1
    16   18   15 1
    17   19    8 1
    18   20   19 1
    19   21    9 2
    20   22   14 2
    21   23    1 1
    22   24    8 2
    23   25   22 1
    24   26   25 1
    25    6   23 1
    26   19   21 1
@<TRIPOS>SUBSTRUCTURE
     1 RES1 1
     2 SUP2 27

@<TRIPOS>CRYSIN
   7.1568    7.6648    9.7394  79.4240  68.5140  83.2730   2 1

