# MOL2 file generated by ConQuest
# Please check atom types

@<TRIPOS>MOLECULE
UYIZOT
    70    57     2
SMALL
NO_CHARGES
****
Generated from CSD

@<TRIPOS>ATOM
      1 O1         8.9966    4.9573    6.2783 O.2       1 RES1    0.0000
      2 O2         8.1434    3.6837    7.7867 O.2       1 RES1    0.0000
      3 N1         8.3848    4.0082    6.6199 N.pl3     1 RES1    0.0000
      4 C1         9.1475    2.3191    4.9232 C.ar      1 RES1    0.0000
      5 C2         9.4985    1.0842    5.3373 C.ar      1 RES1    0.0000
      6 H1         8.9750    0.6388    5.9636 H         1 RES1    0.0000
      7 C3        10.6363    0.4759    4.8328 C.ar      1 RES1    0.0000
      8 H2        10.8675   -0.3693    5.1435 H         1 RES1    0.0000
      9 C4        11.4504    1.0835    3.8756 C.ar      1 RES1    0.0000
     10 C5        11.0769    2.3571    3.4422 C.ar      1 RES1    0.0000
     11 H3        11.6005    2.7970    2.8118 H         1 RES1    0.0000
     12 C6         9.9287    2.9837    3.9396 C.ar      1 RES1    0.0000
     13 H4         9.6808    3.8255    3.6310 H         1 RES1    0.0000
     14 C7         7.9259    2.9939    5.5464 C.3       1 RES1    0.0000
     15 H5         7.3707    2.3096    5.9748 H         1 RES1    0.0000
     16 C8        12.7039    0.4134    3.3386 C.3       1 RES1    0.0000
     17 C9        13.1255   -0.7420    4.2431 C.3       1 RES1    0.0000
     18 H6        12.4303   -1.4019    4.2654 H         1 RES1    0.0000
     19 H7        13.2829   -0.4121    5.1313 H         1 RES1    0.0000
     20 H8        13.9318   -1.1378    3.9020 H         1 RES1    0.0000
     21 C10       13.8901    1.3605    3.3072 C.3       1 RES1    0.0000
     22 H9        14.6874    0.8676    3.1001 H         1 RES1    0.0000
     23 H10       13.9870    1.7807    4.1649 H         1 RES1    0.0000
     24 H11       13.7458    2.0319    2.6362 H         1 RES1    0.0000
     25 C11       12.4122   -0.1147    1.9683 C.3       1 RES1    0.0000
     26 H12       11.6746   -0.7271    2.0119 H         1 RES1    0.0000
     27 H13       13.1868   -0.5696    1.6302 H         1 RES1    0.0000
     28 H14       12.1892    0.6144    1.3856 H         1 RES1    0.0000
     29 C12        9.2946    2.7753    4.6166 Du        2 SUP2    0.0000
     30 C13        9.4283    1.4610    5.0653 Du        2 SUP2    0.0000
     31 H15        8.7816    1.0917    5.6226 Du        2 SUP2    0.0000
     32 C14       10.5304    0.7006    4.6796 Du        2 SUP2    0.0000
     33 H16       10.6201   -0.1758    4.9749 Du        2 SUP2    0.0000
     34 C15       11.5005    1.2559    3.8370 Du        2 SUP2    0.0000
     35 C16       11.3653    2.5662    3.3904 Du        2 SUP2    0.0000
     36 H17       12.0119    2.9376    2.8331 Du        2 SUP2    0.0000
     37 C17       10.2631    3.3293    3.7802 Du        2 SUP2    0.0000
     38 H18       10.1735    4.2057    3.4818 Du        2 SUP2    0.0000
     39 C18        8.1796    3.7237    5.1100 Du        2 SUP2    0.0000
     40 H19        8.1866    4.5587    4.5973 Du        2 SUP2    0.0000
     41 O3         9.2415    4.9559    6.7666 Du        2 SUP2    0.0000
     42 O4         7.8792    3.4352    7.4579 Du        2 SUP2    0.0000
     43 O1B        6.0002    1.8316    3.8726 O.2       1 RES1    0.0000
     44 O2B        6.8534    3.1052    2.3641 O.2       1 RES1    0.0000
     45 N1B        6.6120    2.7807    3.5310 N.pl3     1 RES1    0.0000
     46 C1B        5.8493    4.4698    5.2277 C.ar      1 RES1    0.0000
     47 C2B        5.4983    5.7047    4.8135 C.ar      1 RES1    0.0000
     48 H1B        6.0218    6.1501    4.1872 H         1 RES1    0.0000
     49 C3B        4.3605    6.3130    5.3180 C.ar      1 RES1    0.0000
     50 H2B        4.1293    7.1582    5.0074 H         1 RES1    0.0000
     51 C4B        3.5464    5.7054    6.2753 C.ar      1 RES1    0.0000
     52 C5B        3.9199    4.4318    6.7087 C.ar      1 RES1    0.0000
     53 H3B        3.3963    3.9919    7.3391 H         1 RES1    0.0000
     54 C6B        5.0681    3.8052    6.2113 C.ar      1 RES1    0.0000
     55 H4B        5.3160    2.9634    6.5199 H         1 RES1    0.0000
     56 C7B        7.0709    3.7950    4.6044 C.3       1 RES1    0.0000
     57 H5B        7.6261    4.4793    4.1761 H         1 RES1    0.0000
     58 C8B        2.2929    6.3755    6.8123 C.3       1 RES1    0.0000
     59 C9B        1.8713    7.5309    5.9078 C.3       1 RES1    0.0000
     60 H6B        2.5665    8.1908    5.8855 H         1 RES1    0.0000
     61 H7B        1.7139    7.2010    5.0196 H         1 RES1    0.0000
     62 H8B        1.0650    7.9267    6.2489 H         1 RES1    0.0000
     63 C10B       1.1067    5.4284    6.8437 C.3       1 RES1    0.0000
     64 H9B        0.3094    5.9213    7.0508 H         1 RES1    0.0000
     65 H10B       1.0098    5.0082    5.9860 H         1 RES1    0.0000
     66 H11B       1.2510    4.7570    7.5147 H         1 RES1    0.0000
     67 C11B       2.5846    6.9036    8.1826 C.3       1 RES1    0.0000
     68 H12B       3.3222    7.5160    8.1390 H         1 RES1    0.0000
     69 H13B       1.8100    7.3585    8.5207 H         1 RES1    0.0000
     70 H14B       2.8076    6.1745    8.7653 H         1 RES1    0.0000
@<TRIPOS>BOND
     1    1    3 2
     2    2    3 2
     3    3   14 1
     4    4    5 ar
     5    5    6 1
     6    7    5 ar
     7    8    7 1
     8    9    7 ar
     9   10    9 ar
    10   11   10 1
    11   12    4 ar
    12   13   12 1
    13   14    4 1
    14   15   14 1
    15   16    9 1
    16   17   16 1
    17   18   17 1
    18   19   17 1
    19   20   17 1
    20   21   16 1
    21   22   21 1
    22   23   21 1
    23   24   21 1
    24   25   16 1
    25   26   25 1
    26   27   25 1
    27   28   25 1
    28   43   45 2
    29   44   45 2
    30   45   56 1
    31   46   47 ar
    32   47   48 1
    33   49   47 ar
    34   50   49 1
    35   51   49 ar
    36   52   51 ar
    37   53   52 1
    38   54   46 ar
    39   55   54 1
    40   56   14 1
    41   57   56 1
    42   58   51 1
    43   59   58 1
    44   60   59 1
    45   61   59 1
    46   62   59 1
    47   63   58 1
    48   64   63 1
    49   65   63 1
    50   66   63 1
    51   67   58 1
    52   68   67 1
    53   69   67 1
    54   70   67 1
    55   10   12 ar
    56   46   56 1
    57   52   54 ar
@<TRIPOS>SUBSTRUCTURE
     1 RES1 1
     2 SUP2 29

@<TRIPOS>CRYSIN
  15.0767    6.7889   10.1512  90.0000  90.4510  90.0000  14 1

