# MOL2 file generated by ConQuest
# Please check atom types

@<TRIPOS>MOLECULE
UYURUD
    58    62     1
SMALL
NO_CHARGES
****
Generated from CSD

@<TRIPOS>ATOM
      1 N1         3.4752    4.8680   11.0686 N.3       1 RES1    0.0000
      2 N2         7.3349    8.2423    9.7438 N.3       1 RES1    0.0000
      3 N3         3.3269    6.3531    8.6330 N.pl3     1 RES1    0.0000
      4 N4         5.6667    6.7914    7.2222 N.pl3     1 RES1    0.0000
      5 O1         2.4738    5.5629    8.3094 O.2       1 RES1    0.0000
      6 O2         3.2239    7.5598    8.5241 O.2       1 RES1    0.0000
      7 O3         5.1593    5.8725    6.6324 O.2       1 RES1    0.0000
      8 O4         6.1416    7.7456    6.6646 O.2       1 RES1    0.0000
      9 C1         0.9887    3.8093   12.3438 C.ar      1 RES1    0.0000
     10 H1         0.8190    4.5450   11.7999 H         1 RES1    0.0000
     11 C2        -0.0389    2.9542   12.6673 C.ar      1 RES1    0.0000
     12 H2        -0.8912    3.1117   12.3297 H         1 RES1    0.0000
     13 C3         0.1736    1.8929   13.4669 C.ar      1 RES1    0.0000
     14 H3        -0.5289    1.3244   13.6859 H         1 RES1    0.0000
     15 C4         1.4145    1.6570   13.9514 C.ar      1 RES1    0.0000
     16 H4         1.5628    0.9316   14.5137 H         1 RES1    0.0000
     17 C5         2.4738    2.5006   13.6082 C.ar      1 RES1    0.0000
     18 H5         3.3293    2.3163   13.9246 H         1 RES1    0.0000
     19 C6         2.2668    3.5940   12.8130 C.ar      1 RES1    0.0000
     20 C7         3.3578    4.5800   12.4978 C.3       1 RES1    0.0000
     21 H6         3.1818    5.4085   12.9725 H         1 RES1    0.0000
     22 H7         4.2031    4.2280   12.8199 H         1 RES1    0.0000
     23 C8         3.9073    3.7307   10.2644 C.3       1 RES1    0.0000
     24 H8         3.1398    3.2342    9.9395 H         1 RES1    0.0000
     25 H9         4.4623    3.1350   10.7913 H         1 RES1    0.0000
     26 C9         4.7121    4.3108    9.0820 C.3       1 RES1    0.0000
     27 H10        4.2950    4.0588    8.2316 H         1 RES1    0.0000
     28 C10        4.6280    5.8354    9.2839 C.3       1 RES1    0.0000
     29 C11        4.3949    5.9482   10.7937 C.3       1 RES1    0.0000
     30 H11        5.2243    5.8344   11.2843 H         1 RES1    0.0000
     31 H12        4.0056    6.8068   11.0244 H         1 RES1    0.0000
     32 C12        5.7991    6.6969    8.7524 C.3       1 RES1    0.0000
     33 C13        7.1970    6.0627    8.9950 C.3       1 RES1    0.0000
     34 H13        7.7377    6.2681    8.2033 H         1 RES1    0.0000
     35 C14        7.2057    4.5856    9.1399 C.2       1 RES1    0.0000
     36 H14        8.0295    4.1677    9.2473 H         1 RES1    0.0000
     37 C15        6.1321    3.8283    9.1272 C.2       1 RES1    0.0000
     38 H15        6.2645    2.9075    9.1470 H         1 RES1    0.0000
     39 C16        5.9284    8.0952    9.3659 C.3       1 RES1    0.0000
     40 H16        5.6762    8.7749    8.7204 H         1 RES1    0.0000
     41 H17        5.3559    8.1798   10.1443 H         1 RES1    0.0000
     42 C17        7.7615    6.9029   10.1358 C.3       1 RES1    0.0000
     43 H18        7.3801    6.6454   10.9891 H         1 RES1    0.0000
     44 H19        8.7280    6.8360   10.1825 H         1 RES1    0.0000
     45 C18        7.4816    9.2518   10.7941 C.3       1 RES1    0.0000
     46 H20        6.9099    9.0141   11.5414 H         1 RES1    0.0000
     47 H21        7.1819   10.1091   10.4523 H         1 RES1    0.0000
     48 C19        8.8969    9.3905   11.2872 C.ar      1 RES1    0.0000
     49 C20        9.2378    8.9539   12.5444 C.ar      1 RES1    0.0000
     50 H22        8.5885    8.5649   13.0841 H         1 RES1    0.0000
     51 C21       10.5255    9.0861   13.0205 C.ar      1 RES1    0.0000
     52 H23       10.7388    8.7924   13.8766 H         1 RES1    0.0000
     53 C22       11.4849    9.6450   12.2294 C.ar      1 RES1    0.0000
     54 H24       12.3554    9.7357   12.5444 H         1 RES1    0.0000
     55 C23       11.1614   10.0729   10.9665 C.ar      1 RES1    0.0000
     56 H25       11.8163   10.4514   10.4254 H         1 RES1    0.0000
     57 C24        9.8777    9.9477   10.4932 C.ar      1 RES1    0.0000
     58 H26        9.6692   10.2394    9.6358 H         1 RES1    0.0000
@<TRIPOS>BOND
     1    1   20 1
     2    2   39 1
     3    3    5 2
     4    4    7 2
     5    6    3 2
     6    8    4 2
     7    9   10 1
     8   11    9 ar
     9   12   11 1
    10   13   11 ar
    11   14   13 1
    12   15   13 ar
    13   16   15 1
    14   17   15 ar
    15   18   17 1
    16   19    9 ar
    17   20   19 1
    18   21   20 1
    19   22   20 1
    20   23    1 1
    21   24   23 1
    22   25   23 1
    23   26   23 1
    24   27   26 1
    25   28    3 1
    26   29    1 1
    27   30   29 1
    28   31   29 1
    29   32    4 1
    30   33   32 1
    31   34   33 1
    32   35   33 1
    33   36   35 1
    34   37   26 1
    35   38   37 1
    36   39   32 1
    37   40   39 1
    38   41   39 1
    39   42    2 1
    40   43   42 1
    41   44   42 1
    42   45    2 1
    43   46   45 1
    44   47   45 1
    45   48   45 1
    46   49   48 ar
    47   50   49 1
    48   51   49 ar
    49   52   51 1
    50   53   51 ar
    51   54   53 1
    52   55   53 ar
    53   56   55 1
    54   57   48 ar
    55   58   57 1
    56   17   19 ar
    57   26   28 1
    58   28   29 1
    59   28   32 1
    60   33   42 1
    61   35   37 2
    62   55   57 ar
@<TRIPOS>SUBSTRUCTURE
     1 RES1 1

@<TRIPOS>CRYSIN
   7.9288   19.4480   14.1266  90.0000  90.0000  90.0000  33 3

