# MOL2 file generated by ConQuest
# Please check atom types

@<TRIPOS>MOLECULE
UZAWOJ
    21    20     1
SMALL
USER_CHARGES
****
Generated from CSD

@<TRIPOS>ATOM
      1 H1         3.4640    3.4496    1.1208 H         1 RES1    0.0000
      2 H2         2.3701    4.5306    0.7354 H         1 RES1    0.0000
      3 H3         3.9303    4.6137    3.1359 H         1 RES1    0.0000
      4 H4         2.8963    5.6628    2.7893 H         1 RES1    0.0000
      5 C1         1.7831    3.1680    2.1451 C.3       1 RES1    0.0000
      6 C2         2.8165    4.0584    1.4926 C.3       1 RES1    0.0000
      7 C3         3.5074    5.0514    2.4254 C.3       1 RES1    0.0000
      8 C4         4.5386    5.8324    1.6594 C.2       1 RES1    0.0000
      9 N1         1.4153    1.9891    1.2390 N.pl3     1 RES1    0.0000
     10 N2         2.2762    2.5738    3.4567 N.pl3     1 RES1    0.0000
     11 N3         0.4642    3.8657    2.4706 N.pl3     1 RES1    0.0000
     12 N4         5.2645    6.6735    2.5254 N.2       1 RES1    0.0000
     13 N5         6.1205    7.3709    1.8913 N.1       1 RES1    1.0000
     14 N6         6.9027    8.0183    1.4379 N.2       1 RES1   -1.0000
     15 O1         1.0319    2.3057    0.1296 O.2       1 RES1    0.0000
     16 O2         1.5376    0.8649    1.6810 O.2       1 RES1    0.0000
     17 O3         3.3968    2.1044    3.4195 O.2       1 RES1    0.0000
     18 O4         1.5309    2.6284    4.4170 O.2       1 RES1    0.0000
     19 O5        -0.5594    3.2227    2.3438 O.2       1 RES1    0.0000
     20 O6         0.5591    5.0127    2.8491 O.2       1 RES1    0.0000
     21 O7         4.7107    5.7547    0.4688 O.2       1 RES1    0.0000
@<TRIPOS>BOND
     1    1    6 1
     2    2    6 1
     3    3    7 1
     4    4    7 1
     5    5    6 1
     6    6    7 1
     7    7    8 1
     8    8   12 1
     9    9    5 1
    10   10    5 1
    11   11    5 1
    12   12   13 2
    13   13   14 2
    14   15    9 2
    15   16    9 2
    16   17   10 2
    17   18   10 2
    18   19   11 2
    19   20   11 2
    20   21    8 2
@<TRIPOS>SUBSTRUCTURE
     1 RES1 1

@<TRIPOS>CRYSIN
   7.4160    7.5385    9.0347  70.7130  80.1000  81.6010   2 1

