# MOL2 file generated by ConQuest
# Please check atom types

@<TRIPOS>MOLECULE
UZAXIE
    32    31     1
SMALL
NO_CHARGES
****
Generated from CSD

@<TRIPOS>ATOM
      1 C1         1.2417   11.2266    2.6697 C.3       1 RES1    0.0000
      2 C2         0.3795   10.3371    3.5422 C.3       1 RES1    0.0000
      3 C3         1.0617    9.0720    4.0176 C.3       1 RES1    0.0000
      4 C4         0.2463    8.3851    5.0684 C.2       1 RES1    0.0000
      5 C5         0.3298    6.5102    6.5444 C.3       1 RES1    0.0000
      6 C6         0.6072    5.0839    6.0986 C.3       1 RES1    0.0000
      7 N1         2.2298   12.0876    3.4558 N.pl3     1 RES1    0.0000
      8 N2         0.3955   12.2129    1.8727 N.pl3     1 RES1    0.0000
      9 N3         2.0649   10.4465    1.6505 N.pl3     1 RES1    0.0000
     10 N4         2.0461    4.9501    5.6105 N.pl3     1 RES1    0.0000
     11 N5         0.4173    4.0998    7.2383 N.pl3     1 RES1    0.0000
     12 N6        -0.2835    4.6130    4.9560 N.pl3     1 RES1    0.0000
     13 O1         2.9227   11.4720    4.2524 O.2       1 RES1    0.0000
     14 O2         2.2530   13.2809    3.2265 O.2       1 RES1    0.0000
     15 O3         0.7105   12.4057    0.7168 O.2       1 RES1    0.0000
     16 O4        -0.5085   12.7372    2.5012 O.2       1 RES1    0.0000
     17 O5         1.4521    9.5676    1.0797 O.2       1 RES1    0.0000
     18 O6         3.2295   10.7667    1.4952 O.2       1 RES1    0.0000
     19 O7        -0.8672    8.6748    5.4099 O.2       1 RES1    0.0000
     20 O8         0.9678    7.3536    5.5903 O.3       1 RES1    0.0000
     21 O9         2.2293    4.5108    4.4944 O.2       1 RES1    0.0000
     22 O10        2.8827    5.3321    6.4079 O.2       1 RES1    0.0000
     23 O11        1.2270    3.1986    7.3613 O.2       1 RES1    0.0000
     24 O12       -0.5670    4.3126    7.9234 O.2       1 RES1    0.0000
     25 O13       -0.6201    3.4482    4.9639 O.2       1 RES1    0.0000
     26 O14       -0.5531    5.4615    4.1223 O.2       1 RES1    0.0000
     27 H1         1.1410    8.4598    3.2943 H         1 RES1    0.0000
     28 H2         1.9110    9.2198    4.3581 H         1 RES1    0.0000
     29 H3        -0.4006   10.1553    3.0375 H         1 RES1    0.0000
     30 H4         0.0945   10.8806    4.2851 H         1 RES1    0.0000
     31 H5         0.7251    6.6366    7.4089 H         1 RES1    0.0000
     32 H6        -0.5974    6.6540    6.5743 H         1 RES1    0.0000
@<TRIPOS>BOND
     1    1    2 1
     2    2    3 1
     3    3    4 1
     4    4   19 2
     5    5    6 1
     6    6   10 1
     7    7    1 1
     8    8    1 1
     9    9    1 1
    10   10   21 2
    11   11    6 1
    12   12    6 1
    13   13    7 2
    14   14    7 2
    15   15    8 2
    16   16    8 2
    17   17    9 2
    18   18    9 2
    19   20    4 1
    20   22   10 2
    21   23   11 2
    22   24   11 2
    23   25   12 2
    24   26   12 2
    25   27    3 1
    26   28    3 1
    27   29    2 1
    28   30    2 1
    29   31    5 1
    30   32    5 1
    31    5   20 1
@<TRIPOS>SUBSTRUCTURE
     1 RES1 1

@<TRIPOS>CRYSIN
   5.7264   21.6530   11.0910  90.0000  93.5550  90.0000 231 1

