# MOL2 file generated by ConQuest
# Please check atom types

@<TRIPOS>MOLECULE
UZENUK
    31    33     1
SMALL
NO_CHARGES
****
Generated from CSD

@<TRIPOS>ATOM
      1 O1         5.6477    3.2425    1.6310 O.3       1 RES1    0.0000
      2 O2         8.4073    1.8899    1.2974 O.2       1 RES1    0.0000
      3 O3         8.9901    2.0216    3.3760 O.2       1 RES1    0.0000
      4 N1         6.2336    4.1570    0.6687 N.3       1 RES1    0.0000
      5 N2         8.4367    2.4649    2.3765 N.pl3     1 RES1    0.0000
      6 C1         6.5079    6.4550    0.3299 C.3       1 RES1    0.0000
      7 H1         6.1859    7.3505    0.5173 H         1 RES1    0.0000
      8 H2         6.8056    6.4076   -0.5915 H         1 RES1    0.0000
      9 C2         5.4458    5.4109    0.6245 C.3       1 RES1    0.0000
     10 H3         5.0099    5.5827    1.4745 H         1 RES1    0.0000
     11 H4         4.7767    5.3819   -0.0775 H         1 RES1    0.0000
     12 C3         6.2475    3.5155    2.8957 C.3       1 RES1    0.0000
     13 H5         5.8632    4.3452    3.2473 H         1 RES1    0.0000
     14 C4         5.9236    2.3988    3.8542 C.ar      1 RES1    0.0000
     15 C5         5.4040    1.1872    3.4048 C.ar      1 RES1    0.0000
     16 H6         5.2934    1.0403    2.4940 H         1 RES1    0.0000
     17 C6         5.0493    0.1961    4.3129 C.ar      1 RES1    0.0000
     18 H7         4.6984   -0.6089    4.0056 H         1 RES1    0.0000
     19 C7         5.2171    0.4021    5.6750 C.ar      1 RES1    0.0000
     20 H8         4.9755   -0.2604    6.2805 H         1 RES1    0.0000
     21 C8         7.6213    6.0470    1.2986 C.3       1 RES1    0.0000
     22 H9         7.4307    6.3473    2.2008 H         1 RES1    0.0000
     23 H10        8.4792    6.4018    1.0178 H         1 RES1    0.0000
     24 C9         7.5939    4.5159    1.2037 C.3       1 RES1    0.0000
     25 H11        8.2877    4.2085    0.5831 H         1 RES1    0.0000
     26 C10        7.7239    3.7798    2.5292 C.3       1 RES1    0.0000
     27 H12        8.1596    4.3416    3.2034 H         1 RES1    0.0000
     28 C11        6.0956    2.5994    5.2231 C.ar      1 RES1    0.0000
     29 H13        6.4442    3.4039    5.5323 H         1 RES1    0.0000
     30 C12        5.7474    1.6004    6.1278 C.ar      1 RES1    0.0000
     31 H14        5.8708    1.7372    7.0388 H         1 RES1    0.0000
@<TRIPOS>BOND
     1    1    4 1
     2    2    5 2
     3    3    5 2
     4    4    9 1
     5    5   26 1
     6    6    7 1
     7    8    6 1
     8    9    6 1
     9   10    9 1
    10   11    9 1
    11   12    1 1
    12   13   12 1
    13   14   12 1
    14   15   14 ar
    15   16   15 1
    16   17   15 ar
    17   18   17 1
    18   19   17 ar
    19   20   19 1
    20   21    6 1
    21   22   21 1
    22   23   21 1
    23   24    4 1
    24   25   24 1
    25   26   12 1
    26   27   26 1
    27   28   14 ar
    28   29   28 1
    29   30   19 ar
    30   31   30 1
    31   21   24 1
    32   24   26 1
    33   28   30 ar
@<TRIPOS>SUBSTRUCTURE
     1 RES1 1

@<TRIPOS>CRYSIN
   9.0398    7.2748   17.0449  90.0000  98.6430  90.0000  14 1

