# MOL2 file generated by ConQuest
# Please check atom types

@<TRIPOS>MOLECULE
UZEPEW
    33    36     1
SMALL
NO_CHARGES
****
Generated from CSD

@<TRIPOS>ATOM
      1 O1        -0.3333   10.7587    3.7652 O.2       1 RES1    0.0000
      2 O2         1.8780   12.0577    2.1751 O.3       1 RES1    0.0000
      3 O3         2.6647    7.6046    2.4335 O.2       1 RES1    0.0000
      4 N1         0.9463    8.9776    3.0733 N.am      1 RES1    0.0000
      5 N2         3.0036   11.9481    1.2640 N.3       1 RES1    0.0000
      6 C1         6.9551    9.3975   -0.6003 C.ar      1 RES1    0.0000
      7 H1         7.7668    9.1546   -0.9823 H         1 RES1    0.0000
      8 C2         6.7644   10.6984   -0.1511 C.ar      1 RES1    0.0000
      9 H2         7.4478   11.3214   -0.2486 H         1 RES1    0.0000
     10 C3         5.5583   11.0844    0.4457 C.ar      1 RES1    0.0000
     11 C4         4.5394   10.1359    0.5665 C.ar      1 RES1    0.0000
     12 C5         3.2178   10.5013    1.1902 C.3       1 RES1    0.0000
     13 H3         2.5051   10.1161    0.6390 H         1 RES1    0.0000
     14 C6         3.0129   10.0101    2.6589 C.3       1 RES1    0.0000
     15 H4         3.8525    9.9742    3.1627 H         1 RES1    0.0000
     16 C7         2.2551    8.7100    2.7076 C.2       1 RES1    0.0000
     17 C8        -0.0726    7.9410    3.1563 C.3       1 RES1    0.0000
     18 H5        -0.0199    7.3762    2.3814 H         1 RES1    0.0000
     19 H6        -0.9411    8.3484    3.1975 H         1 RES1    0.0000
     20 H7         0.0712    7.4137    3.9460 H         1 RES1    0.0000
     21 C9         0.7258   10.3074    3.3971 C.2       1 RES1    0.0000
     22 C10        2.0475   11.0533    3.2096 C.3       1 RES1    0.0000
     23 H8         2.3695   11.4419    4.0491 H         1 RES1    0.0000
     24 C11        4.1683   12.6268    1.8705 C.3       1 RES1    0.0000
     25 H9         4.3944   12.2106    2.7170 H         1 RES1    0.0000
     26 H10        3.9632   13.5605    2.0329 H         1 RES1    0.0000
     27 C12        5.3334   12.5071    0.9000 C.3       1 RES1    0.0000
     28 H11        5.1604   13.0650    0.1256 H         1 RES1    0.0000
     29 H12        6.1392   12.8347    1.3289 H         1 RES1    0.0000
     30 C13        5.9351    8.4577   -0.4801 C.ar      1 RES1    0.0000
     31 H13        6.0616    7.5878   -0.7826 H         1 RES1    0.0000
     32 C14        4.7276    8.8308    0.0950 C.ar      1 RES1    0.0000
     33 H14        4.0394    8.2091    0.1675 H         1 RES1    0.0000
@<TRIPOS>BOND
     1    1   21 2
     2    2    5 1
     3    3   16 2
     4    4   16 1
     5    5   12 1
     6    6    7 1
     7    8    6 ar
     8    9    8 1
     9   10    8 ar
    10   11   10 ar
    11   12   11 1
    12   13   12 1
    13   14   12 1
    14   15   14 1
    15   16   14 1
    16   17    4 1
    17   18   17 1
    18   19   17 1
    19   20   17 1
    20   21    4 1
    21   22    2 1
    22   23   22 1
    23   24    5 1
    24   25   24 1
    25   26   24 1
    26   27   10 1
    27   28   27 1
    28   29   27 1
    29   30    6 ar
    30   31   30 1
    31   32   11 ar
    32   33   32 1
    33   14   22 1
    34   21   22 1
    35   24   27 1
    36   30   32 ar
@<TRIPOS>SUBSTRUCTURE
     1 RES1 1

@<TRIPOS>CRYSIN
   6.8159   26.7835    7.0628  90.0000 114.2140  90.0000  14 1

