# MOL2 file generated by ConQuest
# Please check atom types

@<TRIPOS>MOLECULE
UZEPUM
    41    44     1
SMALL
NO_CHARGES
****
Generated from CSD

@<TRIPOS>ATOM
      1 O1         7.3545    3.8213   11.7973 O.2       1 RES1    0.0000
      2 O2         1.0776    4.8816    4.0526 O.3       1 RES1    0.0000
      3 O3         1.8571    2.5611    4.8243 O.3       1 RES1    0.0000
      4 O4         6.6159    5.4957    9.4123 O.3       1 RES1    0.0000
      5 O5         4.7734    1.5264    8.8197 O.2       1 RES1    0.0000
      6 N1         5.9463    5.7750    8.1541 N.3       1 RES1    0.0000
      7 N2         6.1749    2.4020   10.4126 N.am      1 RES1    0.0000
      8 C1         6.5291    3.6377   10.9292 C.2       1 RES1    0.0000
      9 C2         5.7080    4.6924   10.2130 C.3       1 RES1    0.0000
     10 H1         5.1814    5.2374   10.8356 H         1 RES1    0.0000
     11 C3         4.8328    3.9375    9.2312 C.3       1 RES1    0.0000
     12 H2         3.8805    4.0902    9.4015 H         1 RES1    0.0000
     13 C4         5.2688    4.5010    7.8478 C.3       1 RES1    0.0000
     14 H3         5.9305    3.8887    7.4639 H         1 RES1    0.0000
     15 C5         4.1446    4.6661    6.8498 C.ar      1 RES1    0.0000
     16 C6         3.5519    3.5136    6.3126 C.ar      1 RES1    0.0000
     17 H4         3.8532    2.6751    6.5796 H         1 RES1    0.0000
     18 C7         2.5263    3.6087    5.3906 C.ar      1 RES1    0.0000
     19 C8         2.0848    4.8882    4.9746 C.ar      1 RES1    0.0000
     20 C9         0.6473    6.1547    3.5543 C.3       1 RES1    0.0000
     21 H5         0.2744    6.6698    4.2732 H         1 RES1    0.0000
     22 H6        -0.0183    6.0238    2.8753 H         1 RES1    0.0000
     23 H7         1.3981    6.6224    3.1804 H         1 RES1    0.0000
     24 C10        2.1859    1.2514    5.2835 C.3       1 RES1    0.0000
     25 H8         3.1152    1.0775    5.1162 H         1 RES1    0.0000
     26 H9         1.6513    0.6046    4.8162 H         1 RES1    0.0000
     27 H10        2.0124    1.1894    6.2263 H         1 RES1    0.0000
     28 C11        3.6953    5.9278    6.4673 C.ar      1 RES1    0.0000
     29 C12        4.3069    7.1664    7.0589 C.3       1 RES1    0.0000
     30 H11        3.6183    7.8368    7.1916 H         1 RES1    0.0000
     31 H12        4.9656    7.5276    6.4452 H         1 RES1    0.0000
     32 C13        4.9704    6.8524    8.3865 C.3       1 RES1    0.0000
     33 H13        5.4179    7.6404    8.7309 H         1 RES1    0.0000
     34 H14        4.3060    6.5681    9.0343 H         1 RES1    0.0000
     35 C14        5.2111    2.4857    9.4223 C.2       1 RES1    0.0000
     36 C15        6.8024    1.1548   10.8096 C.3       1 RES1    0.0000
     37 H15        7.4213    1.3212   11.5252 H         1 RES1    0.0000
     38 H16        7.2718    0.7803   10.0617 H         1 RES1    0.0000
     39 H17        6.1294    0.5383   11.1063 H         1 RES1    0.0000
     40 C16        2.6591    6.0192    5.5254 C.ar      1 RES1    0.0000
     41 H18        2.3524    6.8584    5.2661 H         1 RES1    0.0000
@<TRIPOS>BOND
     1    1    8 2
     2    2   19 1
     3    3   18 1
     4    4    6 1
     5    5   35 2
     6    6   13 1
     7    7    8 1
     8    8    9 1
     9    9    4 1
    10   10    9 1
    11   11    9 1
    12   12   11 1
    13   13   11 1
    14   14   13 1
    15   15   13 1
    16   16   15 ar
    17   17   16 1
    18   18   16 ar
    19   19   18 ar
    20   20    2 1
    21   21   20 1
    22   22   20 1
    23   23   20 1
    24   24    3 1
    25   25   24 1
    26   26   24 1
    27   27   24 1
    28   28   15 ar
    29   29   28 1
    30   30   29 1
    31   31   29 1
    32   32    6 1
    33   33   32 1
    34   34   32 1
    35   35    7 1
    36   36    7 1
    37   37   36 1
    38   38   36 1
    39   39   36 1
    40   40   19 ar
    41   41   40 1
    42   11   35 1
    43   28   40 ar
    44   29   32 1
@<TRIPOS>SUBSTRUCTURE
     1 RES1 1

@<TRIPOS>CRYSIN
   9.8243    8.6128   17.8328  90.0000 104.8430  90.0000  14 1

