# MOL2 file generated by ConQuest
# Please check atom types

@<TRIPOS>MOLECULE
UZEQEX
    26    28     1
SMALL
NO_CHARGES
****
Generated from CSD

@<TRIPOS>ATOM
      1 O1         6.9038   10.8546    4.4975 O.3       1 RES1    0.0000
      2 O2         4.8112   11.4005    6.6310 O.2       1 RES1    0.0000
      3 O3         2.9986    8.8966    3.2854 O.2       1 RES1    0.0000
      4 N1         6.2324   11.2522    3.2184 N.3       1 RES1    0.0000
      5 N2         3.6269   10.2735    5.0101 N.am      1 RES1    0.0000
      6 C1         8.0412   10.6304    1.6901 C.3       1 RES1    0.0000
      7 H1         8.0222   10.7295    0.7056 H         1 RES1    0.0000
      8 H2         8.9846   10.5870    1.9887 H         1 RES1    0.0000
      9 C2         7.2760    9.3689    2.1248 C.3       1 RES1    0.0000
     10 H3         7.1311    8.7612    1.3570 H         1 RES1    0.0000
     11 H4         7.7679    8.8822    2.8324 H         1 RES1    0.0000
     12 C3         5.9401    9.9107    2.6571 C.3       1 RES1    0.0000
     13 H5         5.2657    9.9740    1.9210 H         1 RES1    0.0000
     14 C4         5.3616    9.1612    3.8590 C.3       1 RES1    0.0000
     15 H6         5.6087    8.1929    3.8637 H         1 RES1    0.0000
     16 C5         3.8619    9.3833    3.9808 C.2       1 RES1    0.0000
     17 C6         2.2983   10.7852    5.3297 C.3       1 RES1    0.0000
     18 H7         1.6871   10.0336    5.4807 H         1 RES1    0.0000
     19 H8         1.9699   11.3293    4.5835 H         1 RES1    0.0000
     20 H9         2.3461   11.3359    6.1389 H         1 RES1    0.0000
     21 C7         4.7809   10.6458    5.6886 C.2       1 RES1    0.0000
     22 C8         5.9725    9.9344    5.0399 C.3       1 RES1    0.0000
     23 H10        6.4158    9.3129    5.6865 H         1 RES1    0.0000
     24 C9         7.3065   11.8039    2.3706 C.3       1 RES1    0.0000
     25 H11        7.9406   12.3250    2.9232 H         1 RES1    0.0000
     26 H12        6.9220   12.4062    1.6847 H         1 RES1    0.0000
@<TRIPOS>BOND
     1    1    4 1
     2    2   21 2
     3    3   16 2
     4    4   12 1
     5    5   16 1
     6    6    7 1
     7    8    6 1
     8    9    6 1
     9   10    9 1
    10   11    9 1
    11   12    9 1
    12   13   12 1
    13   14   12 1
    14   15   14 1
    15   16   14 1
    16   17    5 1
    17   18   17 1
    18   19   17 1
    19   20   17 1
    20   21    5 1
    21   22    1 1
    22   23   22 1
    23   24    4 1
    24   25   24 1
    25   26   24 1
    26    6   24 1
    27   14   22 1
    28   21   22 1
@<TRIPOS>SUBSTRUCTURE
     1 RES1 1

@<TRIPOS>CRYSIN
   7.9208   16.5681    6.7713  90.0000  90.0000  90.0000  33 1

