# MOL2 file generated by ConQuest
# Please check atom types

@<TRIPOS>MOLECULE
UZEVUS
    24    25     1
SMALL
NO_CHARGES
****
Generated from CSD

@<TRIPOS>ATOM
      1 O1        -0.9954    1.2968    5.7078 O.3       1 RES1    0.0000
      2 N1         1.3714    1.0698    6.0916 N.3       1 RES1    0.0000
      3 H1         1.6316    1.4495    5.3656 H         1 RES1    0.0000
      4 C1        -1.2345    2.5945    6.2695 C.3       1 RES1    0.0000
      5 H2        -2.0018    3.0000    5.8374 H         1 RES1    0.0000
      6 H3        -0.4647    3.1636    6.1140 H         1 RES1    0.0000
      7 O2        -0.3311    1.9235    8.3766 O.3       1 RES1    0.0000
      8 N2         1.3727    0.3889    8.1567 N.pl3     1 RES1    0.0000
      9 H4         1.6722    0.0142    8.8695 H         1 RES1    0.0000
     10 C2         0.0027    0.5833    6.3468 C.3       1 RES1    0.0000
     11 H5        -0.0534   -0.3530    6.0642 H         1 RES1    0.0000
     12 N3         4.2335    0.8328    8.4495 N.pl3     1 RES1    0.0000
     13 O3         5.2990    1.4011    8.6448 O.2       1 RES1    0.0000
     14 C3        -0.0118    0.6309    7.8740 C.3       1 RES1    0.0000
     15 H6        -0.5896   -0.0626    8.2553 H         1 RES1    0.0000
     16 N4         4.3177    1.3235    6.0814 N.pl3     1 RES1    0.0000
     17 O4         3.7063    0.0943    9.2974 O.2       1 RES1    0.0000
     18 C4        -1.4876    2.4818    7.7429 C.3       1 RES1    0.0000
     19 H7        -1.6745    3.3589    8.1130 H         1 RES1    0.0000
     20 H8        -2.2577    1.9135    7.9025 H         1 RES1    0.0000
     21 O5         5.5424    1.2718    6.1109 O.2       1 RES1    0.0000
     22 C5         2.1366    0.8370    7.1379 C.2       1 RES1    0.0000
     23 O6         3.7057    1.5789    5.0270 O.2       1 RES1    0.0000
     24 C6         3.5474    1.0214    7.2172 C.2       1 RES1    0.0000
@<TRIPOS>BOND
     1    1    4 1
     2    2    3 1
     3    4    5 1
     4    6    4 1
     5    7   14 1
     6    8    9 1
     7   10    1 1
     8   11   10 1
     9   12   13 2
    10   14    8 1
    11   15   14 1
    12   16   21 2
    13   17   12 2
    14   18    4 1
    15   19   18 1
    16   20   18 1
    17   22    2 1
    18   23   16 2
    19   24   12 1
    20    2   10 1
    21    7   18 1
    22    8   22 1
    23   10   14 1
    24   16   24 1
    25   22   24 2
@<TRIPOS>SUBSTRUCTURE
     1 RES1 1

@<TRIPOS>CRYSIN
  10.1250    8.3450   10.5830  90.0000 106.1000  90.0000  14 1

