# MOL2 file generated by ConQuest
# Please check atom types

@<TRIPOS>MOLECULE
UZEWUT
    32    33     1
SMALL
NO_CHARGES
****
Generated from CSD

@<TRIPOS>ATOM
      1 O1         6.4911   11.8860    0.6724 O.2       1 RES1    0.0000
      2 C1         7.1846    9.2082    2.9535 C.3       1 RES1    0.0000
      3 H1         6.4839    8.6257    2.5915 H         1 RES1    0.0000
      4 N1         8.8593    8.7457    1.3399 N.2       1 RES1    0.0000
      5 N2         7.3430   10.2946    1.9707 N.pl3     1 RES1    0.0000
      6 O2         5.5349   11.3834    2.5429 O.2       1 RES1    0.0000
      7 C2         6.8433    9.3945    4.3956 C.3       1 RES1    0.0000
      8 H2         5.9690    9.8045    4.4859 H         1 RES1    0.0000
      9 H3         7.5003    9.9670    4.8260 H         1 RES1    0.0000
     10 N3         6.3842   11.2371    1.7089 N.pl3     1 RES1    0.0000
     11 O3         6.4568    9.5233   -0.9025 O.2       1 RES1    0.0000
     12 C3         6.8492    8.0194    5.0274 C.3       1 RES1    0.0000
     13 H4         6.7766    8.1294    5.9884 H         1 RES1    0.0000
     14 H5         6.0563    7.5481    4.7308 H         1 RES1    0.0000
     15 N4         7.3066   10.2346   -1.3012 N.pl3     1 RES1    0.0000
     16 O4         7.3590   10.7446   -2.3773 O.2       1 RES1    0.0000
     17 C4         8.0444    7.1506    4.7447 C.3       1 RES1    0.0000
     18 H6         7.8417    6.2442    5.0274 H         1 RES1    0.0000
     19 H7         8.7903    7.4643    5.2803 H         1 RES1    0.0000
     20 N5         8.9733   11.8309   -0.2450 N.pl3     1 RES1    0.0000
     21 O5         9.4199   12.1060    0.8470 O.2       1 RES1    0.0000
     22 C5         8.4731    7.1181    3.2908 C.3       1 RES1    0.0000
     23 H8         9.3670    6.7493    3.2203 H         1 RES1    0.0000
     24 H9         7.8700    6.5518    2.7840 H         1 RES1    0.0000
     25 N6         9.6270    9.6058   -1.0255 N.pl3     1 RES1    0.0000
     26 O6         8.9522   12.5235   -1.2159 O.2       1 RES1    0.0000
     27 C6         8.4516    8.4819    2.7453 C.3       1 RES1    0.0000
     28 H10        9.1067    8.9720    3.2858 H         1 RES1    0.0000
     29 C7         8.2205    9.7733    0.9898 C.2       1 RES1    0.0000
     30 O7        10.7372   10.0208   -0.8262 O.2       1 RES1    0.0000
     31 O8         9.3022    8.6457   -1.6642 O.2       1 RES1    0.0000
     32 C8         8.4837   10.3871   -0.3491 C.3       1 RES1    0.0000
@<TRIPOS>BOND
     1    1   10 2
     2    2    3 1
     3    4   27 1
     4    5    2 1
     5    6   10 2
     6    7    2 1
     7    8    7 1
     8    9    7 1
     9   10    5 1
    10   11   15 2
    11   12    7 1
    12   13   12 1
    13   14   12 1
    14   15   16 2
    15   17   12 1
    16   18   17 1
    17   19   17 1
    18   20   21 2
    19   22   17 1
    20   23   22 1
    21   24   22 1
    22   25   30 2
    23   26   20 2
    24   27    2 1
    25   28   27 1
    26   29    4 2
    27   31   25 2
    28   32   15 1
    29    5   29 1
    30   20   32 1
    31   22   27 1
    32   25   32 1
    33   29   32 1
@<TRIPOS>SUBSTRUCTURE
     1 RES1 1

@<TRIPOS>CRYSIN
  21.3900   12.5010    9.9570  90.0000  95.0800  90.0000  15 1

