# MOL2 file generated by ConQuest
# Please check atom types

@<TRIPOS>MOLECULE
UZEWIH
    34    34     1
SMALL
NO_CHARGES
****
Generated from CSD

@<TRIPOS>ATOM
      1 O1         2.7346    5.5237    1.9277 O.3       1 RES1    0.0000
      2 N1         1.1774    8.2050    2.2456 N.pl3     1 RES1    0.0000
      3 C1         2.1131    6.2483    2.9745 C.3       1 RES1    0.0000
      4 H1         1.9675    5.6857    3.7633 H         1 RES1    0.0000
      5 N2         2.9850    7.3869    3.2806 N.2       1 RES1    0.0000
      6 C2         0.7924    6.8239    2.4436 C.3       1 RES1    0.0000
      7 H2         0.5009    6.3917    1.6141 H         1 RES1    0.0000
      8 O2         3.5548    4.0975    3.4379 O.2       1 RES1    0.0000
      9 O3        -0.1907    6.7750    3.4551 O.3       1 RES1    0.0000
     10 C3         2.4373    8.4119    2.8086 C.2       1 RES1    0.0000
     11 N3         0.4487    9.0821    1.4846 N.pl3     1 RES1    0.0000
     12 N4         2.4269   10.8018    3.6659 N.pl3     1 RES1    0.0000
     13 C4         3.5082    4.4539    2.3077 C.2       1 RES1    0.0000
     14 O4        -1.5289    5.5613    2.1632 O.2       1 RES1    0.0000
     15 O5         0.9388   10.1823    1.3026 O.2       1 RES1    0.0000
     16 N5         4.4822    9.5122    3.6038 N.pl3     1 RES1    0.0000
     17 C5         4.1992    3.8894    1.1410 C.3       1 RES1    0.0000
     18 H3         4.7384    3.1446    1.4171 H         1 RES1    0.0000
     19 H4         4.7587    4.5600    0.7439 H         1 RES1    0.0000
     20 H5         3.5497    3.5923    0.4977 H         1 RES1    0.0000
     21 N6         3.5236   10.2324    1.4685 N.pl3     1 RES1    0.0000
     22 O6        -0.6073    8.6653    1.0768 O.2       1 RES1    0.0000
     23 C6        -1.3450    6.0984    3.1950 C.2       1 RES1    0.0000
     24 O7         1.3426   10.4959    4.0759 O.2       1 RES1    0.0000
     25 C7        -2.2547    6.1721    4.3541 C.3       1 RES1    0.0000
     26 H6        -3.0627    5.6927    4.1583 H         1 RES1    0.0000
     27 H7        -2.4648    7.0910    4.5382 H         1 RES1    0.0000
     28 H8        -1.8289    5.7814    5.1205 H         1 RES1    0.0000
     29 C8         3.1487    9.7380    2.8642 C.3       1 RES1    0.0000
     30 O8         3.0175   11.8197    3.8703 O.2       1 RES1    0.0000
     31 O9         4.3982    9.4877    4.7994 O.2       1 RES1    0.0000
     32 O10        5.4502    9.3528    2.9284 O.2       1 RES1    0.0000
     33 O11        3.6990   11.4092    1.2951 O.2       1 RES1    0.0000
     34 O12        3.6574    9.3361    0.6700 O.2       1 RES1    0.0000
@<TRIPOS>BOND
     1    1    3 1
     2    2    6 1
     3    3    4 1
     4    5    3 1
     5    6    3 1
     6    7    6 1
     7    8   13 2
     8    9    6 1
     9   10    2 1
    10   11    2 1
    11   12   24 2
    12   13    1 1
    13   14   23 2
    14   15   11 2
    15   16   29 1
    16   17   13 1
    17   18   17 1
    18   19   17 1
    19   20   17 1
    20   21   29 1
    21   22   11 2
    22   23    9 1
    23   25   23 1
    24   26   25 1
    25   27   25 1
    26   28   25 1
    27   29   10 1
    28   30   12 2
    29   31   16 2
    30   32   16 2
    31   33   21 2
    32   34   21 2
    33    5   10 2
    34   12   29 1
@<TRIPOS>SUBSTRUCTURE
     1 RES1 1

@<TRIPOS>CRYSIN
   8.6990    8.7890   10.7230  86.5900  89.5400  72.1600   2 1

