# MOL2 file generated by ConQuest
# Please check atom types

@<TRIPOS>MOLECULE
UZISUS
    57    59     1
SMALL
NO_CHARGES
****
Generated from CSD

@<TRIPOS>ATOM
      1 O1        -0.8596    9.1043    6.7198 O.2       1 RES1    0.0000
      2 O2         1.2554    7.3510   12.3536 O.2       1 RES1    0.0000
      3 O3         1.0032    9.5389   12.7642 O.3       1 RES1    0.0000
      4 O4         5.3077   12.3690   13.5327 O.2       1 RES1    0.0000
      5 O5         5.0784   10.4417   14.4708 O.2       1 RES1    0.0000
      6 O6         1.8877    5.6178    7.5703 O.2       1 RES1    0.0000
      7 O7         3.9139    6.4974    7.7065 O.3       1 RES1    0.0000
      8 N1         1.0101    9.9117    7.7501 N.am      1 RES1    0.0000
      9 N2         2.4379    9.9112    7.6459 N.3       1 RES1    0.0000
     10 N3         4.9984   11.1840   13.5009 N.pl3     1 RES1    0.0000
     11 C1         2.6264    9.5664    6.2033 C.3       1 RES1    0.0000
     12 H1         3.4514    9.0332    6.0793 H         1 RES1    0.0000
     13 H2         2.6956   10.3894    5.6558 H         1 RES1    0.0000
     14 C2         1.3981    8.7539    5.7944 C.3       1 RES1    0.0000
     15 H3         1.1317    8.9484    4.8615 H         1 RES1    0.0000
     16 H4         1.5596    7.7824    5.8916 H         1 RES1    0.0000
     17 C3         0.3590    9.2400    6.7761 C.2       1 RES1    0.0000
     18 C4         0.3658   10.6475    8.8081 C.3       1 RES1    0.0000
     19 H5        -0.5999   10.7134    8.6016 H         1 RES1    0.0000
     20 H6         0.7309   11.5682    8.8158 H         1 RES1    0.0000
     21 C5         0.5174   10.0648   10.1787 C.2       1 RES1    0.0000
     22 H7         0.3411   10.6542   10.9024 H         1 RES1    0.0000
     23 C6         0.8680    8.8237   10.5111 C.2       1 RES1    0.0000
     24 C7         1.1468    7.6794    9.5775 C.2       1 RES1    0.0000
     25 C8         2.2397    7.6792    8.7883 C.2       1 RES1    0.0000
     26 C9         3.0932    8.9205    8.5794 C.3       1 RES1    0.0000
     27 H8         3.9165    8.6064    8.1058 H         1 RES1    0.0000
     28 C10        1.0448    8.4709   11.9565 C.2       1 RES1    0.0000
     29 C11        1.2939    9.2839   14.1700 C.3       1 RES1    0.0000
     30 H9         2.1207    8.7453   14.2549 H         1 RES1    0.0000
     31 H10        0.5487    8.7825   14.5871 H         1 RES1    0.0000
     32 C12        1.4663   10.6041   14.8448 C.3       1 RES1    0.0000
     33 H11        1.6403   10.4627   15.8000 H         1 RES1    0.0000
     34 H12        0.6503   11.1350   14.7363 H         1 RES1    0.0000
     35 H13        2.2224   11.0797   14.4427 H         1 RES1    0.0000
     36 C13        0.1100    6.5890    9.6420 C.3       1 RES1    0.0000
     37 H14        0.5122    5.7385    9.3669 H         1 RES1    0.0000
     38 H15       -0.6326    6.8080    9.0420 H         1 RES1    0.0000
     39 H16       -0.2246    6.5098   10.5606 H         1 RES1    0.0000
     40 C14        3.5797    9.5653    9.8701 C.ar      1 RES1    0.0000
     41 C15        3.6971   10.9455   10.0218 C.ar      1 RES1    0.0000
     42 H17        3.4458   11.5207    9.3091 H         1 RES1    0.0000
     43 C16        4.1779   11.4876   11.2078 C.ar      1 RES1    0.0000
     44 H18        4.2644   12.4282   11.3139 H         1 RES1    0.0000
     45 C17        4.5268   10.6293   12.2278 C.ar      1 RES1    0.0000
     46 C18        4.4540    9.2552   12.0978 C.ar      1 RES1    0.0000
     47 H19        4.7135    8.6848   12.8109 H         1 RES1    0.0000
     48 C19        3.9969    8.7320   10.9074 C.ar      1 RES1    0.0000
     49 H20        3.9648    7.7901   10.7917 H         1 RES1    0.0000
     50 C20        2.6102    6.4841    7.9664 C.2       1 RES1    0.0000
     51 C21        4.4606    5.4827    6.8177 C.3       1 RES1    0.0000
     52 H21        5.2573    5.0713    7.2370 H         1 RES1    0.0000
     53 H22        3.7867    4.7718    6.6738 H         1 RES1    0.0000
     54 C22        4.8268    6.0598    5.5501 C.3       1 RES1    0.0000
     55 H23        5.2699    5.3811    4.9987 H         1 RES1    0.0000
     56 H24        5.4383    6.8119    5.6967 H         1 RES1    0.0000
     57 H25        4.0218    6.3787    5.0902 H         1 RES1    0.0000
@<TRIPOS>BOND
     1    1   17 2
     2    2   28 2
     3    3   28 1
     4    4   10 2
     5    5   10 2
     6    6   50 2
     7    7   50 1
     8    8    9 1
     9    9   11 1
    10   10   45 1
    11   11   12 1
    12   13   11 1
    13   14   11 1
    14   15   14 1
    15   16   14 1
    16   17    8 1
    17   18    8 1
    18   19   18 1
    19   20   18 1
    20   21   18 1
    21   22   21 1
    22   23   21 2
    23   24   23 1
    24   25   24 2
    25   26    9 1
    26   27   26 1
    27   28   23 1
    28   29    3 1
    29   30   29 1
    30   31   29 1
    31   32   29 1
    32   33   32 1
    33   34   32 1
    34   35   32 1
    35   36   24 1
    36   37   36 1
    37   38   36 1
    38   39   36 1
    39   40   26 1
    40   41   40 ar
    41   42   41 1
    42   43   41 ar
    43   44   43 1
    44   45   43 ar
    45   46   45 ar
    46   47   46 1
    47   48   40 ar
    48   49   48 1
    49   50   25 1
    50   51    7 1
    51   52   51 1
    52   53   51 1
    53   54   51 1
    54   55   54 1
    55   56   54 1
    56   57   54 1
    57   14   17 1
    58   25   26 1
    59   46   48 ar
@<TRIPOS>SUBSTRUCTURE
     1 RES1 1

@<TRIPOS>CRYSIN
   6.9086   12.8550   24.0980  90.0000  92.9030  90.0000 231 1

