# MOL2 file generated by ConQuest
# Please check atom types

@<TRIPOS>MOLECULE
UZISAY
    60    55     2
SMALL
NO_CHARGES
****
Generated from CSD

@<TRIPOS>ATOM
      1 O1         7.6122    8.4264    5.3243 O.2       1 RES1    0.0000
      2 O2         4.6834   -1.0010    2.5239 O.2       1 RES1    0.0000
      3 O3         2.6499   -0.2710    2.3821 O.2       1 RES1    0.0000
      4 O4         3.1105    4.3307    7.9997 O.2       1 RES1    0.0000
      5 O5         4.1479    2.3333    7.9684 O.3       1 RES1    0.0000
      6 O6         5.0812    6.6330    9.9972 O.2       1 RES1    0.0000
      7 O7         5.4702    4.4146    9.9551 O.3       1 RES1    0.0000
      8 N1         6.6081    6.4071    5.9168 N.am      1 RES1    0.0000
      9 N2         6.4564    5.1093    5.2931 N.3       1 RES1    0.0000
     10 N3         3.8196   -0.1747    2.7787 N.pl3     1 RES1    0.0000
     11 C1         7.2130    7.3155    5.0479 C.2       1 RES1    0.0000
     12 C2         7.2757    6.6390    3.7042 C.3       1 RES1    0.0000
     13 H1         8.2022    6.3587    3.4939 H         1 RES1    0.0000
     14 H2         6.9551    7.2443    2.9891 H         1 RES1    0.0000
     15 C3         6.3711    5.4387    3.8364 C.3       1 RES1    0.0000
     16 H3         5.4430    5.6617    3.5744 H         1 RES1    0.0000
     17 H4         6.6924    4.6854    3.2799 H         1 RES1    0.0000
     18 C4         5.2064    4.5019    5.7750 C.3       1 RES1    0.0000
     19 H5         4.4615    5.1597    5.6596 H         1 RES1    0.0000
     20 C5         5.3975    4.2234    7.2750 C.3       1 RES1    0.0000
     21 H6         6.1343    3.5605    7.4048 H         1 RES1    0.0000
     22 C6         5.7538    5.5323    7.9660 C.2       1 RES1    0.0000
     23 C7         6.3351    6.5519    7.2846 C.2       1 RES1    0.0000
     24 C8         4.8839    3.2565    4.9830 C.ar      1 RES1    0.0000
     25 C9         5.7269    2.1432    4.9613 C.ar      1 RES1    0.0000
     26 H7         6.5393    2.1593    5.4529 H         1 RES1    0.0000
     27 C10        5.3919    1.0193    4.2342 C.ar      1 RES1    0.0000
     28 H8         5.9738    0.2685    4.2042 H         1 RES1    0.0000
     29 C11        4.1844    1.0122    3.5491 C.ar      1 RES1    0.0000
     30 C12        3.3211    2.0952    3.5455 C.ar      1 RES1    0.0000
     31 H9         2.4995    2.0670    3.0684 H         1 RES1    0.0000
     32 C13        3.6951    3.2171    4.2583 C.ar      1 RES1    0.0000
     33 H10        3.1286    3.9796    4.2546 H         1 RES1    0.0000
     34 C14        4.0931    3.6531    7.8062 C.2       1 RES1    0.0000
     35 C15        2.9011    1.6814    8.3434 C.3       1 RES1    0.0000
     36 H11        2.4049    2.2597    8.9756 H         1 RES1    0.0000
     37 H12        3.1028    0.8280    8.8050 H         1 RES1    0.0000
     38 C16        2.0548    1.4109    7.1548 C.3       1 RES1    0.0000
     39 H13        1.2308    0.9600    7.4360 H         1 RES1    0.0000
     40 H14        2.5435    0.8362    6.5298 H         1 RES1    0.0000
     41 H15        1.8297    2.2566    6.7137 H         1 RES1    0.0000
     42 C17        5.4116    5.6342    9.3987 C.2       1 RES1    0.0000
     43 C18        5.1524    4.3284   11.3806 C.3       1 RES1    0.0000
     44 H16        4.2699    4.7392   11.5597 H         1 RES1    0.0000
     45 H17        5.8356    4.8080   11.9130 H         1 RES1    0.0000
     46 C19        5.1366    2.8940   11.7496 C.3       1 RES1    0.0000
     47 H18        4.6794    2.3826   11.0477 H         1 RES1    0.0000
     48 H19        4.6519    2.7813   12.5969 H         1 RES1    0.0000
     49 H20        6.0505    2.5687   11.8493 H         1 RES1    0.0000
     50 C20        6.7461    7.8501    7.8987 C.3       1 RES1    0.0000
     51 H21        6.5934    7.8162    8.8662 H         1 RES1    0.0000
     52 H22        6.2175    8.5770    7.5105 H         1 RES1    0.0000
     53 H23        7.6979    8.0075    7.7233 H         1 RES1    0.0000
     54 C21        4.7632    4.3103   11.2327 Du        2 SUP2    0.0000
     55 C22        4.6106    2.8657   11.5861 Du        2 SUP2    0.0000
     56 H24        3.8664    4.7318   11.1570 Du        2 SUP2    0.0000
     57 H25        5.2664    4.7796   11.9406 Du        2 SUP2    0.0000
     58 H26        4.1186    2.4036   10.8794 Du        2 SUP2    0.0000
     59 H27        4.1116    2.7904   12.4322 Du        2 SUP2    0.0000
     60 H28        5.4940    2.4630   11.6955 Du        2 SUP2    0.0000
@<TRIPOS>BOND
     1    1   11 2
     2    2   10 2
     3    3   10 2
     4    4   34 2
     5    5   34 1
     6    6   42 2
     7    7   42 1
     8    8    9 1
     9    9   15 1
    10   10   29 1
    11   11    8 1
    12   12   11 1
    13   13   12 1
    14   14   12 1
    15   15   12 1
    16   16   15 1
    17   17   15 1
    18   18    9 1
    19   19   18 1
    20   20   18 1
    21   21   20 1
    22   22   20 1
    23   23    8 1
    24   24   18 1
    25   25   24 ar
    26   26   25 1
    27   27   25 ar
    28   28   27 1
    29   29   27 ar
    30   30   29 ar
    31   31   30 1
    32   32   24 ar
    33   33   32 1
    34   34   20 1
    35   35    5 1
    36   36   35 1
    37   37   35 1
    38   38   35 1
    39   39   38 1
    40   40   38 1
    41   41   38 1
    42   42   22 1
    43   43    7 1
    44   44   43 1
    45   45   43 1
    46   46   43 1
    47   47   46 1
    48   48   46 1
    49   49   46 1
    50   50   23 1
    51   51   50 1
    52   52   50 1
    53   53   50 1
    54   22   23 2
    55   30   32 ar
@<TRIPOS>SUBSTRUCTURE
     1 RES1 1
     2 SUP2 54

@<TRIPOS>CRYSIN
  10.0190   11.0190   12.2280  82.3530  80.2570  67.0020   2 1

