# MOL2 file generated by ConQuest
# Please check atom types

@<TRIPOS>MOLECULE
UZUBEY
    41    36     2
SMALL
NO_CHARGES
****
Generated from CSD

@<TRIPOS>ATOM
      1 O1        -0.1687    0.2706    3.8104 O.2       1 RES1    0.0000
      2 N1         0.1598    0.9597    1.6832 N.am      1 RES1    0.0000
      3 H1        -0.0186    0.1616    1.4320 H         1 RES1    0.0000
      4 N2         0.8812    2.2598    3.4568 N.am      1 RES1    0.0000
      5 C1         1.2805    3.1979    2.5696 C.2       1 RES1    0.0000
      6 O2         0.4188    1.5747   -0.4672 O.2       1 RES1    0.0000
      7 O3        -0.2121    4.8577    4.7436 O.2       1 RES1    0.0000
      8 C2         0.2566    1.1062    3.0418 C.2       1 RES1    0.0000
      9 C3         0.5576    1.8580    0.7179 C.2       1 RES1    0.0000
     10 O4         2.1042    6.1330   -0.3487 O.3       1 RES1    0.0000
     11 N3         1.5746    5.3360    0.6825 N.2       1 RES1    0.0000
     12 O5        -1.3949    4.3375    6.5453 O.3       1 RES1    0.0000
     13 C4         1.1247    3.0697    1.2305 C.2       1 RES1    0.0000
     14 C5         1.5646    4.1210    0.3150 C.2       1 RES1    0.0000
     15 C6         1.2185    2.3825    4.8925 C.3       1 RES1    0.0000
     16 C7        -0.4989    4.0725    5.6033 C.2       1 RES1    0.0000
     17 C8         0.0714    2.7111    5.7719 C.3       1 RES1    0.0000
     18 N4         2.8102    8.0007   -3.5686 N.1       1 RES1    0.0000
     19 C9         2.0077    3.9120   -1.0772 C.3       1 RES1    0.0000
     20 C10        2.7855    6.9861   -3.1048 C.1       1 RES1    0.0000
     21 C11       -2.0459    5.6052    6.4570 C.3       1 RES1    0.0000
     22 H2        -2.6735    5.6946    7.1762 H         1 RES1    0.0000
     23 H3        -2.5087    5.6699    5.6173 H         1 RES1    0.0000
     24 H4        -1.3906    6.3053    6.5139 H         1 RES1    0.0000
     25 H5         2.8331    3.7914   -0.7127 H         1 RES1    0.0000
     26 H6         1.6117    1.5079    5.1942 H         1 RES1    0.0000
     27 H7         1.8997    3.0590    4.9387 H         1 RES1    0.0000
     28 H8        -0.6960    2.1650    5.5815 H         1 RES1    0.0000
     29 H9         1.7070    3.9530    2.9209 H         1 RES1    0.0000
     30 H10        0.2988    2.5850    6.6067 H         1 RES1    0.0000
     31 H11        1.7926    3.2098   -1.5784 H         1 RES1    0.0000
     32 C12        1.8291    5.3973   -1.5980 C.3       1 RES1    0.0000
     33 C13        2.1502    5.5805   -2.5939 C.3       1 RES1    0.0000
     34 H12        1.3846    5.4049   -3.1634 H         1 RES1    0.0000
     35 H13        2.8070    4.8965   -2.7989 H         1 RES1    0.0000
     36 C14        2.8139    5.1959   -1.3360 Du        2 SUP2    0.0000
     37 H14        3.7093    5.2993   -1.4157 Du        2 SUP2    0.0000
     38 C15        2.9919    5.7323   -2.5141 Du        2 SUP2    0.0000
     39 H15        3.6115    5.7302   -2.1805 Du        2 SUP2    0.0000
     40 H16        3.1099    5.1485   -3.4010 Du        2 SUP2    0.0000
     41 H17        1.1484    5.6117   -2.0341 Du        2 SUP2    0.0000
@<TRIPOS>BOND
     1    1    8 2
     2    2    3 1
     3    4    5 1
     4    5   13 2
     5    6    9 2
     6    7   16 2
     7    8    2 1
     8    9    2 1
     9   10   11 1
    10   11   14 2
    11   12   16 1
    12   13    9 1
    13   14   13 1
    14   15    4 1
    15   16   17 1
    16   17   15 1
    17   18   20 3
    18   19   14 1
    19   20   33 1
    20   21   12 1
    21   22   21 1
    22   23   21 1
    23   24   21 1
    24   25   19 1
    25   26   15 1
    26   27   15 1
    27   28   17 1
    28   29    5 1
    29   30   17 1
    30   31   19 1
    31   32   10 1
    32   33   32 1
    33   34   33 1
    34   35   33 1
    35    4    8 1
    36   19   32 1
@<TRIPOS>SUBSTRUCTURE
     1 RES1 1
     2 SUP2 36

@<TRIPOS>CRYSIN
   8.0126   10.7710   16.5530  90.0000 100.5600  90.0000 231 1

