# MOL2 file generated by ConQuest
# Please check atom types

@<TRIPOS>MOLECULE
VABJEQ
    63    65     1
SMALL
NO_CHARGES
****
Generated from CSD

@<TRIPOS>ATOM
      1 O1         6.7576    8.5483   -0.2821 O.2       1 RES1    0.0000
      2 O2         8.0808   10.0201   -1.1498 O.2       1 RES1    0.0000
      3 O3         8.2261   14.4888    0.3264 O.2       1 RES1    0.0000
      4 O4         6.7770   15.2118    1.7498 O.2       1 RES1    0.0000
      5 N1         4.2522    8.9710    2.7074 N.2       1 RES1    0.0000
      6 N2         5.1931    9.1568    1.7133 N.pl3     1 RES1    0.0000
      7 H1         5.4547    8.4967    1.2262 H         1 RES1    0.0000
      8 N3         7.2131    9.6973   -0.3410 N.pl3     1 RES1    0.0000
      9 N4         7.2879   14.3265    1.0974 N.pl3     1 RES1    0.0000
     10 C1         3.2533    2.8292    2.8494 C.ar      1 RES1    0.0000
     11 H2         2.6419    2.6226    2.1779 H         1 RES1    0.0000
     12 C2         4.1016    1.8572    3.3161 C.ar      1 RES1    0.0000
     13 H3         4.0593    1.0088    2.9423 H         1 RES1    0.0000
     14 C3         5.0134    2.0951    4.3196 C.ar      1 RES1    0.0000
     15 C4         5.0486    3.3751    4.8216 C.ar      1 RES1    0.0000
     16 H4         5.6582    3.5798    5.4947 H         1 RES1    0.0000
     17 C5         4.2126    4.3544    4.3595 C.ar      1 RES1    0.0000
     18 H5         4.2655    5.2065    4.7271 H         1 RES1    0.0000
     19 C6         3.2956    4.1128    3.3636 C.ar      1 RES1    0.0000
     20 C7         5.9207    1.0070    4.8238 C.3       1 RES1    0.0000
     21 H6         5.4450    0.4574    5.4510 H         1 RES1    0.0000
     22 H7         6.6827    1.3998    5.2544 H         1 RES1    0.0000
     23 H8         6.2141    0.4685    4.0843 H         1 RES1    0.0000
     24 C8         2.3838    5.1843    2.8016 C.3       1 RES1    0.0000
     25 H9         2.7978    5.5550    2.0063 H         1 RES1    0.0000
     26 H10        1.5496    4.7694    2.5305 H         1 RES1    0.0000
     27 C9         2.0667    6.3204    3.7502 C.2       1 RES1    0.0000
     28 C10        0.9241    6.0825    4.6672 C.ar      1 RES1    0.0000
     29 C11        1.0263    5.3485    5.8254 C.ar      1 RES1    0.0000
     30 H11        1.8411    4.9612    6.0501 H         1 RES1    0.0000
     31 C12       -0.0722    5.1770    6.6741 C.ar      1 RES1    0.0000
     32 H12        0.0123    4.6753    7.4510 H         1 RES1    0.0000
     33 C13       -1.2729    5.7505    6.3527 C.ar      1 RES1    0.0000
     34 H13       -1.9971    5.6712    6.9300 H         1 RES1    0.0000
     35 C14       -1.4016    6.4329    5.1920 C.ar      1 RES1    0.0000
     36 H14       -2.2235    6.7981    4.9580 H         1 RES1    0.0000
     37 C15       -0.3198    6.5860    4.3527 C.ar      1 RES1    0.0000
     38 H15       -0.4325    7.0434    3.5508 H         1 RES1    0.0000
     39 C16        2.7212    7.5008    3.7655 C.2       1 RES1    0.0000
     40 C17        2.4525    8.5631    4.7817 C.3       1 RES1    0.0000
     41 H16        1.5663    8.4285    5.1515 H         1 RES1    0.0000
     42 H17        2.4631    9.4281    4.3433 H         1 RES1    0.0000
     43 C18        3.4638    8.5742    5.9187 C.3       1 RES1    0.0000
     44 H18        3.5158    7.6797    6.2903 H         1 RES1    0.0000
     45 H19        4.3359    8.7862    5.5508 H         1 RES1    0.0000
     46 C19        3.1846    9.5147    7.0142 C.3       1 RES1    0.0000
     47 H20        2.3723    9.2233    7.4573 H         1 RES1    0.0000
     48 H21        3.9043    9.4373    7.6632 H         1 RES1    0.0000
     49 C20        3.0383   10.8519    6.7084 C.3       1 RES1    0.0000
     50 H22        3.3731   11.0142    5.8223 H         1 RES1    0.0000
     51 H23        3.5308   11.3812    7.3387 H         1 RES1    0.0000
     52 H24        2.1089   11.0879    6.7490 H         1 RES1    0.0000
     53 C21        3.7545    7.7903    2.7891 C.2       1 RES1    0.0000
     54 H25        4.0576    7.1190    2.2216 H         1 RES1    0.0000
     55 C22        5.6952   10.4000    1.5205 C.ar      1 RES1    0.0000
     56 C23        6.6942   10.6914    0.5644 C.ar      1 RES1    0.0000
     57 C24        7.2192   11.9750    0.4428 C.ar      1 RES1    0.0000
     58 H26        7.8878   12.1521   -0.1779 H         1 RES1    0.0000
     59 C25        6.7479   12.9654    1.2397 C.ar      1 RES1    0.0000
     60 C26        5.7534   12.7330    2.1732 C.ar      1 RES1    0.0000
     61 H27        5.4433   13.4265    2.7083 H         1 RES1    0.0000
     62 C27        5.2310   11.4808    2.3046 C.ar      1 RES1    0.0000
     63 H28        4.5544   11.3332    2.9236 H         1 RES1    0.0000
@<TRIPOS>BOND
     1    1    8 2
     2    2    8 2
     3    3    9 2
     4    4    9 2
     5    5    6 1
     6    6    7 1
     7    8   56 1
     8    9   59 1
     9   10   11 1
    10   12   10 ar
    11   13   12 1
    12   14   12 ar
    13   15   14 ar
    14   16   15 1
    15   17   15 ar
    16   18   17 1
    17   19   10 ar
    18   20   14 1
    19   21   20 1
    20   22   20 1
    21   23   20 1
    22   24   19 1
    23   25   24 1
    24   26   24 1
    25   27   24 1
    26   28   27 1
    27   29   28 ar
    28   30   29 1
    29   31   29 ar
    30   32   31 1
    31   33   31 ar
    32   34   33 1
    33   35   33 ar
    34   36   35 1
    35   37   28 ar
    36   38   37 1
    37   39   27 2
    38   40   39 1
    39   41   40 1
    40   42   40 1
    41   43   40 1
    42   44   43 1
    43   45   43 1
    44   46   43 1
    45   47   46 1
    46   48   46 1
    47   49   46 1
    48   50   49 1
    49   51   49 1
    50   52   49 1
    51   53    5 2
    52   54   53 1
    53   55    6 1
    54   56   55 ar
    55   57   56 ar
    56   58   57 1
    57   59   57 ar
    58   60   59 ar
    59   61   60 1
    60   62   55 ar
    61   63   62 1
    62   17   19 ar
    63   35   37 ar
    64   39   53 1
    65   60   62 ar
@<TRIPOS>SUBSTRUCTURE
     1 RES1 1

@<TRIPOS>CRYSIN
   8.8093   18.4430   31.2020  90.0000  90.0000  90.0000  61 1

