# MOL2 file generated by ConQuest
# Please check atom types

@<TRIPOS>MOLECULE
VABNUH
    59    61     1
SMALL
NO_CHARGES
****
Generated from CSD

@<TRIPOS>ATOM
      1 C1         7.1344    5.0425   19.2662 C.ar      1 RES1    0.0000
      2 C2         7.0544    3.6217   19.3682 C.ar      1 RES1    0.0000
      3 C3         7.0113    3.0030   20.6058 C.ar      1 RES1    0.0000
      4 C4         7.0440    3.7356   21.7535 C.ar      1 RES1    0.0000
      5 C5         7.1128    5.1137   21.6975 C.ar      1 RES1    0.0000
      6 C6         7.1462    5.7576   20.5018 C.ar      1 RES1    0.0000
      7 N1         7.0488    2.7847   18.2045 N.pl3     1 RES1    0.0000
      8 O1         7.0544    1.5727   18.3325 O.2       1 RES1    0.0000
      9 O2         7.0196    3.3036   17.0949 O.2       1 RES1    0.0000
     10 N2         6.9723    3.0252   23.0291 N.pl3     1 RES1    0.0000
     11 O3         7.2283    3.6834   24.0228 O.2       1 RES1    0.0000
     12 O4         6.7532    1.8338   23.0371 O.2       1 RES1    0.0000
     13 N3         7.1574    5.6991   18.0946 N.3       1 RES1    0.0000
     14 N4         7.2520    7.0819   18.0746 N.2       1 RES1    0.0000
     15 C7         6.9932    7.6594   16.9849 C.2       1 RES1    0.0000
     16 C8         6.6252    6.9838   15.7133 C.3       1 RES1    0.0000
     17 C9         5.6428    7.7259   14.8895 C.3       1 RES1    0.0000
     18 C10        5.3931    9.1103   15.1615 C.2       1 RES1    0.0000
     19 C11        6.0373    9.8176   16.1272 C.2       1 RES1    0.0000
     20 C12        5.8133   11.2526   16.2851 C.3       1 RES1    0.0000
     21 C13        7.1059    9.1752   16.9929 C.3       1 RES1    0.0000
     22 C14        8.5105    9.5328   16.3951 C.3       1 RES1    0.0000
     23 C15        7.0328    9.8160   18.4045 C.2       1 RES1    0.0000
     24 O5         7.8496   10.6624   18.7304 O.2       1 RES1    0.0000
     25 N5         5.9990    9.4885   19.2242 N.am      1 RES1    0.0000
     26 C16        5.8007   10.2495   20.4719 C.3       1 RES1    0.0000
     27 C17        6.8819   10.1229   21.4975 C.3       1 RES1    0.0000
     28 O6         7.0460    8.7954   21.9074 O.3       1 RES1    0.0000
     29 C18        8.0221    8.6610   22.8751 C.3       1 RES1    0.0000
     30 C19        4.4240    9.7622   20.9557 C.3       1 RES1    0.0000
     31 C20        3.7324    9.2891   19.7121 C.3       1 RES1    0.0000
     32 C21        4.8421    8.6356   18.9383 C.3       1 RES1    0.0000
     33 H1         6.9570    2.0458   20.6578 H         1 RES1    0.0000
     34 H2         7.1372    5.6216   22.5112 H         1 RES1    0.0000
     35 H3         7.1782    6.7164   20.4859 H         1 RES1    0.0000
     36 H4         7.1073    5.2102   17.2708 H         1 RES1    0.0000
     37 H5         6.2509    6.1263   15.9252 H         1 RES1    0.0000
     38 H6         7.4231    6.8652   15.1934 H         1 RES1    0.0000
     39 H7         4.8038    7.2686   14.9775 H         1 RES1    0.0000
     40 H8         5.9434    7.6705   13.9798 H         1 RES1    0.0000
     41 H9         4.7328    9.5644   14.6316 H         1 RES1    0.0000
     42 H10        6.3497   11.5817   17.0089 H         1 RES1    0.0000
     43 H11        4.8859   11.4124   16.4751 H         1 RES1    0.0000
     44 H12        6.0568   11.7051   15.4754 H         1 RES1    0.0000
     45 H13        9.1978    9.1293   16.9309 H         1 RES1    0.0000
     46 H14        8.6246   10.4868   16.3951 H         1 RES1    0.0000
     47 H15        8.5689    9.2021   15.4973 H         1 RES1    0.0000
     48 H16        5.8390   11.1956   20.3139 H         1 RES1    0.0000
     49 H17        6.6530   10.6593   22.2593 H         1 RES1    0.0000
     50 H18        7.7077   10.4378   21.1217 H         1 RES1    0.0000
     51 H19        8.0917    7.7385   23.1331 H         1 RES1    0.0000
     52 H20        7.7884    9.1910   23.6409 H         1 RES1    0.0000
     53 H21        8.8639    8.9600   22.5232 H         1 RES1    0.0000
     54 H22        3.9342   10.4805   21.3616 H         1 RES1    0.0000
     55 H23        4.5207    9.0439   21.5835 H         1 RES1    0.0000
     56 H24        3.0402    8.6578   19.9220 H         1 RES1    0.0000
     57 H25        3.3581   10.0248   19.2242 H         1 RES1    0.0000
     58 H26        4.6459    8.6246   17.9986 H         1 RES1    0.0000
     59 H27        4.9930    7.7385   19.2442 H         1 RES1    0.0000
@<TRIPOS>BOND
     1    1    2 ar
     2    2    3 ar
     3    3    4 ar
     4    4    5 ar
     5    5    6 ar
     6    6    1 ar
     7    7    2 1
     8    8    7 2
     9    9    7 2
    10   10    4 1
    11   11   10 2
    12   12   10 2
    13   13    1 1
    14   14   13 1
    15   15   14 2
    16   16   15 1
    17   17   16 1
    18   18   17 1
    19   19   18 2
    20   20   19 1
    21   21   15 1
    22   22   21 1
    23   23   21 1
    24   24   23 2
    25   25   23 1
    26   26   25 1
    27   27   26 1
    28   28   27 1
    29   29   28 1
    30   30   26 1
    31   31   30 1
    32   32   25 1
    33   33    3 1
    34   34    5 1
    35   35    6 1
    36   36   13 1
    37   37   16 1
    38   38   16 1
    39   39   17 1
    40   40   17 1
    41   41   18 1
    42   42   20 1
    43   43   20 1
    44   44   20 1
    45   45   22 1
    46   46   22 1
    47   47   22 1
    48   48   26 1
    49   49   27 1
    50   50   27 1
    51   51   29 1
    52   52   29 1
    53   53   29 1
    54   54   30 1
    55   55   30 1
    56   56   31 1
    57   57   31 1
    58   58   32 1
    59   59   32 1
    60   19   21 1
    61   31   32 1
@<TRIPOS>SUBSTRUCTURE
     1 RES1 1

@<TRIPOS>CRYSIN
   6.9570   15.8220   19.9940  90.0000  90.0000  90.0000  19 1

