# MOL2 file generated by ConQuest
# Please check atom types

@<TRIPOS>MOLECULE
VABXEB
    35    36     1
SMALL
NO_CHARGES
****
Generated from CSD

@<TRIPOS>ATOM
      1 C1         3.3207    8.6551    0.6951 C.ar      1 RES1    0.0000
      2 O1         0.1167    5.9103   -1.8833 O.3       1 RES1    0.0000
      3 N1         1.4334    5.8528   -2.3841 N.2       1 RES1    0.0000
      4 C2         1.1474    7.8251   -1.3577 C.2       1 RES1    0.0000
      5 C3         2.0164    6.9940   -2.0539 C.2       1 RES1    0.0000
      6 C4        -1.3541    7.4124   -0.6995 C.3       1 RES1    0.0000
      7 C5         3.4694    7.4146    1.3034 C.ar      1 RES1    0.0000
      8 O2         1.8378   11.7371    0.2607 O.2       1 RES1    0.0000
      9 C6         4.7009    6.8057    1.3685 C.ar      1 RES1    0.0000
     10 C7        -0.0264    7.0944   -1.2827 C.2       1 RES1    0.0000
     11 C8         2.1724   10.8034    0.9091 C.2       1 RES1    0.0000
     12 C9         1.4108    9.2201   -0.8754 C.3       1 RES1    0.0000
     13 C10        1.9614    9.3452    0.5648 C.3       1 RES1    0.0000
     14 C11        5.8071    7.4112    0.8613 C.ar      1 RES1    0.0000
     15 C12        4.4571    9.2618    0.1749 C.ar      1 RES1    0.0000
     16 C13        0.9318    8.8412    1.5803 C.3       1 RES1    0.0000
     17 C14        3.4153    7.2162   -2.5057 C.3       1 RES1    0.0000
     18 C15        5.6960    8.6416    0.2639 C.ar      1 RES1    0.0000
     19 H1        -1.3046    7.3549    0.2574 H         1 RES1    0.0000
     20 H2        -2.0050    6.7876   -1.0253 H         1 RES1    0.0000
     21 H3        -1.6100    8.3021   -0.9525 H         1 RES1    0.0000
     22 H4         2.7039    6.9782    1.6846 H         1 RES1    0.0000
     23 H5         4.7804    5.9407    1.7769 H         1 RES1    0.0000
     24 H6         2.6231   10.9906    1.7356 H         1 RES1    0.0000
     25 H7         2.0485    9.6215   -1.4706 H         1 RES1    0.0000
     26 H8         0.5833    9.7072   -0.9178 H         1 RES1    0.0000
     27 H9         6.6620    6.9793    0.9200 H         1 RES1    0.0000
     28 H10        4.3855   10.1189   -0.2498 H         1 RES1    0.0000
     29 H11        0.7230    7.9232    1.3957 H         1 RES1    0.0000
     30 H12        0.1333    9.3701    1.5141 H         1 RES1    0.0000
     31 H13        1.2922    8.9156    2.4666 H         1 RES1    0.0000
     32 H14        3.5095    8.1161   -2.8239 H         1 RES1    0.0000
     33 H15        3.6232    6.6016   -3.2139 H         1 RES1    0.0000
     34 H16        4.0149    7.0718   -1.7704 H         1 RES1    0.0000
     35 H17        6.4763    9.0735   -0.0934 H         1 RES1    0.0000
@<TRIPOS>BOND
     1    1    7 ar
     2    2    3 1
     3    3    5 2
     4    4    5 1
     5    5   17 1
     6    6   10 1
     7    7    9 ar
     8    8   11 2
     9    9   14 ar
    10   10    2 1
    11   11   13 1
    12   12    4 1
    13   13    1 1
    14   14   18 ar
    15   15    1 ar
    16   16   13 1
    17   17   32 1
    18   18   15 ar
    19   19    6 1
    20   20    6 1
    21   21    6 1
    22   22    7 1
    23   23    9 1
    24   24   11 1
    25   25   12 1
    26   26   12 1
    27   27   14 1
    28   28   15 1
    29   29   16 1
    30   30   16 1
    31   31   16 1
    32   33   17 1
    33   34   17 1
    34   35   18 1
    35    4   10 2
    36   12   13 1
@<TRIPOS>SUBSTRUCTURE
     1 RES1 1

@<TRIPOS>CRYSIN
  10.7150   11.2770   10.9090  90.0000  95.3600  90.0000 231 1

