# MOL2 file generated by ConQuest
# Please check atom types

@<TRIPOS>MOLECULE
VABZIH
    46    50     1
SMALL
NO_CHARGES
****
Generated from CSD

@<TRIPOS>ATOM
      1 C1         8.7771    3.1512    7.9816 C.3       1 RES1    0.0000
      2 C2         7.7409    3.7055    8.9652 C.3       1 RES1    0.0000
      3 C3         7.9097    5.1965    9.2550 C.3       1 RES1    0.0000
      4 O1         7.2640    5.5606   10.4689 O.3       1 RES1    0.0000
      5 C4         7.8436    4.8928   11.5877 C.3       1 RES1    0.0000
      6 C5         7.5735    3.4192   11.5104 C.3       1 RES1    0.0000
      7 C6         8.0232    2.8375   10.1910 C.3       1 RES1    0.0000
      8 O2         9.4635    2.7515   10.2059 O.3       1 RES1    0.0000
      9 N1         9.8916    2.6573    8.8152 N.3       1 RES1    0.0000
     10 C7         9.9881    1.2861    8.4304 C.2       1 RES1    0.0000
     11 N2         9.0979    0.8955    7.6057 N.2       1 RES1    0.0000
     12 O3         8.2078    1.9493    7.3784 O.3       1 RES1    0.0000
     13 C8         9.2689    4.0431    6.8673 C.ar      1 RES1    0.0000
     14 C9         8.4403    4.2772    5.7767 C.ar      1 RES1    0.0000
     15 C10        8.8853    5.0831    4.7322 C.ar      1 RES1    0.0000
     16 C11       10.1337    5.6374    4.7738 C.ar      1 RES1    0.0000
     17 C12       10.9575    5.4170    5.8525 C.ar      1 RES1    0.0000
     18 C13       10.5224    4.6184    6.9059 C.ar      1 RES1    0.0000
     19 O4         7.2662    5.8798    8.2402 O.3       1 RES1    0.0000
     20 C14        7.6462    7.2464    8.1154 C.3       1 RES1    0.0000
     21 C15       11.0885    0.4299    8.8969 C.ar      1 RES1    0.0000
     22 C16       11.2693   -0.8214    8.3308 C.ar      1 RES1    0.0000
     23 C17       12.3263   -1.6108    8.7439 C.ar      1 RES1    0.0000
     24 C18       13.1963   -1.1763    9.7111 C.ar      1 RES1    0.0000
     25 C19       13.0090    0.0640   10.2846 C.ar      1 RES1    0.0000
     26 C20       11.9545    0.8754    9.8790 C.ar      1 RES1    0.0000
     27 H1         6.7262    3.6534    8.5997 H         1 RES1    0.0000
     28 H2         8.9622    5.4307    9.3278 H         1 RES1    0.0000
     29 H3         8.9113    5.0602   11.5891 H         1 RES1    0.0000
     30 H4         7.4185    5.2898   12.4984 H         1 RES1    0.0000
     31 H5         8.1027    2.9198   12.3097 H         1 RES1    0.0000
     32 H6         6.5127    3.2509   11.6233 H         1 RES1    0.0000
     33 H7         7.4844    1.9017   10.1048 H         1 RES1    0.0000
     34 H8         7.4556    3.8363    5.7411 H         1 RES1    0.0000
     35 H9         8.2428    5.2715    3.8853 H         1 RES1    0.0000
     36 H10       10.4786    6.2539    3.9537 H         1 RES1    0.0000
     37 H11       11.9425    5.8634    5.7946 H         1 RES1    0.0000
     38 H12       11.1680    4.4492    7.7261 H         1 RES1    0.0000
     39 H13        7.0982    7.7029    7.3026 H         1 RES1    0.0000
     40 H14        8.7059    7.3086    7.9133 H         1 RES1    0.0000
     41 H15        7.4239    7.7715    9.0351 H         1 RES1    0.0000
     42 H16       10.5885   -1.1818    7.5731 H         1 RES1    0.0000
     43 H17       12.4708   -2.5887    8.2966 H         1 RES1    0.0000
     44 H18       14.0229   -1.8047   10.0187 H         1 RES1    0.0000
     45 H19       13.6859    0.4098   11.0543 H         1 RES1    0.0000
     46 H20       11.8112    1.8514   10.3307 H         1 RES1    0.0000
@<TRIPOS>BOND
     1    1    2 1
     2    2    3 1
     3    3    4 1
     4    4    5 1
     5    5    6 1
     6    6    7 1
     7    7    2 1
     8    8    7 1
     9    9    1 1
    10   10    9 1
    11   11   10 2
    12   12    1 1
    13   13    1 1
    14   14   13 ar
    15   15   14 ar
    16   16   15 ar
    17   17   16 ar
    18   18   13 ar
    19   19    3 1
    20   20   19 1
    21   21   10 1
    22   22   21 ar
    23   23   22 ar
    24   24   23 ar
    25   25   24 ar
    26   26   21 ar
    27   27    2 1
    28   28    3 1
    29   29    5 1
    30   30    5 1
    31   31    6 1
    32   32    6 1
    33   33    7 1
    34   34   14 1
    35   35   15 1
    36   36   16 1
    37   37   17 1
    38   38   18 1
    39   39   20 1
    40   40   20 1
    41   41   20 1
    42   42   22 1
    43   43   23 1
    44   44   24 1
    45   45   25 1
    46   46   26 1
    47    8    9 1
    48   11   12 1
    49   17   18 ar
    50   25   26 ar
@<TRIPOS>SUBSTRUCTURE
     1 RES1 1

@<TRIPOS>CRYSIN
  12.6810    9.1472   14.8600  90.0000  90.9700  90.0000  14 1

