# MOL2 file generated by ConQuest
# Please check atom types

@<TRIPOS>MOLECULE
VACBAC
    17    17     1
SMALL
NO_CHARGES
****
Generated from CSD

@<TRIPOS>ATOM
      1 C1         5.7904    2.0235    2.0268 C.ar      1 RES1    0.0000
      2 C2         6.0583    0.7341    1.5659 C.ar      1 RES1    0.0000
      3 C3         5.0696   -0.2478    1.6246 C.ar      1 RES1    0.0000
      4 C4         3.8122    0.0597    2.1442 C.ar      1 RES1    0.0000
      5 C5         3.5434    1.3490    2.6043 C.ar      1 RES1    0.0000
      6 C6         4.5322    2.3310    2.5465 C.ar      1 RES1    0.0000
      7 C7         4.2727    3.7843    2.9824 C.3       1 RES1    0.0000
      8 C8         3.1362    4.4316    2.1520 C.2       1 RES1    0.0000
      9 C9         2.8915    3.9140    0.8408 C.1       1 RES1    0.0000
     10 C10        2.3856    5.4640    2.5965 C.2       1 RES1    0.0000
     11 C11        1.2785    6.0492    1.8188 C.3       1 RES1    0.0000
     12 N1         2.6926    3.4784   -0.1899 N.1       1 RES1    0.0000
     13 N2         2.2271    1.6402    3.1654 N.pl3     1 RES1    0.0000
     14 N3         2.6252    6.0404    3.7826 N.pl3     1 RES1    0.0000
     15 O1         2.1206    2.3678    4.0735 O.2       1 RES1    0.0000
     16 O2         1.3090    1.0008    2.6129 O.2       1 RES1    0.0000
     17 O3         5.4436    4.6115    2.8779 O.3       1 RES1    0.0000
@<TRIPOS>BOND
     1    1    2 ar
     2    2    3 ar
     3    3    4 ar
     4    4    5 ar
     5    5    6 ar
     6    6    1 ar
     7    7    6 1
     8    8    7 1
     9    9    8 1
    10   10    8 2
    11   11   10 1
    12   12    9 3
    13   13    5 1
    14   14   10 1
    15   15   13 2
    16   16   13 2
    17   17    7 1
@<TRIPOS>SUBSTRUCTURE
     1 RES1 1

@<TRIPOS>CRYSIN
   7.8470    8.6030    8.8830  78.7100  81.2300  83.7000   2 1

