# MOL2 file generated by ConQuest
# Please check atom types

@<TRIPOS>MOLECULE
VACFAI
    40    42     1
SMALL
NO_CHARGES
****
Generated from CSD

@<TRIPOS>ATOM
      1 O1         1.5666    7.3402    8.0966 O.2       1 RES1    0.0000
      2 O2        -0.5453   10.1580    7.3711 O.3       1 RES1    0.0000
      3 O3        -1.1303    3.1984    9.3091 O.3       1 RES1    0.0000
      4 O4         4.2191   11.1992   12.2742 O.2       1 RES1    0.0000
      5 O5         4.8579    9.7872   10.7805 O.2       1 RES1    0.0000
      6 N1         3.9888   10.3848   11.3916 N.pl3     1 RES1    0.0000
      7 C1        -0.7262    7.9447    8.0752 C.ar      1 RES1    0.0000
      8 C2        -1.3225    9.0421    7.4833 C.ar      1 RES1    0.0000
      9 C3        -2.6539    8.9841    7.0241 C.ar      1 RES1    0.0000
     10 H1        -3.0599    9.7483    6.6317 H         1 RES1    0.0000
     11 C4        -3.3506    7.8231    7.1478 C.ar      1 RES1    0.0000
     12 H2        -4.2533    7.7946    6.8521 H         1 RES1    0.0000
     13 C5        -2.7768    6.6629    7.6988 C.ar      1 RES1    0.0000
     14 C6        -3.4827    5.4340    7.7624 C.ar      1 RES1    0.0000
     15 H3        -4.3764    5.3937    7.4432 H         1 RES1    0.0000
     16 C7        -2.9068    4.3138    8.2690 C.ar      1 RES1    0.0000
     17 H4        -3.3852    3.4929    8.2805 H         1 RES1    0.0000
     18 C8        -1.5844    4.3776    8.7825 C.ar      1 RES1    0.0000
     19 C9        -0.8652    5.5412    8.7444 C.ar      1 RES1    0.0000
     20 H5         0.0176    5.5661    9.0944 H         1 RES1    0.0000
     21 C10       -1.4387    6.7131    8.1824 C.ar      1 RES1    0.0000
     22 C11        0.6905    8.0410    8.5622 C.2       1 RES1    0.0000
     23 C12        0.9941    8.9892    9.6807 C.ar      1 RES1    0.0000
     24 C13        2.3238    9.2518   10.0028 C.ar      1 RES1    0.0000
     25 H6         3.0317    8.8559    9.5083 H         1 RES1    0.0000
     26 C14        2.5853   10.0990   11.0569 C.ar      1 RES1    0.0000
     27 C15        1.5876   10.6831   11.8196 C.ar      1 RES1    0.0000
     28 H7         1.8011   11.2567   12.5468 H         1 RES1    0.0000
     29 C16        0.2739   10.4090   11.4934 C.ar      1 RES1    0.0000
     30 H8        -0.4296   10.7960   12.0015 H         1 RES1    0.0000
     31 C17       -0.0224    9.5731   10.4287 C.ar      1 RES1    0.0000
     32 H9        -0.9295    9.3968   10.2073 H         1 RES1    0.0000
     33 C18       -1.0171   11.2281    6.5528 C.3       1 RES1    0.0000
     34 H10       -0.3121   11.9017    6.4581 H         1 RES1    0.0000
     35 H11       -1.8048   11.6355    6.9694 H         1 RES1    0.0000
     36 H12       -1.2581   10.8813    5.6689 H         1 RES1    0.0000
     37 C19        0.1778    3.1967    9.8794 C.3       1 RES1    0.0000
     38 H13        0.3714    2.3104   10.2495 H         1 RES1    0.0000
     39 H14        0.2234    3.8666   10.5931 H         1 RES1    0.0000
     40 H15        0.8367    3.4127    9.1870 H         1 RES1    0.0000
@<TRIPOS>BOND
     1    1   22 2
     2    2    8 1
     3    3   18 1
     4    4    6 2
     5    5    6 2
     6    6   26 1
     7    7    8 ar
     8    8    9 ar
     9    9   10 1
    10   11    9 ar
    11   12   11 1
    12   13   11 ar
    13   14   13 ar
    14   15   14 1
    15   16   14 ar
    16   17   16 1
    17   18   16 ar
    18   19   18 ar
    19   20   19 1
    20   21    7 ar
    21   22    7 1
    22   23   22 1
    23   24   23 ar
    24   25   24 1
    25   26   24 ar
    26   27   26 ar
    27   28   27 1
    28   29   27 ar
    29   30   29 1
    30   31   23 ar
    31   32   31 1
    32   33    2 1
    33   34   33 1
    34   35   33 1
    35   36   33 1
    36   37    3 1
    37   38   37 1
    38   39   37 1
    39   40   37 1
    40   13   21 ar
    41   19   21 ar
    42   29   31 ar
@<TRIPOS>SUBSTRUCTURE
     1 RES1 1

@<TRIPOS>CRYSIN
   8.0566   17.0634   11.7660  90.0000  94.6600  90.0000 231 1

