# MOL2 file generated by ConQuest
# Please check atom types

@<TRIPOS>MOLECULE
VACHEO
    48    51     1
SMALL
NO_CHARGES
****
Generated from CSD

@<TRIPOS>ATOM
      1 O1         2.5057    3.9295    5.6801 O.2       1 RES1    0.0000
      2 O2         1.8692    0.9378    3.5276 O.2       1 RES1    0.0000
      3 O3         0.6093    4.3179    1.2085 O.3       1 RES1    0.0000
      4 N1         0.3347    3.4882    6.1412 N.am      1 RES1    0.0000
      5 N2        -0.1783    1.2173    4.4457 N.am      1 RES1    0.0000
      6 N3         0.9645    5.4090    0.3950 N.2       1 RES1    0.0000
      7 C1         1.1143    3.2058    3.8491 C.3       1 RES1    0.0000
      8 H1         0.2582    3.5956    3.5739 H         1 RES1    0.0000
      9 C2         1.3927    3.5956    5.2937 C.2       1 RES1    0.0000
     10 C3        -0.9819    3.1737    5.6993 C.ar      1 RES1    0.0000
     11 C4        -2.0576    3.9595    6.1172 C.ar      1 RES1    0.0000
     12 H2        -1.9070    4.6756    6.6907 H         1 RES1    0.0000
     13 C5        -3.3447    3.6883    5.6887 C.ar      1 RES1    0.0000
     14 H3        -4.0526    4.2161    5.9798 H         1 RES1    0.0000
     15 C6        -3.5761    2.6341    4.8312 C.ar      1 RES1    0.0000
     16 H4        -4.4381    2.4633    4.5273 H         1 RES1    0.0000
     17 C7        -2.5297    1.8316    4.4214 C.ar      1 RES1    0.0000
     18 H5        -2.6945    1.1176    3.8499 H         1 RES1    0.0000
     19 C8        -1.2272    2.0819    4.8585 C.ar      1 RES1    0.0000
     20 C9         0.9774    1.6859    3.8915 C.2       1 RES1    0.0000
     21 C10        0.5553    3.8201    7.5602 C.3       1 RES1    0.0000
     22 H6         1.3496    3.3801    7.8727 H         1 RES1    0.0000
     23 H7        -0.1969    3.5265    8.0790 H         1 RES1    0.0000
     24 H8         0.6576    4.7704    7.6552 H         1 RES1    0.0000
     25 C11       -0.3306   -0.2308    4.6213 C.3       1 RES1    0.0000
     26 H9        -0.0491   -0.6812    3.8220 H         1 RES1    0.0000
     27 H10       -1.2510   -0.4365    4.7978 H         1 RES1    0.0000
     28 H11        0.2092   -0.5222    5.3609 H         1 RES1    0.0000
     29 C12        2.2010    3.6730    2.8943 C.3       1 RES1    0.0000
     30 H12        2.3892    4.6107    3.0582 H         1 RES1    0.0000
     31 H13        3.0134    3.1710    3.0638 H         1 RES1    0.0000
     32 C13        1.7980    3.4917    1.4547 C.3       1 RES1    0.0000
     33 H14        1.5995    2.5490    1.2740 H         1 RES1    0.0000
     34 C14        2.8354    4.0118    0.4608 C.3       1 RES1    0.0000
     35 H15        3.6837    4.1952    0.8949 H         1 RES1    0.0000
     36 H16        2.9756    3.3857   -0.2676 H         1 RES1    0.0000
     37 C15        2.1765    5.2738   -0.0170 C.2       1 RES1    0.0000
     38 C16        2.8002    6.2722   -0.9013 C.ar      1 RES1    0.0000
     39 C17        2.0843    7.4073   -1.2949 C.ar      1 RES1    0.0000
     40 H17        1.2190    7.5418   -0.9813 H         1 RES1    0.0000
     41 C18        2.6566    8.3276   -2.1460 C.ar      1 RES1    0.0000
     42 H18        2.1736    9.0785   -2.4058 H         1 RES1    0.0000
     43 C19        3.9486    8.1435   -2.6197 C.ar      1 RES1    0.0000
     44 H19        4.3256    8.7634   -3.2004 H         1 RES1    0.0000
     45 C20        4.6683    7.0377   -2.2255 C.ar      1 RES1    0.0000
     46 H20        5.5387    6.9164   -2.5313 H         1 RES1    0.0000
     47 C21        4.0969    6.1076   -1.3760 C.ar      1 RES1    0.0000
     48 H21        4.5866    5.3609   -1.1179 H         1 RES1    0.0000
@<TRIPOS>BOND
     1    1    9 2
     2    2   20 2
     3    3    6 1
     4    4    9 1
     5    5   19 1
     6    6   37 2
     7    7    8 1
     8    9    7 1
     9   10    4 1
    10   11   10 ar
    11   12   11 1
    12   13   11 ar
    13   14   13 1
    14   15   13 ar
    15   16   15 1
    16   17   15 ar
    17   18   17 1
    18   19   10 ar
    19   20    5 1
    20   21    4 1
    21   22   21 1
    22   23   21 1
    23   24   21 1
    24   25    5 1
    25   26   25 1
    26   27   25 1
    27   28   25 1
    28   29    7 1
    29   30   29 1
    30   31   29 1
    31   32    3 1
    32   33   32 1
    33   34   32 1
    34   35   34 1
    35   36   34 1
    36   37   34 1
    37   38   37 1
    38   39   38 ar
    39   40   39 1
    40   41   39 ar
    41   42   41 1
    42   43   41 ar
    43   44   43 1
    44   45   43 ar
    45   46   45 1
    46   47   38 ar
    47   48   47 1
    48    7   20 1
    49   17   19 ar
    50   29   32 1
    51   45   47 ar
@<TRIPOS>SUBSTRUCTURE
     1 RES1 1

@<TRIPOS>CRYSIN
   9.3491    6.9722   27.9201  90.0000  93.1570  90.0000 231 1

