# MOL2 file generated by ConQuest
# Please check atom types

@<TRIPOS>MOLECULE
VACKAN
    52    53     1
SMALL
NO_CHARGES
****
Generated from CSD

@<TRIPOS>ATOM
      1 N1         1.8911    5.6518    7.6479 N.2       1 RES1    0.0000
      2 O1         1.0548    6.4047    6.8063 O.3       1 RES1    0.0000
      3 O2         3.0812    4.7766    9.8397 O.3       1 RES1    0.0000
      4 H1         2.5564    5.2351    9.4082 H         1 RES1    0.0000
      5 O3         5.8874    1.2354    6.6759 O.3       1 RES1    0.0000
      6 C1         0.3446    7.3732    7.5871 C.3       1 RES1    0.0000
      7 H2         0.9674    7.9572    8.0470 H         1 RES1    0.0000
      8 H3        -0.2108    6.9304    8.2481 H         1 RES1    0.0000
      9 C2        -0.5063    8.1653    6.6367 C.3       1 RES1    0.0000
     10 H4        -1.0677    8.7697    7.1481 H         1 RES1    0.0000
     11 H5        -1.0895    7.5561    6.1573 H         1 RES1    0.0000
     12 C3         2.5529    4.7819    6.9850 C.2       1 RES1    0.0000
     13 H6         2.4229    4.7174    6.0665 H         1 RES1    0.0000
     14 C4         3.5009    3.8910    7.6276 C.ar      1 RES1    0.0000
     15 C5         3.7357    3.9190    8.9986 C.ar      1 RES1    0.0000
     16 C6         4.6549    3.0512    9.5578 C.ar      1 RES1    0.0000
     17 H7         4.7981    3.0530   10.4775 H         1 RES1    0.0000
     18 C7         5.3599    2.1810    8.7509 C.ar      1 RES1    0.0000
     19 H8         5.9935    1.6148    9.1286 H         1 RES1    0.0000
     20 C8         5.1336    2.1414    7.3774 C.ar      1 RES1    0.0000
     21 C9         4.2095    2.9990    6.8317 C.ar      1 RES1    0.0000
     22 H9         4.0559    2.9827    5.9144 H         1 RES1    0.0000
     23 C10        5.7442    1.2380    5.2584 C.3       1 RES1    0.0000
     24 H10        4.8408    1.0097    5.0266 H         1 RES1    0.0000
     25 H11        6.3450    0.5948    4.8745 H         1 RES1    0.0000
     26 H12        5.9511    2.1119    4.9175 H         1 RES1    0.0000
     27 N1B       -2.1011   11.4900    4.6151 N.2       1 RES1    0.0000
     28 O1B       -1.2648   10.7371    5.4567 O.3       1 RES1    0.0000
     29 O2B       -3.2912   12.3652    2.4233 O.3       1 RES1    0.0000
     30 H1B       -2.7664   11.9067    2.8548 H         1 RES1    0.0000
     31 O3B       -6.0974   15.9064    5.5871 O.3       1 RES1    0.0000
     32 C1B       -0.5546    9.7686    4.6759 C.3       1 RES1    0.0000
     33 H2B       -1.1774    9.1846    4.2160 H         1 RES1    0.0000
     34 H3B        0.0008   10.2114    4.0149 H         1 RES1    0.0000
     35 C2B        0.2963    8.9765    5.6263 C.3       1 RES1    0.0000
     36 H4B        0.8577    8.3721    5.1149 H         1 RES1    0.0000
     37 H5B        0.8795    9.5857    6.1057 H         1 RES1    0.0000
     38 C3B       -2.7629   12.3599    5.2780 C.2       1 RES1    0.0000
     39 H6B       -2.6329   12.4244    6.1965 H         1 RES1    0.0000
     40 C4B       -3.7109   13.2508    4.6354 C.ar      1 RES1    0.0000
     41 C5B       -3.9457   13.2228    3.2644 C.ar      1 RES1    0.0000
     42 C6B       -4.8648   14.0906    2.7052 C.ar      1 RES1    0.0000
     43 H7B       -5.0081   14.0888    1.7855 H         1 RES1    0.0000
     44 C7B       -5.5699   14.9608    3.5121 C.ar      1 RES1    0.0000
     45 H8B       -6.2035   15.5270    3.1344 H         1 RES1    0.0000
     46 C8B       -5.3436   15.0004    4.8856 C.ar      1 RES1    0.0000
     47 C9B       -4.4195   14.1428    5.4313 C.ar      1 RES1    0.0000
     48 H9B       -4.2658   14.1591    6.3486 H         1 RES1    0.0000
     49 C10B      -5.9542   15.9038    7.0046 C.3       1 RES1    0.0000
     50 H10B      -5.0508   16.1321    7.2364 H         1 RES1    0.0000
     51 H11B      -6.5550   16.5470    7.3885 H         1 RES1    0.0000
     52 H12B      -6.1611   15.0299    7.3455 H         1 RES1    0.0000
@<TRIPOS>BOND
     1    1    2 1
     2    2    6 1
     3    3    4 1
     4    5   20 1
     5    6    7 1
     6    8    6 1
     7    9    6 1
     8   10    9 1
     9   11    9 1
    10   12    1 2
    11   13   12 1
    12   14   12 1
    13   15    3 1
    14   16   15 ar
    15   17   16 1
    16   18   16 ar
    17   19   18 1
    18   20   18 ar
    19   21   14 ar
    20   22   21 1
    21   23    5 1
    22   24   23 1
    23   25   23 1
    24   26   23 1
    25   27   28 1
    26   28   32 1
    27   29   30 1
    28   31   46 1
    29   32   33 1
    30   34   32 1
    31   35    9 1
    32   36   35 1
    33   37   35 1
    34   38   27 2
    35   39   38 1
    36   40   38 1
    37   41   29 1
    38   42   41 ar
    39   43   42 1
    40   44   42 ar
    41   45   44 1
    42   46   44 ar
    43   47   40 ar
    44   48   47 1
    45   49   31 1
    46   50   49 1
    47   51   49 1
    48   52   49 1
    49   14   15 ar
    50   20   21 ar
    51   32   35 1
    52   40   41 ar
    53   46   47 ar
@<TRIPOS>SUBSTRUCTURE
     1 RES1 1

@<TRIPOS>CRYSIN
   4.7310   17.1418   12.2648  90.0000  90.9810  90.0000  14 1

