# MOL2 file generated by ConQuest
# Please check atom types

@<TRIPOS>MOLECULE
VACROG
    24    24     1
SMALL
NO_CHARGES
****
Generated from CSD

@<TRIPOS>ATOM
      1 N1         3.8610    1.3314   -2.1445 N.3       1 RES1    0.0000
      2 N2         4.9767    2.0813   -2.0049 N.2       1 RES1    0.0000
      3 C1         4.9308    2.7953   -3.1037 C.2       1 RES1    0.0000
      4 N3         3.8930    2.5950   -3.9243 N.2       1 RES1    0.0000
      5 C2         3.2305    1.6533   -3.2751 C.2       1 RES1    0.0000
      6 N4         5.9479    3.7808   -3.4018 N.pl3     1 RES1    0.0000
      7 O1         6.8505    3.9226   -2.5988 O.2       1 RES1    0.0000
      8 O2         5.8324    4.4151   -4.4294 O.2       1 RES1    0.0000
      9 C3         3.4082    0.4416   -1.0898 C.3       1 RES1    0.0000
     10 C4         2.4549    1.1660   -0.1472 C.2       1 RES1    0.0000
     11 O3         2.2697    2.3721   -0.2353 O.2       1 RES1    0.0000
     12 N5         1.8317    0.3818    0.7090 N.am      1 RES1    0.0000
     13 C5         0.8941    0.9181    1.6897 C.3       1 RES1    0.0000
     14 C6         0.2302   -0.1928    2.4498 C.3       1 RES1    0.0000
     15 O4        -0.7641    0.3200    3.3233 O.3       1 RES1    0.0000
     16 H1         2.3666    1.2442   -3.5396 H         1 RES1    0.0000
     17 H2         4.1658    0.1273   -0.6148 H         1 RES1    0.0000
     18 H3         2.9177   -0.3063   -1.5090 H         1 RES1    0.0000
     19 H4         2.1362   -0.5231    0.6148 H         1 RES1    0.0000
     20 H5         1.3654    1.5223    2.3287 H         1 RES1    0.0000
     21 H6         0.1128    1.4186    1.1737 H         1 RES1    0.0000
     22 H7        -0.2224   -0.8153    1.7884 H         1 RES1    0.0000
     23 H8         0.9820   -0.6975    2.9621 H         1 RES1    0.0000
     24 H9        -0.3041    1.0416    3.9681 H         1 RES1    0.0000
@<TRIPOS>BOND
     1    1    2 1
     2    2    3 2
     3    3    4 1
     4    4    5 2
     5    5    1 1
     6    6    3 1
     7    7    6 2
     8    8    6 2
     9    9    1 1
    10   10    9 1
    11   11   10 2
    12   12   10 1
    13   13   12 1
    14   14   13 1
    15   15   14 1
    16   16    5 1
    17   17    9 1
    18   18    9 1
    19   19   12 1
    20   20   13 1
    21   21   13 1
    22   22   14 1
    23   23   14 1
    24   24   15 1
@<TRIPOS>SUBSTRUCTURE
     1 RES1 1

@<TRIPOS>CRYSIN
  20.5950    4.7130   19.9140  90.0000 110.6900  90.0000  15 1

