# MOL2 file generated by ConQuest
# Please check atom types

@<TRIPOS>MOLECULE
VACWIH
    55    58     1
SMALL
NO_CHARGES
****
Generated from CSD

@<TRIPOS>ATOM
      1 O1         3.1853    8.8889    5.8019 O.3       1 RES1    0.0000
      2 O2         5.9066    8.7964    4.0219 O.3       1 RES1    0.0000
      3 O3         7.7419    7.5637    3.9792 O.2       1 RES1    0.0000
      4 O4         7.3793    2.2832    8.4924 O.2       1 RES1    0.0000
      5 O5         9.2181    3.3859    8.3374 O.2       1 RES1    0.0000
      6 N1         8.0023    3.3029    8.2608 N.pl3     1 RES1    0.0000
      7 C1         5.1427    7.8813    6.5576 C.ar      1 RES1    0.0000
      8 C2         3.7919    7.7553    6.2607 C.ar      1 RES1    0.0000
      9 C3         3.1286    6.5441    6.4272 C.ar      1 RES1    0.0000
     10 H1         2.2238    6.4784    6.2205 H         1 RES1    0.0000
     11 C4         3.7928    5.4614    6.8904 C.ar      1 RES1    0.0000
     12 H2         3.3296    4.6655    7.0244 H         1 RES1    0.0000
     13 C5         5.9160    4.3909    7.6139 C.ar      1 RES1    0.0000
     14 H3         5.4804    3.5802    7.7517 H         1 RES1    0.0000
     15 C6         7.2444    4.4833    7.8359 C.ar      1 RES1    0.0000
     16 C7         7.9310    5.6986    7.6885 C.ar      1 RES1    0.0000
     17 H4         8.8426    5.7482    7.8646 H         1 RES1    0.0000
     18 C8         7.2556    6.7906    7.2904 C.ar      1 RES1    0.0000
     19 H5         7.7153    7.5919    7.1871 H         1 RES1    0.0000
     20 C9         5.8533    6.7571    7.0238 C.ar      1 RES1    0.0000
     21 C10        5.1813    5.5150    7.1756 C.ar      1 RES1    0.0000
     22 C11        5.8490    9.1770    6.3641 C.ar      1 RES1    0.0000
     23 C12        6.3259    9.5374    5.1376 C.ar      1 RES1    0.0000
     24 C13        7.0889   10.6924    4.9400 C.ar      1 RES1    0.0000
     25 H6         7.4463   10.8786    4.1017 H         1 RES1    0.0000
     26 C14        7.3046   11.5379    5.9774 C.ar      1 RES1    0.0000
     27 H7         7.8150   12.3043    5.8473 H         1 RES1    0.0000
     28 C15        6.8741   12.1877    8.3470 C.ar      1 RES1    0.0000
     29 H8         7.3252   12.9917    8.2264 H         1 RES1    0.0000
     30 C16        6.3284   11.8997    9.5528 C.ar      1 RES1    0.0000
     31 H9         6.4032   12.5093   10.2514 H         1 RES1    0.0000
     32 C17        5.6556   10.6951    9.7557 C.ar      1 RES1    0.0000
     33 H10        5.3111   10.4928   10.5959 H         1 RES1    0.0000
     34 C18        5.5027    9.8255    8.7489 C.ar      1 RES1    0.0000
     35 H11        5.0292    9.0376    8.8963 H         1 RES1    0.0000
     36 C19        6.0449   10.0760    7.4657 C.ar      1 RES1    0.0000
     37 C20        6.7632   11.2699    7.2560 C.ar      1 RES1    0.0000
     38 C21        6.6558    7.7862    3.5581 C.2       1 RES1    0.0000
     39 C22        5.9023    6.9608    2.5418 C.3       1 RES1    0.0000
     40 C23        5.3695    5.7388    3.2691 C.3       1 RES1    0.0000
     41 H12        6.0922    5.2913    3.7151 H         1 RES1    0.0000
     42 H13        4.9639    5.1412    2.6375 H         1 RES1    0.0000
     43 H14        4.7148    6.0121    3.9160 H         1 RES1    0.0000
     44 C24        4.7491    7.7138    1.9121 C.3       1 RES1    0.0000
     45 H15        4.1399    7.9965    2.5973 H         1 RES1    0.0000
     46 H16        4.2911    7.1390    1.2939 H         1 RES1    0.0000
     47 H17        5.0860    8.4829    1.4451 H         1 RES1    0.0000
     48 C25        6.8517    6.5481    1.4336 C.3       1 RES1    0.0000
     49 H18        7.2341    7.3319    1.0316 H         1 RES1    0.0000
     50 H19        6.3706    6.0496    0.7675 H         1 RES1    0.0000
     51 H20        7.5520    6.0014    1.7972 H         1 RES1    0.0000
     52 C26        1.8715    8.7830    5.2501 C.3       1 RES1    0.0000
     53 H21        1.8672    8.1185    4.5591 H         1 RES1    0.0000
     54 H22        1.6103    9.6299    4.8826 H         1 RES1    0.0000
     55 H23        1.2545    8.5311    5.9411 H         1 RES1    0.0000
@<TRIPOS>BOND
     1    1    8 1
     2    2   23 1
     3    3   38 2
     4    4    6 2
     5    5    6 2
     6    6   15 1
     7    7    8 ar
     8    8    9 ar
     9    9   10 1
    10   11    9 ar
    11   12   11 1
    12   13   14 1
    13   15   13 ar
    14   16   15 ar
    15   17   16 1
    16   18   16 ar
    17   19   18 1
    18   20    7 ar
    19   21   11 ar
    20   22    7 1
    21   23   22 ar
    22   24   23 ar
    23   25   24 1
    24   26   24 ar
    25   27   26 1
    26   28   29 1
    27   30   28 ar
    28   31   30 1
    29   32   30 ar
    30   33   32 1
    31   34   32 ar
    32   35   34 1
    33   36   22 ar
    34   37   26 ar
    35   38    2 1
    36   39   38 1
    37   40   39 1
    38   41   40 1
    39   42   40 1
    40   43   40 1
    41   44   39 1
    42   45   44 1
    43   46   44 1
    44   47   44 1
    45   48   39 1
    46   49   48 1
    47   50   48 1
    48   51   48 1
    49   52    1 1
    50   53   52 1
    51   54   52 1
    52   55   52 1
    53   13   21 ar
    54   18   20 ar
    55   20   21 ar
    56   28   37 ar
    57   34   36 ar
    58   36   37 ar
@<TRIPOS>SUBSTRUCTURE
     1 RES1 1

@<TRIPOS>CRYSIN
   8.5926   13.3990   19.1400  90.0000  90.0000  90.0000  19 1

