# MOL2 file generated by ConQuest
# Please check atom types

@<TRIPOS>MOLECULE
VACZOP
    35    38     1
SMALL
NO_CHARGES
****
Generated from CSD

@<TRIPOS>ATOM
      1 C1        -0.4088   -2.3164   15.6563 C.3       1 RES1    0.0000
      2 H1        -0.0616   -2.3605   14.7617 H         1 RES1    0.0000
      3 H2        -0.8828   -1.4908   15.7751 H         1 RES1    0.0000
      4 H3        -1.0064   -3.0529   15.8034 H         1 RES1    0.0000
      5 C2         0.7318   -2.3888   16.6425 C.3       1 RES1    0.0000
      6 H4         1.2626   -3.1945   16.4679 H         1 RES1    0.0000
      7 O1         1.5867   -1.1865   16.4660 O.3       1 RES1    0.0000
      8 N1         1.7977   -0.5487   17.6806 N.2       1 RES1    0.0000
      9 C3         1.0953   -1.1488   18.5745 C.2       1 RES1    0.0000
     10 C4         0.3404   -2.3489   18.1178 C.3       1 RES1    0.0000
     11 H5        -0.6240   -2.2021   18.2118 H         1 RES1    0.0000
     12 C5         0.7844   -3.4998   18.9878 C.3       1 RES1    0.0000
     13 H6         0.2804   -4.2971   18.7609 H         1 RES1    0.0000
     14 H7         1.7251   -3.6823   18.8363 H         1 RES1    0.0000
     15 O2         0.5703   -3.1662   20.3641 O.3       1 RES1    0.0000
     16 C6         1.3868   -2.1139   20.8295 C.3       1 RES1    0.0000
     17 H8         2.3311   -2.3720   20.8748 H         1 RES1    0.0000
     18 C7         1.1795   -0.8435   20.0231 C.3       1 RES1    0.0000
     19 H9         1.8861   -0.1899   20.2055 H         1 RES1    0.0000
     20 O3        -0.0963   -0.3661   20.4767 O.3       1 RES1    0.0000
     21 C8        -0.1715   -0.6211   21.8506 C.3       1 RES1    0.0000
     22 H10       -1.0759   -0.9001   22.1049 H         1 RES1    0.0000
     23 C9         0.8465   -1.7132   22.1747 C.3       1 RES1    0.0000
     24 H11        0.4503   -2.4654   22.6611 H         1 RES1    0.0000
     25 O4         1.8513   -1.0491   22.9201 O.3       1 RES1    0.0000
     26 C10        1.2642    0.1227   23.4892 C.3       1 RES1    0.0000
     27 O5         0.2362    0.4941   22.5970 O.3       1 RES1    0.0000
     28 C11        2.2948    1.2138   23.5090 C.3       1 RES1    0.0000
     29 H12        2.9967    0.9809   24.1222 H         1 RES1    0.0000
     30 H13        1.8855    2.0363   23.7899 H         1 RES1    0.0000
     31 H14        2.6621    1.3240   22.6281 H         1 RES1    0.0000
     32 C12        0.6850   -0.1689   24.8584 C.3       1 RES1    0.0000
     33 H15        1.3915   -0.4238   25.4560 H         1 RES1    0.0000
     34 H16        0.0489   -0.8844   24.7914 H         1 RES1    0.0000
     35 H17        0.2488    0.6169   25.1944 H         1 RES1    0.0000
@<TRIPOS>BOND
     1    1    2 1
     2    3    1 1
     3    4    1 1
     4    5    1 1
     5    6    5 1
     6    7    5 1
     7    8    7 1
     8    9    8 2
     9   10    5 1
    10   11   10 1
    11   12   10 1
    12   13   12 1
    13   14   12 1
    14   15   12 1
    15   16   15 1
    16   17   16 1
    17   18    9 1
    18   19   18 1
    19   20   18 1
    20   21   20 1
    21   22   21 1
    22   23   16 1
    23   24   23 1
    24   25   23 1
    25   26   25 1
    26   27   21 1
    27   28   26 1
    28   29   28 1
    29   30   28 1
    30   31   28 1
    31   32   26 1
    32   33   32 1
    33   34   32 1
    34   35   32 1
    35    9   10 1
    36   16   18 1
    37   21   23 1
    38   26   27 1
@<TRIPOS>SUBSTRUCTURE
     1 RES1 1

@<TRIPOS>CRYSIN
   5.2610   10.4910   23.5660  90.0000  90.0000  90.0000  19 1

