# MOL2 file generated by ConQuest
# Please check atom types

@<TRIPOS>MOLECULE
VADGUF
    29    31     1
SMALL
USER_CHARGES
****
Generated from CSD

@<TRIPOS>ATOM
      1 C1         0.3561    3.5866    2.1041 C.ar      1 RES1    0.0000
      2 N1         1.1155    4.1805    3.0186 N.pl3     1 RES1    1.0000
      3 O1         2.0255    3.5326    3.6839 O.2       1 RES1   -1.0000
      4 C2        -0.6400    4.3235    1.4361 C.ar      1 RES1    0.0000
      5 C3        -0.7880    5.6878    1.7847 C.ar      1 RES1    0.0000
      6 N2         0.0378    6.2674    2.7150 N.ar      1 RES1    0.0000
      7 C4         0.9351    5.5405    3.2719 C.ar      1 RES1    0.0000
      8 H1         1.5036    5.9470    3.8849 H         1 RES1    0.0000
      9 C5        -1.7695    6.4625    1.1592 C.ar      1 RES1    0.0000
     10 H2        -1.8653    7.3603    1.3808 H         1 RES1    0.0000
     11 C6         0.0338    1.1039    2.6594 C.ar      1 RES1    0.0000
     12 C7        -1.4907    3.7755    0.4565 C.ar      1 RES1    0.0000
     13 H3        -1.4024    2.8838    0.2075 H         1 RES1    0.0000
     14 C8         0.2852   -0.2402    2.4000 C.ar      1 RES1    0.0000
     15 H4         0.8394   -0.4821    1.6925 H         1 RES1    0.0000
     16 C9         0.6718    2.1296    1.8192 C.2       1 RES1    0.0000
     17 C10       -2.5833    5.9006    0.2270 C.ar      1 RES1    0.0000
     18 H5        -3.2401    6.4170   -0.1814 H         1 RES1    0.0000
     19 C11       -0.8032    1.4464    3.7067 C.ar      1 RES1    0.0000
     20 H6        -0.9723    2.3423    3.8906 H         1 RES1    0.0000
     21 C12       -2.4437    4.5559   -0.1240 C.ar      1 RES1    0.0000
     22 H7        -3.0101    4.1881   -0.7641 H         1 RES1    0.0000
     23 O2         1.4199    1.8777    0.9033 O.2       1 RES1    0.0000
     24 C13       -1.1219   -0.8571    4.2188 C.ar      1 RES1    0.0000
     25 H8        -1.5141   -1.5168    4.7442 H         1 RES1    0.0000
     26 C14       -1.3861    0.4622    4.4788 C.ar      1 RES1    0.0000
     27 H9        -1.9581    0.6945    5.1750 H         1 RES1    0.0000
     28 C15       -0.2885   -1.2137    3.1949 C.ar      1 RES1    0.0000
     29 H10       -0.1079   -2.1111    3.0336 H         1 RES1    0.0000
@<TRIPOS>BOND
     1    1    2 ar
     2    2    3 1
     3    4    1 ar
     4    5    4 ar
     5    6    5 ar
     6    7    2 ar
     7    8    7 1
     8    9    5 ar
     9   10    9 1
    10   11   14 ar
    11   12    4 ar
    12   13   12 1
    13   14   15 1
    14   16    1 1
    15   17    9 ar
    16   18   17 1
    17   19   11 ar
    18   20   19 1
    19   21   12 ar
    20   22   21 1
    21   23   16 2
    22   24   25 1
    23   26   19 ar
    24   27   26 1
    25   28   14 ar
    26   29   28 1
    27    6    7 ar
    28   11   16 1
    29   17   21 ar
    30   24   26 ar
    31   24   28 ar
@<TRIPOS>SUBSTRUCTURE
     1 RES1 1

@<TRIPOS>CRYSIN
  19.7366   11.0069   14.8933  90.0000 130.4330  90.0000  15 1

