# MOL2 file generated by ConQuest
# Please check atom types

@<TRIPOS>MOLECULE
VADGAK
    47    49     1
SMALL
NO_CHARGES
****
Generated from CSD

@<TRIPOS>ATOM
      1 N1        -1.1683    9.0812    7.2213 N.pl3     1 RES1    0.0000
      2 O1         5.9404    9.0873    2.5344 O.3       1 RES1    0.0000
      3 O2        -2.0142    8.2328    7.0123 O.2       1 RES1    0.0000
      4 O3        -1.2846    9.9445    8.0686 O.2       1 RES1    0.0000
      5 O4         5.8180   12.7109    2.0866 O.2       1 RES1    0.0000
      6 C1         2.3385    9.0668    4.8404 C.ar      1 RES1    0.0000
      7 C2         0.0546    9.0750    6.3977 C.ar      1 RES1    0.0000
      8 C3         3.5425    9.1086    3.9911 C.2       1 RES1    0.0000
      9 H1         4.3287    9.4270    4.3735 H         1 RES1    0.0000
     10 C4         4.6038    9.6206    0.5904 C.3       1 RES1    0.0000
     11 H2         3.7921    9.3508    0.1124 H         1 RES1    0.0000
     12 C5         1.2391    8.2783    4.5145 C.ar      1 RES1    0.0000
     13 H3         1.2764    7.7404    3.7567 H         1 RES1    0.0000
     14 C6         4.7699    8.7191    1.8197 C.3       1 RES1    0.0000
     15 H4         4.8917    7.8005    1.5010 H         1 RES1    0.0000
     16 C7         3.5887    8.7288    2.7325 C.2       1 RES1    0.0000
     17 H5         2.7870    8.4303    2.3672 H         1 RES1    0.0000
     18 C8         7.0695    9.7538    0.4642 C.3       1 RES1    0.0000
     19 H6         7.8474    9.5373   -0.0907 H         1 RES1    0.0000
     20 C9         5.8064    9.3795   -0.3199 C.3       1 RES1    0.0000
     21 H7         5.7359    9.9244   -1.1193 H         1 RES1    0.0000
     22 H8         5.8418    8.4473   -0.5866 H         1 RES1    0.0000
     23 C10        1.1176    9.8523    6.7722 C.ar      1 RES1    0.0000
     24 H9         1.0690   10.3867    7.5322 H         1 RES1    0.0000
     25 C11        4.4699   11.1026    0.9874 C.3       1 RES1    0.0000
     26 H10        3.8909   11.1518    1.7768 H         1 RES1    0.0000
     27 C12        7.1790    8.9544    1.7776 C.3       1 RES1    0.0000
     28 C13        2.2652    9.8284    5.9997 C.ar      1 RES1    0.0000
     29 H11        3.0027   10.3325    6.2617 H         1 RES1    0.0000
     30 C14        0.0922    8.2739    5.2891 C.ar      1 RES1    0.0000
     31 H12       -0.6342    7.7394    5.0621 H         1 RES1    0.0000
     32 C15        7.0341   11.2736    0.6659 C.3       1 RES1    0.0000
     33 H13        7.8004   11.5379    1.1996 H         1 RES1    0.0000
     34 H14        7.1107   11.7073   -0.1984 H         1 RES1    0.0000
     35 C16        5.7890   11.7501    1.3378 C.2       1 RES1    0.0000
     36 C17        7.4796    7.4787    1.4868 C.3       1 RES1    0.0000
     37 H15        7.3847    6.9672    2.2935 H         1 RES1    0.0000
     38 H16        8.3780    7.3944    1.1581 H         1 RES1    0.0000
     39 H17        6.8652    7.1518    0.8256 H         1 RES1    0.0000
     40 C18        8.2326    9.5002    2.7280 C.3       1 RES1    0.0000
     41 H18        7.9860   10.3847    3.0057 H         1 RES1    0.0000
     42 H19        9.0825    9.5303    2.2812 H         1 RES1    0.0000
     43 H20        8.2966    8.9297    3.4978 H         1 RES1    0.0000
     44 C19        3.8097   11.9159   -0.1322 C.3       1 RES1    0.0000
     45 H21        3.8014   12.8455    0.1096 H         1 RES1    0.0000
     46 H22        2.9097   11.6111   -0.2617 H         1 RES1    0.0000
     47 H23        4.3055   11.8016   -0.9465 H         1 RES1    0.0000
@<TRIPOS>BOND
     1    1    3 2
     2    2   14 1
     3    4    1 2
     4    5   35 2
     5    6    8 1
     6    7    1 1
     7    8    9 1
     8   10   11 1
     9   12    6 ar
    10   13   12 1
    11   14   10 1
    12   15   14 1
    13   16    8 2
    14   17   16 1
    15   18   19 1
    16   20   10 1
    17   21   20 1
    18   22   20 1
    19   23    7 ar
    20   24   23 1
    21   25   10 1
    22   26   25 1
    23   27    2 1
    24   28    6 ar
    25   29   28 1
    26   30    7 ar
    27   31   30 1
    28   32   18 1
    29   33   32 1
    30   34   32 1
    31   35   25 1
    32   36   27 1
    33   37   36 1
    34   38   36 1
    35   39   36 1
    36   40   27 1
    37   41   40 1
    38   42   40 1
    39   43   40 1
    40   44   25 1
    41   45   44 1
    42   46   44 1
    43   47   44 1
    44   12   30 ar
    45   14   16 1
    46   18   20 1
    47   18   27 1
    48   23   28 ar
    49   32   35 1
@<TRIPOS>SUBSTRUCTURE
     1 RES1 1

@<TRIPOS>CRYSIN
  18.1890   10.0277    9.4674  90.0000  93.8580  90.0000  14 1

