# MOL2 file generated by ConQuest
# Please check atom types

@<TRIPOS>MOLECULE
VADHAM
    60    32     2
SMALL
NO_CHARGES
****
Generated from CSD

@<TRIPOS>ATOM
      1 O1         3.3766   10.7470    4.2586 O.2       1 RES1    0.0000
      2 O2         5.5882    9.6949    3.1538 O.3       1 RES1    0.0000
      3 O3         5.3371   11.5823    1.8739 O.2       1 RES1    0.0000
      4 N1         7.1144   11.7275    5.6591 N.2       1 RES1    0.0000
      5 N2         5.6483   10.5840    4.2357 N.am      1 RES1    0.0000
      6 C1         5.9759   12.3012    6.2474 C.ar      1 RES1    0.0000
      7 C2         6.1869   13.1804    7.3024 C.ar      1 RES1    0.0000
      8 H1         7.0709   13.3668    7.5952 H         1 RES1    0.0000
      9 C3         5.1046   13.7859    7.9300 C.ar      1 RES1    0.0000
     10 H2         5.2490   14.3875    8.6522 H         1 RES1    0.0000
     11 C4         3.8106   13.5121    7.5014 C.ar      1 RES1    0.0000
     12 H3         3.0710   13.9267    7.9309 H         1 RES1    0.0000
     13 C5         3.5996   12.6331    6.4463 C.ar      1 RES1    0.0000
     14 H4         2.7149   12.4452    6.1536 H         1 RES1    0.0000
     15 C6         4.6819   12.0275    5.8187 C.ar      1 RES1    0.0000
     16 C7         4.4482   11.0771    4.7168 C.2       1 RES1    0.0000
     17 C8         6.9231   10.9104    4.6824 C.2       1 RES1    0.0000
     18 H5         7.6757   10.5194    4.2539 H         1 RES1    0.0000
     19 C9         5.3864   10.3798    1.9227 C.2       1 RES1    0.0000
     20 C10        5.2955    9.4032    0.8360 C.ar      1 RES1    0.0000
     21 C11        5.0395    9.9337   -0.4228 C.ar      1 RES1    0.0000
     22 H6         4.9902   10.8755   -0.5395 H         1 RES1    0.0000
     23 C12        4.8559    9.0874   -1.5104 C.ar      1 RES1    0.0000
     24 H7         4.6809    9.4509   -2.3704 H         1 RES1    0.0000
     25 C13        4.9277    7.7105   -1.3392 C.ar      1 RES1    0.0000
     26 H8         4.8019    7.1322   -2.0825 H         1 RES1    0.0000
     27 C14        5.1837    7.1800   -0.0804 C.ar      1 RES1    0.0000
     28 H9         5.2322    6.2382    0.0363 H         1 RES1    0.0000
     29 C15        5.3672    8.0245    1.0073 C.ar      1 RES1    0.0000
     30 H10        5.5422    7.6628    1.8672 H         1 RES1    0.0000
     31 O4         6.8613   10.7342    4.2558 Du        2 SUP2    0.0000
     32 O5         4.6524    9.6896    3.1605 Du        2 SUP2    0.0000
     33 O6         4.9116   11.5713    1.9351 Du        2 SUP2    0.0000
     34 N3         3.1342   11.7059    5.6715 Du        2 SUP2    0.0000
     35 N4         4.5992   10.5598    4.2347 Du        2 SUP2    0.0000
     36 C16        4.2688   12.2884    6.2493 Du        2 SUP2    0.0000
     37 C17        4.0614   13.1744    7.2996 Du        2 SUP2    0.0000
     38 H11        3.1786   13.3557    7.5999 Du        2 SUP2    0.0000
     39 C18        5.1445   13.7941    7.9108 Du        2 SUP2    0.0000
     40 H12        5.0027   14.4003    8.6292 Du        2 SUP2    0.0000
     41 C19        6.4364   13.5279    7.4718 Du        2 SUP2    0.0000
     42 H13        7.1767   13.9524    7.8898 Du        2 SUP2    0.0000
     43 C20        6.6439   12.6420    6.4214 Du        2 SUP2    0.0000
     44 H14        7.5267   12.4598    6.1211 Du        2 SUP2    0.0000
     45 C21        5.5601   12.0222    5.8102 Du        2 SUP2    0.0000
     46 C22        5.8081   11.0811    4.7216 Du        2 SUP2    0.0000
     47 C23        3.3374   10.8865    4.7073 Du        2 SUP2    0.0000
     48 H15        2.5834   10.4845    4.2931 Du        2 SUP2    0.0000
     49 C24        4.8669   10.3890    1.9610 Du        2 SUP2    0.0000
     50 C25        4.9813    9.4601    0.8140 Du        2 SUP2    0.0000
     51 C26        5.2261    9.9723   -0.4544 Du        2 SUP2    0.0000
     52 H16        5.2558   10.9122   -0.5892 Du        2 SUP2    0.0000
     53 C27        5.4268    9.1094   -1.5257 Du        2 SUP2    0.0000
     54 H17        5.5942    9.4601   -2.3933 Du        2 SUP2    0.0000
     55 C28        5.3832    7.7344   -1.3287 Du        2 SUP2    0.0000
     56 H18        5.5209    7.1451   -2.0614 Du        2 SUP2    0.0000
     57 C29        5.1384    7.2222   -0.0603 Du        2 SUP2    0.0000
     58 H19        5.1087    6.2822    0.0746 Du        2 SUP2    0.0000
     59 C30        4.9377    8.0832    1.0111 Du        2 SUP2    0.0000
     60 H20        4.7703    7.7344    1.8777 Du        2 SUP2    0.0000
@<TRIPOS>BOND
     1    1   16 2
     2    2    5 1
     3    3   19 2
     4    4    6 1
     5    5   16 1
     6    6    7 ar
     7    7    8 1
     8    9    7 ar
     9   10    9 1
    10   11    9 ar
    11   12   11 1
    12   13   11 ar
    13   14   13 1
    14   15    6 ar
    15   16   15 1
    16   17    4 2
    17   18   17 1
    18   19    2 1
    19   20   19 1
    20   21   20 ar
    21   22   21 1
    22   23   21 ar
    23   24   23 1
    24   25   23 ar
    25   26   25 1
    26   27   25 ar
    27   28   27 1
    28   29   20 ar
    29   30   29 1
    30    5   17 1
    31   13   15 ar
    32   27   29 ar
@<TRIPOS>SUBSTRUCTURE
     1 RES1 1
     2 SUP2 31

@<TRIPOS>CRYSIN
   6.8611   18.3584    9.5657  90.0000  90.0894  90.0000 231 1

