# MOL2 file generated by ConQuest
# Please check atom types

@<TRIPOS>MOLECULE
VADHEQ
    41    45     1
SMALL
NO_CHARGES
****
Generated from CSD

@<TRIPOS>ATOM
      1 O1         8.0004    6.5046   10.7841 O.2       1 RES1    0.0000
      2 N1         7.9111    7.4107    8.6039 N.am      1 RES1    0.0000
      3 C1         9.2755    8.8529    7.1620 C.ar      1 RES1    0.0000
      4 O2         5.1641    6.4241   14.2432 O.2       1 RES1    0.0000
      5 C2         5.0453    8.4100   10.6581 C.ar      1 RES1    0.0000
      6 N2         8.1921    9.0566    6.3841 N.ar      1 RES1    0.0000
      7 C3         5.0760    7.7034    9.3378 C.3       1 RES1    0.0000
      8 H1         4.1718    7.3860    9.1287 H         1 RES1    0.0000
      9 N3         5.0404    7.6198   14.3005 N.pl3     1 RES1    0.0000
     10 C4         5.0781    7.7034   11.8535 C.ar      1 RES1    0.0000
     11 H2         5.1518    6.7759   11.8495 H         1 RES1    0.0000
     12 C5         6.6400    7.2595    7.8754 C.3       1 RES1    0.0000
     13 H3         6.6414    6.7909    7.0135 H         1 RES1    0.0000
     14 C6        10.2337    7.7602    9.1105 C.ar      1 RES1    0.0000
     15 H4        10.1481    7.2091    9.8546 H         1 RES1    0.0000
     16 C7         6.0863    6.5196    9.1341 C.3       1 RES1    0.0000
     17 H5         5.7479    5.6038    9.0463 H         1 RES1    0.0000
     18 C8         5.0004    8.3897   13.0429 C.ar      1 RES1    0.0000
     19 C9        11.6272    9.1489    7.7325 C.ar      1 RES1    0.0000
     20 H6        12.4597    9.5199    7.5523 H         1 RES1    0.0000
     21 C10        9.1467    7.9961    8.3082 C.ar      1 RES1    0.0000
     22 C11       10.5503    9.4191    6.8882 C.ar      1 RES1    0.0000
     23 C12       10.6231   10.2555    5.7491 C.ar      1 RES1    0.0000
     24 H7        11.4290   10.6640    5.5262 H         1 RES1    0.0000
     25 C13        7.4508    6.7544    9.7370 C.2       1 RES1    0.0000
     26 C14        9.5340   10.4635    4.9867 C.ar      1 RES1    0.0000
     27 H8         9.5774   11.0157    4.2393 H         1 RES1    0.0000
     28 C15        5.6540    8.4122    8.0887 C.3       1 RES1    0.0000
     29 H9         5.0133    8.5119    7.3675 H         1 RES1    0.0000
     30 H10        6.0848    9.2582    8.2871 H         1 RES1    0.0000
     31 C16        8.3412    9.8373    5.3376 C.ar      1 RES1    0.0000
     32 H11        7.6007    9.9799    4.7937 H         1 RES1    0.0000
     33 C17        4.9254    9.7611   13.1275 C.ar      1 RES1    0.0000
     34 H12        4.8918   10.1976   13.9491 H         1 RES1    0.0000
     35 C18       11.4625    8.3436    8.8163 C.ar      1 RES1    0.0000
     36 H13       12.1891    8.1784    9.3736 H         1 RES1    0.0000
     37 C19        4.9021   10.4560   11.9364 C.ar      1 RES1    0.0000
     38 H14        4.8445   11.3835   11.9519 H         1 RES1    0.0000
     39 C20        4.9624    9.8008   10.7229 C.ar      1 RES1    0.0000
     40 H15        4.9491   10.2952    9.9347 H         1 RES1    0.0000
     41 O3         4.9555    8.2170   15.3431 O.2       1 RES1    0.0000
@<TRIPOS>BOND
     1    1   25 2
     2    2   12 1
     3    3    6 ar
     4    4    9 2
     5    5    7 1
     6    6   31 ar
     7    7    8 1
     8    9   18 1
     9   10    5 ar
    10   11   10 1
    11   12   13 1
    12   14   15 1
    13   16    7 1
    14   17   16 1
    15   18   10 ar
    16   19   20 1
    17   21    2 1
    18   22    3 ar
    19   23   22 ar
    20   24   23 1
    21   25    2 1
    22   26   23 ar
    23   27   26 1
    24   28    7 1
    25   29   28 1
    26   30   28 1
    27   31   26 ar
    28   32   31 1
    29   33   18 ar
    30   34   33 1
    31   35   14 ar
    32   36   35 1
    33   37   33 ar
    34   38   37 1
    35   39    5 ar
    36   40   39 1
    37   41    9 2
    38    3   21 ar
    39   12   16 1
    40   12   28 1
    41   14   21 ar
    42   16   25 1
    43   19   22 ar
    44   19   35 ar
    45   37   39 ar
@<TRIPOS>SUBSTRUCTURE
     1 RES1 1

