# MOL2 file generated by ConQuest
# Please check atom types

@<TRIPOS>MOLECULE
VADJOA
    24    25     1
SMALL
NO_CHARGES
****
Generated from CSD

@<TRIPOS>ATOM
      1 O1         3.6809    0.3993    7.4276 O.3       1 RES1    0.0000
      2 H1         3.9928   -0.2337    7.8449 H         1 RES1    0.0000
      3 N1         2.7072    1.0277    8.1979 N.2       1 RES1    0.0000
      4 N2         3.5108    3.8135    6.4785 N.ar      1 RES1    0.0000
      5 N3         0.4985    3.6831    7.7942 N.ar      1 RES1    0.0000
      6 C1         2.3022    2.1355    7.6947 C.2       1 RES1    0.0000
      7 C2         2.7709    2.7007    6.3990 C.ar      1 RES1    0.0000
      8 C3         2.4333    2.1195    5.1999 C.ar      1 RES1    0.0000
      9 H2         1.9256    1.3406    5.1800 H         1 RES1    0.0000
     10 C4         2.8556    2.7051    4.0303 C.ar      1 RES1    0.0000
     11 H3         2.6271    2.3375    3.2076 H         1 RES1    0.0000
     12 C5         3.6171    3.8378    4.0964 C.ar      1 RES1    0.0000
     13 H4         3.9207    4.2511    3.3205 H         1 RES1    0.0000
     14 C6         3.9253    4.3504    5.3241 C.ar      1 RES1    0.0000
     15 H5         4.4522    5.1157    5.3604 H         1 RES1    0.0000
     16 C7         1.3039    2.8773    8.4911 C.ar      1 RES1    0.0000
     17 C8        -0.4206    4.3669    8.4974 C.ar      1 RES1    0.0000
     18 H6        -0.9956    4.9332    8.0342 H         1 RES1    0.0000
     19 C9        -0.5581    4.2766    9.8564 C.ar      1 RES1    0.0000
     20 H7        -1.2086    4.7717   10.2995 H         1 RES1    0.0000
     21 C10        0.2674    3.4563   10.5417 C.ar      1 RES1    0.0000
     22 H8         0.1881    3.3745   11.4639 H         1 RES1    0.0000
     23 C11        1.2237    2.7434    9.8638 C.ar      1 RES1    0.0000
     24 H9         1.8075    2.1803   10.3196 H         1 RES1    0.0000
@<TRIPOS>BOND
     1    1    2 1
     2    3    1 1
     3    4    7 ar
     4    5   16 ar
     5    6    3 2
     6    7    6 1
     7    8    7 ar
     8    9    8 1
     9   10    8 ar
    10   11   10 1
    11   12   10 ar
    12   13   12 1
    13   14    4 ar
    14   15   14 1
    15   16    6 1
    16   17    5 ar
    17   18   17 1
    18   19   17 ar
    19   20   19 1
    20   21   19 ar
    21   22   21 1
    22   23   16 ar
    23   24   23 1
    24   12   14 ar
    25   21   23 ar
@<TRIPOS>SUBSTRUCTURE
     1 RES1 1

@<TRIPOS>CRYSIN
   8.8730   10.6250   11.1930  90.0000 109.1200  90.0000 231 1

