# MOL2 file generated by ConQuest
# Please check atom types

@<TRIPOS>MOLECULE
VADTAV
    33    36     1
SMALL
NO_CHARGES
****
Generated from CSD

@<TRIPOS>ATOM
      1 O1         2.9416    3.8640   -2.2231 O.3       1 RES1    0.0000
      2 O2         1.2717    0.5900    0.7715 O.2       1 RES1    0.0000
      3 N1         0.5744    1.3597   -1.6559 N.3       1 RES1    0.0000
      4 N2         0.2757    1.7602   -2.9032 N.2       1 RES1    0.0000
      5 N3         2.6799    4.3548   -3.5591 N.2       1 RES1    0.0000
      6 C1         1.6267    1.9781   -1.0027 C.2       1 RES1    0.0000
      7 C2         1.9254    1.5315    0.3306 C.2       1 RES1    0.0000
      8 C3         2.9957    2.1460    1.1559 C.ar      1 RES1    0.0000
      9 C4         1.1008    4.0112   -5.3683 C.ar      1 RES1    0.0000
     10 C5         1.2291    2.7321   -3.0806 C.2       1 RES1    0.0000
     11 C6         4.1634    2.1480    3.2876 C.ar      1 RES1    0.0000
     12 H1         4.3179    1.7474    4.2796 H         1 RES1    0.0000
     13 C7         4.9424    3.2259    2.8199 C.ar      1 RES1    0.0000
     14 H2         5.7025    3.6529    3.4570 H         1 RES1    0.0000
     15 C8         3.1674    1.6198    2.4247 C.ar      1 RES1    0.0000
     16 H3         2.5582    0.7932    2.7581 H         1 RES1    0.0000
     17 C9         3.7589    3.2288    0.6935 C.ar      1 RES1    0.0000
     18 H4         3.6040    3.6372   -0.2930 H         1 RES1    0.0000
     19 C10        1.6517    3.6961   -4.0672 C.2       1 RES1    0.0000
     20 C11        2.0275    2.8705   -1.9866 C.2       1 RES1    0.0000
     21 C12        4.7265    3.7413    1.5376 C.ar      1 RES1    0.0000
     22 H5         5.3327    4.5708    1.2043 H         1 RES1    0.0000
     23 C13        1.5787    5.0734   -6.1237 C.ar      1 RES1    0.0000
     24 H6         2.3698    5.6978   -5.7366 H         1 RES1    0.0000
     25 C14        0.0543    3.2121   -5.8495 C.ar      1 RES1    0.0000
     26 H7        -0.3483    2.3993   -5.2607 H         1 RES1    0.0000
     27 C15       -0.0054    4.5374   -7.8978 C.ar      1 RES1    0.0000
     28 H8        -0.4329    4.7554   -8.8656 H         1 RES1    0.0000
     29 C16       -0.4639    3.4762   -7.1129 C.ar      1 RES1    0.0000
     30 H9        -1.2517    2.8518   -7.5107 H         1 RES1    0.0000
     31 C17        1.0158    5.3189   -7.3844 C.ar      1 RES1    0.0000
     32 H10        1.4143    6.1327   -7.9731 H         1 RES1    0.0000
     33 H11        0.2189    0.6960   -1.2124 H         1 RES1    0.0000
@<TRIPOS>BOND
     1    1    5 1
     2    2    7 2
     3    3    4 1
     4    4   10 2
     5    5   19 2
     6    6    3 1
     7    7    6 1
     8    8    7 1
     9    9   19 1
    10   10   19 1
    11   11   12 1
    12   13   11 ar
    13   14   13 1
    14   15    8 ar
    15   16   15 1
    16   17    8 ar
    17   18   17 1
    18   20    1 1
    19   21   13 ar
    20   22   21 1
    21   23    9 ar
    22   24   23 1
    23   25    9 ar
    24   26   25 1
    25   27   28 1
    26   29   25 ar
    27   30   29 1
    28   31   23 ar
    29   32   31 1
    30   33    3 1
    31    6   20 2
    32   10   20 1
    33   11   15 ar
    34   17   21 ar
    35   27   29 ar
    36   27   31 ar
@<TRIPOS>SUBSTRUCTURE
     1 RES1 1

@<TRIPOS>CRYSIN
   5.1190    9.8170   26.9490  90.0000  94.0500  90.0000 231 1

