# MOL2 file generated by ConQuest
# Please check atom types

@<TRIPOS>MOLECULE
VADWAY
    65    67     1
SMALL
NO_CHARGES
****
Generated from CSD

@<TRIPOS>ATOM
      1 O1         4.2747    6.7274   12.3971 O.3       1 RES1    0.0000
      2 O2         3.5550    7.3892   10.4482 O.2       1 RES1    0.0000
      3 O3         6.6228    3.7884   10.8370 O.2       1 RES1    0.0000
      4 O4         6.6924    4.2574   13.4757 O.3       1 RES1    0.0000
      5 O5        10.7014   -0.4846   16.9848 O.2       1 RES1    0.0000
      6 O6         8.6970   -0.6149   17.7193 O.2       1 RES1    0.0000
      7 O7         3.7258    5.6539    8.4614 O.3       1 RES1    0.0000
      8 O8         8.7980    4.7785   12.8960 O.2       1 RES1    0.0000
      9 N1         9.5660   -0.1459   17.0192 N.pl3     1 RES1    0.0000
     10 C1         3.8504    4.5544   13.4206 C.3       1 RES1    0.0000
     11 C2         2.5405    5.0182   14.1035 C.3       1 RES1    0.0000
     12 C3         1.6082    3.8405   14.3530 C.3       1 RES1    0.0000
     13 C4         0.3180    4.2626   15.0255 C.3       1 RES1    0.0000
     14 C5        -0.5332    3.1996   15.2560 C.3       1 RES1    0.0000
     15 C6         5.2817    3.9656    8.3565 C.3       1 RES1    0.0000
     16 C7         4.3683    3.7676    7.1799 C.3       1 RES1    0.0000
     17 C8         2.1169    4.8775    6.8376 C.3       1 RES1    0.0000
     18 C9         1.3062    6.1802    6.7860 C.3       1 RES1    0.0000
     19 C10       -0.1725    5.9874    6.5830 C.3       1 RES1    0.0000
     20 C11       -0.9754    7.2641    6.5572 C.3       1 RES1    0.0000
     21 C12        4.2157    6.5815   11.0365 C.2       1 RES1    0.0000
     22 C13        8.0423    4.0750   13.5066 C.2       1 RES1    0.0000
     23 C14        4.9502    5.4455   10.4465 C.2       1 RES1    0.0000
     24 C15        5.9610    4.7472   11.2068 C.2       1 RES1    0.0000
     25 C16        6.1470    5.2892   12.6242 C.3       1 RES1    0.0000
     26 C17        4.8217    5.6904   13.2383 C.3       1 RES1    0.0000
     27 C18        4.6697    5.0651    9.1598 C.2       1 RES1    0.0000
     28 C19        3.6207    5.0755    7.1077 C.3       1 RES1    0.0000
     29 C20        8.3904    2.9703   14.4063 C.ar      1 RES1    0.0000
     30 C21        7.4385    2.3450   15.2165 C.ar      1 RES1    0.0000
     31 C22        7.8363    1.3288   16.0680 C.ar      1 RES1    0.0000
     32 C23        9.1403    0.9432   16.1006 C.ar      1 RES1    0.0000
     33 C24       10.1015    1.5320   15.3076 C.ar      1 RES1    0.0000
     34 C25        9.7148    2.5638   14.4613 C.ar      1 RES1    0.0000
     35 H1         6.7234    6.0760   12.5571 H         1 RES1    0.0000
     36 H2         4.9794    6.0395   14.1225 H         1 RES1    0.0000
     37 H3         4.2585    3.9239   13.9676 H         1 RES1    0.0000
     38 H4         3.6460    4.2261   12.5743 H         1 RES1    0.0000
     39 H5         2.0952    5.6800   13.5376 H         1 RES1    0.0000
     40 H6         2.7494    5.4611   14.9309 H         1 RES1    0.0000
     41 H7         2.0536    3.2517   14.9137 H         1 RES1    0.0000
     42 H8         1.3994    3.4705   13.5204 H         1 RES1    0.0000
     43 H9        -0.1094    4.9296   14.4665 H         1 RES1    0.0000
     44 H10        0.5309    4.7055   15.8598 H         1 RES1    0.0000
     45 H11       -1.3170    3.5852   15.6706 H         1 RES1    0.0000
     46 H12       -0.7631    2.8452   14.4321 H         1 RES1    0.0000
     47 H13       -0.1088    2.6211   15.8254 H         1 RES1    0.0000
     48 H14        5.3353    3.2100    8.8760 H         1 RES1    0.0000
     49 H15        6.1452    4.2522    8.0675 H         1 RES1    0.0000
     50 H16        3.7792    3.0849    7.3279 H         1 RES1    0.0000
     51 H17        4.8702    3.6581    6.3818 H         1 RES1    0.0000
     52 H18        3.9788    5.6383    6.3990 H         1 RES1    0.0000
     53 H19        1.7562    4.3720    7.5343 H         1 RES1    0.0000
     54 H20        2.0236    4.4710    6.0033 H         1 RES1    0.0000
     55 H21        1.6324    6.7430    6.0721 H         1 RES1    0.0000
     56 H22        1.4346    6.6805    7.6031 H         1 RES1    0.0000
     57 H23       -0.4945    5.4924    7.2935 H         1 RES1    0.0000
     58 H24       -0.2967    5.5810    5.7625 H         1 RES1    0.0000
     59 H25       -1.8974    7.0974    6.4334 H         1 RES1    0.0000
     60 H26       -0.8721    7.7644    7.3795 H         1 RES1    0.0000
     61 H27       -0.6743    7.8530    5.8485 H         1 RES1    0.0000
     62 H28        6.5313    2.6524   15.1890 H         1 RES1    0.0000
     63 H29        7.1984    0.9328   16.6339 H         1 RES1    0.0000
     64 H30       11.0114    1.2819   15.3438 H         1 RES1    0.0000
     65 H31       10.3578    3.0328   13.9160 H         1 RES1    0.0000
@<TRIPOS>BOND
     1    1   21 1
     2    2   21 2
     3    3   24 2
     4    4   22 1
     5    5    9 2
     6    6    9 2
     7    7   27 1
     8    8   22 2
     9    9   32 1
    10   10   11 1
    11   11   12 1
    12   12   13 1
    13   13   14 1
    14   14   45 1
    15   15   16 1
    16   16   28 1
    17   17   18 1
    18   18   19 1
    19   19   20 1
    20   20   59 1
    21   21   23 1
    22   22   29 1
    23   23   24 1
    24   24   25 1
    25   25    4 1
    26   26    1 1
    27   27   15 1
    28   28    7 1
    29   29   30 ar
    30   30   31 ar
    31   31   32 ar
    32   32   33 ar
    33   33   34 ar
    34   34   29 ar
    35   35   25 1
    36   36   26 1
    37   37   10 1
    38   38   10 1
    39   39   11 1
    40   40   11 1
    41   41   12 1
    42   42   12 1
    43   43   13 1
    44   44   13 1
    45   46   14 1
    46   47   14 1
    47   48   15 1
    48   49   15 1
    49   50   16 1
    50   51   16 1
    51   52   28 1
    52   53   17 1
    53   54   17 1
    54   55   18 1
    55   56   18 1
    56   57   19 1
    57   58   19 1
    58   60   20 1
    59   61   20 1
    60   62   30 1
    61   63   31 1
    62   64   33 1
    63   65   34 1
    64   10   26 1
    65   17   28 1
    66   23   27 2
    67   25   26 1
@<TRIPOS>SUBSTRUCTURE
     1 RES1 1

@<TRIPOS>CRYSIN
  13.9230    5.2110   17.2050  90.0000  91.1500  90.0000   4 1

