# MOL2 file generated by ConQuest
# Please check atom types

@<TRIPOS>MOLECULE
VADZEF
    36    37     1
SMALL
NO_CHARGES
****
Generated from CSD

@<TRIPOS>ATOM
      1 C1         2.4300   -0.9061    2.5351 C.3       1 RES1    0.0000
      2 C2         3.7597   -1.4749    2.1028 C.3       1 RES1    0.0000
      3 C3         3.5502   -2.5692    1.0776 C.3       1 RES1    0.0000
      4 C4         2.7253   -2.0811   -0.0972 C.3       1 RES1    0.0000
      5 C5         1.4018   -1.5023    0.3451 C.3       1 RES1    0.0000
      6 C6         1.5989   -0.3973    1.3803 C.3       1 RES1    0.0000
      7 O1         2.7387    0.2065    3.4482 O.3       1 RES1    0.0000
      8 O2         4.4625   -2.0175    3.2190 O.3       1 RES1    0.0000
      9 C7         1.8222    0.5309    4.3439 C.2       1 RES1    0.0000
     10 O3         0.8081   -0.0741    4.5581 O.2       1 RES1    0.0000
     11 C8         2.2181    1.7308    5.1673 C.ar      1 RES1    0.0000
     12 C9         2.6777    2.9469    4.6690 C.ar      1 RES1    0.0000
     13 C10        3.0384    3.9958    5.4849 C.ar      1 RES1    0.0000
     14 C11        2.9184    3.8072    6.8428 C.ar      1 RES1    0.0000
     15 C12        2.4551    2.6326    7.3909 C.ar      1 RES1    0.0000
     16 C13        2.1075    1.6053    6.5413 C.ar      1 RES1    0.0000
     17 N1         2.7418    3.1875    3.2165 N.pl3     1 RES1    0.0000
     18 O4         1.8814    2.6740    2.5251 O.2       1 RES1    0.0000
     19 O5         3.6359    3.9015    2.8029 O.2       1 RES1    0.0000
     20 N2         3.3101    4.9078    7.7447 N.pl3     1 RES1    0.0000
     21 O6         3.2291    4.7260    8.9468 O.2       1 RES1    0.0000
     22 O7         3.6930    5.9479    7.2302 O.2       1 RES1    0.0000
     23 H1         1.9077   -1.5965    2.9511 H         1 RES1    0.0000
     24 H2         4.2745   -0.7618    1.7191 H         1 RES1    0.0000
     25 H3         4.4052   -2.8637    0.7574 H         1 RES1    0.0000
     26 H4         3.0941   -3.3039    1.4949 H         1 RES1    0.0000
     27 H5         2.5590   -2.8194   -0.6876 H         1 RES1    0.0000
     28 H6         3.2203   -1.4035   -0.5643 H         1 RES1    0.0000
     29 H7         0.9484   -1.1380   -0.4186 H         1 RES1    0.0000
     30 H8         0.8685   -2.2008    0.7312 H         1 RES1    0.0000
     31 H9         0.7430   -0.1119    1.7066 H         1 RES1    0.0000
     32 H10        2.0490    0.3448    0.9692 H         1 RES1    0.0000
     33 H11        4.7494   -1.4062    3.6525 H         1 RES1    0.0000
     34 H12        3.3600    4.8246    5.1212 H         1 RES1    0.0000
     35 H13        2.3749    2.5320    8.3426 H         1 RES1    0.0000
     36 H14        1.7802    0.7817    6.9113 H         1 RES1    0.0000
@<TRIPOS>BOND
     1    1    2 1
     2    2    3 1
     3    3    4 1
     4    4    5 1
     5    5    6 1
     6    6    1 1
     7    7    1 1
     8    8    2 1
     9    9    7 1
    10   10    9 2
    11   11    9 1
    12   12   11 ar
    13   13   12 ar
    14   14   13 ar
    15   15   14 ar
    16   16   11 ar
    17   17   12 1
    18   18   17 2
    19   19   17 2
    20   20   14 1
    21   21   20 2
    22   22   20 2
    23   23    1 1
    24   24    2 1
    25   25    3 1
    26   26    3 1
    27   27    4 1
    28   28    4 1
    29   29    5 1
    30   30    5 1
    31   31    6 1
    32   32    6 1
    33   33    8 1
    34   34   13 1
    35   35   15 1
    36   36   16 1
    37   15   16 ar
@<TRIPOS>SUBSTRUCTURE
     1 RES1 1

@<TRIPOS>CRYSIN
   7.5620    8.3520   12.7900  91.7300 100.8300 116.3300   2 1

