# MOL2 file generated by ConQuest
# Please check atom types

@<TRIPOS>MOLECULE
VADZAB
    34    35     1
SMALL
NO_CHARGES
****
Generated from CSD

@<TRIPOS>ATOM
      1 C1        -0.6670    1.3733   10.3983 C.3       1 RES1    0.0000
      2 C2         0.6832    0.9807   10.9618 C.3       1 RES1    0.0000
      3 C3         0.5127    0.5906   12.4178 C.3       1 RES1    0.0000
      4 C4        -0.0953    1.7234   13.2228 C.3       1 RES1    0.0000
      5 C5        -1.4338    2.1486   12.6385 C.3       1 RES1    0.0000
      6 C6        -1.2843    2.5198   11.1645 C.3       1 RES1    0.0000
      7 C7        -1.0044    1.8144    6.7273 C.ar      1 RES1    0.0000
      8 C8         0.2216    2.3918    6.4219 C.ar      1 RES1    0.0000
      9 C9         0.5943    2.5711    5.0979 C.ar      1 RES1    0.0000
     10 C10       -0.2689    2.1417    4.1110 C.ar      1 RES1    0.0000
     11 C11       -1.4950    1.5853    4.3817 C.ar      1 RES1    0.0000
     12 C12       -1.8620    1.4239    5.7072 C.ar      1 RES1    0.0000
     13 N1         0.1653    2.2622    2.7023 N.pl3     1 RES1    0.0000
     14 O1         1.1958    2.8653    2.4719 O.2       1 RES1    0.0000
     15 O2        -0.5359    1.7584    1.8487 O.2       1 RES1    0.0000
     16 C13       -1.4269    1.5502    8.1360 C.2       1 RES1    0.0000
     17 O3        -0.4367    1.7498    9.0007 O.3       1 RES1    0.0000
     18 O4         1.2447   -0.1146   10.2471 O.3       1 RES1    0.0000
     19 O5        -2.5370    1.1815    8.4303 O.2       1 RES1    0.0000
     20 H1        -1.2852    0.6430   10.4705 H         1 RES1    0.0000
     21 H2         1.2780    1.7294   10.8786 H         1 RES1    0.0000
     22 H3         1.3719    0.3711   12.7856 H         1 RES1    0.0000
     23 H4        -0.0638   -0.1749   12.4705 H         1 RES1    0.0000
     24 H5        -0.2262    1.4315   14.1277 H         1 RES1    0.0000
     25 H6         0.5047    2.4734   13.2117 H         1 RES1    0.0000
     26 H7        -2.0578    1.4237   12.7190 H         1 RES1    0.0000
     27 H8        -1.7619    2.9096   13.1228 H         1 RES1    0.0000
     28 H9        -0.7207    3.2927   11.0881 H         1 RES1    0.0000
     29 H10       -2.1497    2.7164   10.7981 H         1 RES1    0.0000
     30 H11        0.8114    2.6667    7.1284 H         1 RES1    0.0000
     31 H12        1.4315    2.9837    4.8744 H         1 RES1    0.0000
     32 H13       -2.0824    1.3163    3.6711 H         1 RES1    0.0000
     33 H14       -2.7149    1.0393    5.9223 H         1 RES1    0.0000
     34 H15        1.6672    0.1958    9.6766 H         1 RES1    0.0000
@<TRIPOS>BOND
     1    1    2 1
     2    2    3 1
     3    3    4 1
     4    4    5 1
     5    5    6 1
     6    6    1 1
     7    7    8 ar
     8    8    9 ar
     9    9   10 ar
    10   10   11 ar
    11   11   12 ar
    12   12    7 ar
    13   13   10 1
    14   14   13 2
    15   15   13 2
    16   16    7 1
    17   17    1 1
    18   18    2 1
    19   19   16 2
    20   20    1 1
    21   21    2 1
    22   22    3 1
    23   23    3 1
    24   24    4 1
    25   25    4 1
    26   26    5 1
    27   27    5 1
    28   28    6 1
    29   29    6 1
    30   30    8 1
    31   31    9 1
    32   32   11 1
    33   33   12 1
    34   34   18 1
    35   16   17 1
@<TRIPOS>SUBSTRUCTURE
     1 RES1 1

@<TRIPOS>CRYSIN
   5.6590    8.1670   14.1670  91.9400 101.3700  90.8100   2 1

