# MOL2 file generated by ConQuest
# Please check atom types

@<TRIPOS>MOLECULE
VAFCAG
    28    29     1
SMALL
NO_CHARGES
****
Generated from CSD

@<TRIPOS>ATOM
      1 C1         4.7885    9.0644    6.3390 C.3       1 RES1    0.0000
      2 C2         3.4785    9.5983    6.8086 C.ar      1 RES1    0.0000
      3 C3         3.3419   10.0850    8.1081 C.ar      1 RES1    0.0000
      4 C4         2.1130   10.6028    8.4930 C.ar      1 RES1    0.0000
      5 C5         1.0565   10.6431    7.6276 C.ar      1 RES1    0.0000
      6 C6         1.1980   10.1552    6.3718 C.ar      1 RES1    0.0000
      7 C7         2.3962    9.6190    5.9295 C.ar      1 RES1    0.0000
      8 C8         4.4659   10.0436    9.0977 C.3       1 RES1    0.0000
      9 C9         2.4966    9.0794    4.5454 C.3       1 RES1    0.0000
     10 C10        5.7939    6.9048    5.9759 C.ar      1 RES1    0.0000
     11 C11        6.8833    7.4352    5.3221 C.ar      1 RES1    0.0000
     12 C12        7.8491    6.5872    4.8225 C.ar      1 RES1    0.0000
     13 C13        7.7264    5.2364    4.9972 C.ar      1 RES1    0.0000
     14 C14        6.6544    4.7002    5.6497 C.ar      1 RES1    0.0000
     15 C15        5.6831    5.5332    6.1329 C.ar      1 RES1    0.0000
     16 N1         8.7478    4.3435    4.4567 N.pl3     1 RES1    0.0000
     17 O1         4.7583    7.6308    6.4783 O.3       1 RES1    0.0000
     18 O2         9.6654    4.8095    3.8411 O.2       1 RES1    0.0000
     19 O3         8.6479    3.1561    4.6587 O.2       1 RES1    0.0000
     20 H1         5.4988    9.4292    6.8727 H         1 RES1    0.0000
     21 H2         4.9265    9.3003    5.4190 H         1 RES1    0.0000
     22 H3         2.0026   10.9388    9.3857 H         1 RES1    0.0000
     23 H4         0.2173   11.0158    7.9074 H         1 RES1    0.0000
     24 H5         0.4481   10.1805    5.7726 H         1 RES1    0.0000
     25 H6         6.9698    8.3856    5.2156 H         1 RES1    0.0000
     26 H7         8.6064    6.9450    4.3530 H         1 RES1    0.0000
     27 H8         6.5827    3.7498    5.7671 H         1 RES1    0.0000
     28 H9         4.9203    5.1650    6.5861 H         1 RES1    0.0000
@<TRIPOS>BOND
     1    1    2 1
     2    2    3 ar
     3    3    4 ar
     4    4    5 ar
     5    5    6 ar
     6    6    7 ar
     7    7    2 ar
     8    8    3 1
     9    9    7 1
    10   10   11 ar
    11   11   12 ar
    12   12   13 ar
    13   13   14 ar
    14   14   15 ar
    15   15   10 ar
    16   16   13 1
    17   17    1 1
    18   18   16 2
    19   19   16 2
    20   20    1 1
    21   21    1 1
    22   22    4 1
    23   23    5 1
    24   24    6 1
    25   25   11 1
    26   26   12 1
    27   27   14 1
    28   28   15 1
    29   10   17 1
@<TRIPOS>SUBSTRUCTURE
     1 RES1 1

@<TRIPOS>CRYSIN
   8.6910   11.5060   13.7000  90.0000  94.9000  90.0000  14 1

