# MOL2 file generated by ConQuest
# Please check atom types

@<TRIPOS>MOLECULE
VAFCIP
    27    28     1
SMALL
NO_CHARGES
****
Generated from CSD

@<TRIPOS>ATOM
      1 O1         1.3081   -1.3032    8.1658 O.2       1 RES1    0.0000
      2 O2        -0.8625    0.2375    9.9351 O.3       1 RES1    0.0000
      3 C1         0.1370    0.1545    5.0864 C.ar      1 RES1    0.0000
      4 C2         0.1922    0.7431    7.9166 C.2       1 RES1    0.0000
      5 C3         0.7906   -0.5176    7.4008 C.2       1 RES1    0.0000
      6 C4         0.7246   -0.7761    5.9439 C.ar      1 RES1    0.0000
      7 C5        -0.4004    1.6360    7.1093 C.2       1 RES1    0.0000
      8 O3        -1.9542   -0.2395   11.7246 O.2       1 RES1    0.0000
      9 N1        -1.0497    0.4082   11.2955 N.pl3     1 RES1    0.0000
     10 C6         0.2921    0.9444    9.4003 C.3       1 RES1    0.0000
     11 H1         1.1173    0.5698    9.7459 H         1 RES1    0.0000
     12 H2         0.2560    1.8865    9.6247 H         1 RES1    0.0000
     13 O4        -0.3291    1.1598   11.8835 O.2       1 RES1    0.0000
     14 O5        -0.8939    2.2497    4.9044 O.2       1 RES1    0.0000
     15 C7        -1.0388    2.8956    7.5997 C.3       1 RES1    0.0000
     16 H3        -1.3999    3.3815    6.8548 H         1 RES1    0.0000
     17 H4        -0.3815    3.4348    8.0448 H         1 RES1    0.0000
     18 H5        -1.7446    2.6777    8.2127 H         1 RES1    0.0000
     19 C8        -0.4221    1.4082    5.6328 C.2       1 RES1    0.0000
     20 C9         0.0993   -0.0965    3.7219 C.ar      1 RES1    0.0000
     21 H6        -0.2900    0.5221    3.1467 H         1 RES1    0.0000
     22 C10        0.6370   -1.2611    3.2174 C.ar      1 RES1    0.0000
     23 H7         0.6114   -1.4257    2.3021 H         1 RES1    0.0000
     24 C11        1.2572   -1.9512    5.4260 C.ar      1 RES1    0.0000
     25 H8         1.6435   -2.5801    5.9922 H         1 RES1    0.0000
     26 C12        1.2096   -2.1794    4.0620 C.ar      1 RES1    0.0000
     27 H9         1.5698   -2.9626    3.7141 H         1 RES1    0.0000
@<TRIPOS>BOND
     1    1    5 2
     2    2    9 1
     3    3    6 ar
     4    4    5 1
     5    5    6 1
     6    6   24 ar
     7    7    4 2
     8    8    9 2
     9    9   13 2
    10   10    2 1
    11   11   10 1
    12   12   10 1
    13   14   19 2
    14   15    7 1
    15   16   15 1
    16   17   15 1
    17   18   15 1
    18   19    3 1
    19   20    3 ar
    20   21   20 1
    21   22   20 ar
    22   23   22 1
    23   24   25 1
    24   26   22 ar
    25   27   26 1
    26    4   10 1
    27    7   19 1
    28   24   26 ar
@<TRIPOS>SUBSTRUCTURE
     1 RES1 1

@<TRIPOS>CRYSIN
   8.1930   11.3510   12.5110  90.0000 106.4900  90.0000  14 1

