# MOL2 file generated by ConQuest
# Please check atom types

@<TRIPOS>MOLECULE
VAFVAB
    36    38     1
SMALL
NO_CHARGES
****
Generated from CSD

@<TRIPOS>ATOM
      1 C1         0.9264    2.7522    1.4173 C.ar      1 RES1    0.0000
      2 C2         0.7144    1.9078    0.3358 C.ar      1 RES1    0.0000
      3 C3        -0.3699    2.0743   -0.4802 C.ar      1 RES1    0.0000
      4 C4        -1.2564    3.0792   -0.2310 C.ar      1 RES1    0.0000
      5 C5        -1.0741    3.9443    0.8394 C.ar      1 RES1    0.0000
      6 C6         0.0284    3.7881    1.6880 C.ar      1 RES1    0.0000
      7 C7         0.2294    4.7118    2.8047 C.2       1 RES1    0.0000
      8 C8        -0.5484    5.9141    3.1198 C.2       1 RES1    0.0000
      9 C9         1.1031    5.7547    4.6841 C.3       1 RES1    0.0000
     10 C10        0.8464    5.2886    6.1027 C.3       1 RES1    0.0000
     11 C11       -0.5478    4.6854    6.2808 C.3       1 RES1    0.0000
     12 C12       -0.7834    4.2217    7.7091 C.3       1 RES1    0.0000
     13 C13       -0.5428    5.3501    8.7013 C.3       1 RES1    0.0000
     14 C14        0.8407    5.9524    8.5337 C.3       1 RES1    0.0000
     15 C15        1.0724    6.4182    7.1024 C.3       1 RES1    0.0000
     16 H1         1.6858    2.6022    1.9354 H         1 RES1    0.0000
     17 H2         1.3339    1.2352    0.2032 H         1 RES1    0.0000
     18 H3        -0.5335    1.4637   -1.2313 H         1 RES1    0.0000
     19 H4        -2.0451    3.2211   -0.8009 H         1 RES1    0.0000
     20 H5        -1.6757    4.6175    1.0639 H         1 RES1    0.0000
     21 H6         1.9057    6.2583    4.6119 H         1 RES1    0.0000
     22 H7         1.4855    4.6196    6.2640 H         1 RES1    0.0000
     23 H8        -1.2376    5.3721    6.0153 H         1 RES1    0.0000
     24 H9        -0.6607    3.9186    5.6340 H         1 RES1    0.0000
     25 H10       -1.7032    3.8674    7.8347 H         1 RES1    0.0000
     26 H11       -0.1145    3.5226    7.9077 H         1 RES1    0.0000
     27 H12       -1.2740    6.0825    8.5269 H         1 RES1    0.0000
     28 H13       -0.6878    4.9951    9.6051 H         1 RES1    0.0000
     29 H14        0.9709    6.7055    9.1712 H         1 RES1    0.0000
     30 H15        1.5639    5.2740    8.7935 H         1 RES1    0.0000
     31 H16        0.4778    7.1706    6.8772 H         1 RES1    0.0000
     32 H17        1.9863    6.7727    7.0075 H         1 RES1    0.0000
     33 N1         1.1726    4.6244    3.7182 N.pl3     1 RES1    0.0000
     34 O1        -1.5392    6.3589    2.6142 O.2       1 RES1    0.0000
     35 O2         0.0446    6.5550    4.1749 O.3       1 RES1    0.0000
     36 O3         2.0646    3.7528    3.8997 O.2       1 RES1    0.0000
@<TRIPOS>BOND
     1    1    2 ar
     2    2    3 ar
     3    3    4 ar
     4    4    5 ar
     5    5    6 ar
     6    6    1 ar
     7    7    6 1
     8    8    7 1
     9    9   10 1
    10   10   11 1
    11   11   12 1
    12   12   13 1
    13   13   14 1
    14   14   15 1
    15   15   10 1
    16   16    1 1
    17   17    2 1
    18   18    3 1
    19   19    4 1
    20   20    5 1
    21   21    9 1
    22   22   10 1
    23   23   11 1
    24   24   11 1
    25   25   12 1
    26   26   12 1
    27   27   13 1
    28   28   13 1
    29   29   14 1
    30   30   14 1
    31   31   15 1
    32   32   15 1
    33   33    7 2
    34   34    8 2
    35   35    8 1
    36   36   33 1
    37    9   33 1
    38    9   35 1
@<TRIPOS>SUBSTRUCTURE
     1 RES1 1

@<TRIPOS>CRYSIN
   5.3913   10.1972   12.9979 111.4100  98.7120  88.9150   2 1

