# MOL2 file generated by ConQuest
# Please check atom types

@<TRIPOS>MOLECULE
VAGCOW
    45    46     1
SMALL
NO_CHARGES
****
Generated from CSD

@<TRIPOS>ATOM
      1 O1        -1.1660    1.8538    8.1714 O.3       1 RES1    0.0000
      2 C1        -0.5133    1.8219    6.9604 C.2       1 RES1    0.0000
      3 C2         0.8100    2.0342    6.8619 C.2       1 RES1    0.0000
      4 C3         1.6705    2.3513    8.0716 C.3       1 RES1    0.0000
      5 H1         2.4116    1.6809    8.1181 H         1 RES1    0.0000
      6 C4         0.8512    2.2550    9.3497 C.2       1 RES1    0.0000
      7 C5        -0.4746    2.0776    9.3387 C.2       1 RES1    0.0000
      8 C6        -1.5157    1.5308    5.8951 C.3       1 RES1    0.0000
      9 H2        -2.0338    2.3403    5.7042 H         1 RES1    0.0000
     10 H3        -2.1189    0.8217    6.1994 H         1 RES1    0.0000
     11 H4        -1.0527    1.2392    5.0815 H         1 RES1    0.0000
     12 C7         1.4904    1.9385    5.5475 C.2       1 RES1    0.0000
     13 O2         0.9666    1.9054    4.4613 O.2       1 RES1    0.0000
     14 O3         2.8199    1.9021    5.7214 O.3       1 RES1    0.0000
     15 C8         3.6521    1.7744    4.5338 C.3       1 RES1    0.0000
     16 H5         4.4753    2.3132    4.6421 H         1 RES1    0.0000
     17 H6         3.1619    2.1135    3.7425 H         1 RES1    0.0000
     18 C9         4.0091    0.3417    4.3317 C.3       1 RES1    0.0000
     19 H7         4.4215   -0.0105    5.1478 H         1 RES1    0.0000
     20 H8         4.6410    0.2644    3.5865 H         1 RES1    0.0000
     21 H9         3.1992   -0.1712    4.1273 H         1 RES1    0.0000
     22 C10        1.5880    2.4176   10.6235 C.2       1 RES1    0.0000
     23 O4         1.1527    2.8382   11.6714 O.2       1 RES1    0.0000
     24 O5         2.8710    2.0349   10.4798 O.3       1 RES1    0.0000
     25 C11        3.7218    2.2084   11.6341 C.3       1 RES1    0.0000
     26 H10        3.9949    3.1469   11.7008 H         1 RES1    0.0000
     27 H11        4.5169    1.6433   11.5422 H         1 RES1    0.0000
     28 H12        3.2308    1.9527   12.4431 H         1 RES1    0.0000
     29 C12       -1.4433    2.0586   10.4765 C.3       1 RES1    0.0000
     30 H13       -0.9725    2.2667   11.3108 H         1 RES1    0.0000
     31 H14       -1.8503    1.1701   10.5451 H         1 RES1    0.0000
     32 H15       -2.1428    2.7263   10.3215 H         1 RES1    0.0000
     33 C13        2.2857    3.7494    7.9789 C.ar      1 RES1    0.0000
     34 C14        3.6650    3.9292    7.9950 C.ar      1 RES1    0.0000
     35 H16        4.2482    3.1815    8.0492 H         1 RES1    0.0000
     36 C15        4.1757    5.2173    7.9319 C.ar      1 RES1    0.0000
     37 C16        3.3670    6.3404    7.8357 C.ar      1 RES1    0.0000
     38 H17        3.7429    7.2116    7.7815 H         1 RES1    0.0000
     39 C17        1.9943    6.1535    7.8218 C.ar      1 RES1    0.0000
     40 H18        1.4169    6.9052    7.7555 H         1 RES1    0.0000
     41 C18        1.4555    4.8716    7.9043 C.ar      1 RES1    0.0000
     42 H19        0.5126    4.7587    7.9102 H         1 RES1    0.0000
     43 N1         5.6371    5.3959    7.9564 N.pl3     1 RES1    0.0000
     44 O6         6.3396    4.4146    8.1627 O.2       1 RES1    0.0000
     45 O7         6.0882    6.5232    7.7622 O.2       1 RES1    0.0000
@<TRIPOS>BOND
     1    1    2 1
     2    2    3 2
     3    3    4 1
     4    4    5 1
     5    6    4 1
     6    7    1 1
     7    8    2 1
     8    9    8 1
     9   10    8 1
    10   11    8 1
    11   12    3 1
    12   13   12 2
    13   14   12 1
    14   15   14 1
    15   16   15 1
    16   17   15 1
    17   18   15 1
    18   19   18 1
    19   20   18 1
    20   21   18 1
    21   22    6 1
    22   23   22 2
    23   24   22 1
    24   25   24 1
    25   26   25 1
    26   27   25 1
    27   28   25 1
    28   29    7 1
    29   30   29 1
    30   31   29 1
    31   32   29 1
    32   33    4 1
    33   34   33 ar
    34   35   34 1
    35   36   34 ar
    36   37   36 ar
    37   38   37 1
    38   39   37 ar
    39   40   39 1
    40   41   33 ar
    41   42   41 1
    42   43   36 1
    43   44   43 2
    44   45   43 2
    45    6    7 2
    46   39   41 ar
@<TRIPOS>SUBSTRUCTURE
     1 RES1 1

@<TRIPOS>CRYSIN
   8.7492   15.0211   13.0008  90.0000  90.8310  90.0000 231 1

