# MOL2 file generated by ConQuest
# Please check atom types

@<TRIPOS>MOLECULE
VAGSAZ
    62    66     1
SMALL
NO_CHARGES
****
Generated from CSD

@<TRIPOS>ATOM
      1 N1        -0.9341    5.4139   14.8655 N.pl3     1 RES1    0.0000
      2 C1         0.6642    2.7491   12.8333 C.ar      1 RES1    0.0000
      3 H1         0.9128    1.8359   12.9200 H         1 RES1    0.0000
      4 C2         0.0986    3.4016   13.9109 C.ar      1 RES1    0.0000
      5 H2        -0.0288    2.9523   14.7381 H         1 RES1    0.0000
      6 C3        -0.2781    4.7238   13.7582 C.ar      1 RES1    0.0000
      7 C4        -0.1029    5.4032   12.5690 C.ar      1 RES1    0.0000
      8 H3        -0.3796    6.3077   12.4816 H         1 RES1    0.0000
      9 C5         0.4810    4.7394   11.5115 C.ar      1 RES1    0.0000
     10 H4         0.6159    5.1999   10.6916 H         1 RES1    0.0000
     11 C6         0.8794    3.4035   11.6183 C.ar      1 RES1    0.0000
     12 C7         1.4703    2.7267   10.4326 C.2       1 RES1    0.0000
     13 C8         2.4425    3.3851    9.7778 C.2       1 RES1    0.0000
     14 H5         2.7033    4.1934   10.2037 H         1 RES1    0.0000
     15 C9         3.1754    3.1181    8.5562 C.2       1 RES1    0.0000
     16 H6         3.9599    3.6383    8.4231 H         1 RES1    0.0000
     17 C10        2.8912    2.2296    7.5857 C.2       1 RES1    0.0000
     18 C11        1.7534    1.3394    7.6059 C.2       1 RES1    0.0000
     19 C12        0.7868    1.0467    8.6302 C.2       1 RES1    0.0000
     20 C13        0.8953    1.3491   10.1089 C.3       1 RES1    0.0000
     21 H7        -0.0356    1.3348   10.4724 H         1 RES1    0.0000
     22 C14        1.6548    0.2195   10.8056 C.ar      1 RES1    0.0000
     23 C15        3.0326    0.0970   10.6837 C.ar      1 RES1    0.0000
     24 H8         3.5231    0.7420   10.1877 H         1 RES1    0.0000
     25 C16        3.6945   -0.9602   11.2823 C.ar      1 RES1    0.0000
     26 H9         4.6374   -1.0349   11.1929 H         1 RES1    0.0000
     27 C17        2.9999   -1.9066   12.0070 C.ar      1 RES1    0.0000
     28 H10        3.4614   -2.6298   12.4161 H         1 RES1    0.0000
     29 C18        1.6311   -1.7946   12.1333 C.ar      1 RES1    0.0000
     30 H11        1.1454   -2.4429   12.6300 H         1 RES1    0.0000
     31 C19        0.9636   -0.7367   11.5366 C.ar      1 RES1    0.0000
     32 H12        0.0216   -0.6654   11.6287 H         1 RES1    0.0000
     33 C20        1.3052    0.7443    6.4707 C.2       1 RES1    0.0000
     34 C21       -0.1843    0.3169    8.0369 C.2       1 RES1    0.0000
     35 C22       -1.4676   -0.2600    8.5058 C.3       1 RES1    0.0000
     36 H13       -1.5872   -0.0591    9.4578 H         1 RES1    0.0000
     37 H14       -1.4561   -1.2309    8.3750 H         1 RES1    0.0000
     38 H15       -2.2066    0.1296    7.9940 H         1 RES1    0.0000
     39 C23        1.8900    0.8365    5.1052 C.3       1 RES1    0.0000
     40 H16        1.1737    0.8608    4.4221 H         1 RES1    0.0000
     41 H17        2.4733    0.0568    4.9247 H         1 RES1    0.0000
     42 C24        2.7143    2.1481    5.0722 C.3       1 RES1    0.0000
     43 C25        3.6688    2.1966    6.2949 C.3       1 RES1    0.0000
     44 H18        4.2569    1.4012    6.2856 H         1 RES1    0.0000
     45 H19        4.2405    3.0027    6.2348 H         1 RES1    0.0000
     46 C26        1.7309    3.3294    5.0897 C.2       1 RES1    0.0000
     47 C27        1.5364    5.6623    5.4133 C.3       1 RES1    0.0000
     48 H20        2.0948    6.4314    5.6506 H         1 RES1    0.0000
     49 H21        0.8211    5.5614    6.0757 H         1 RES1    0.0000
     50 H22        1.1423    5.8056    4.5277 H         1 RES1    0.0000
     51 C28        3.4899    2.2764    3.7655 C.2       1 RES1    0.0000
     52 C29        5.5166    1.7894    2.6650 C.3       1 RES1    0.0000
     53 H23        6.3486    1.2932    2.8153 H         1 RES1    0.0000
     54 H24        5.7237    2.7360    2.5158 H         1 RES1    0.0000
     55 H25        5.0581    1.4280    1.8782 H         1 RES1    0.0000
     56 O1         3.0900    2.8574    2.8020 O.2       1 RES1    0.0000
     57 O2         4.6629    1.6593    3.8220 O.3       1 RES1    0.0000
     58 O3         0.5584    3.2374    4.8520 O.2       1 RES1    0.0000
     59 O4         2.3497    4.4623    5.3929 O.3       1 RES1    0.0000
     60 O5        -1.0168    4.8449   15.9445 O.2       1 RES1    0.0000
     61 O6        -1.3853    6.5447   14.6621 O.2       1 RES1    0.0000
     62 O7         0.1203    0.1127    6.6958 O.3       1 RES1    0.0000
@<TRIPOS>BOND
     1    1    6 1
     2    2    3 1
     3    4    2 ar
     4    5    4 1
     5    6    4 ar
     6    7    6 ar
     7    8    7 1
     8    9    7 ar
     9   10    9 1
    10   11    2 ar
    11   12   11 1
    12   13   12 2
    13   14   13 1
    14   15   13 1
    15   16   15 1
    16   17   15 2
    17   18   17 1
    18   19   18 1
    19   20   12 1
    20   21   20 1
    21   22   20 1
    22   23   22 ar
    23   24   23 1
    24   25   23 ar
    25   26   25 1
    26   27   25 ar
    27   28   27 1
    28   29   27 ar
    29   30   29 1
    30   31   22 ar
    31   32   31 1
    32   33   18 2
    33   34   19 2
    34   35   34 1
    35   36   35 1
    36   37   35 1
    37   38   35 1
    38   39   33 1
    39   40   39 1
    40   41   39 1
    41   42   39 1
    42   43   17 1
    43   44   43 1
    44   45   43 1
    45   46   42 1
    46   47   48 1
    47   49   47 1
    48   50   47 1
    49   51   42 1
    50   52   53 1
    51   54   52 1
    52   55   52 1
    53   56   51 2
    54   57   51 1
    55   58   46 2
    56   59   46 1
    57   60    1 2
    58   61    1 2
    59   62   33 1
    60    9   11 ar
    61   19   20 1
    62   29   31 ar
    63   34   62 1
    64   42   43 1
    65   47   59 1
    66   52   57 1
@<TRIPOS>SUBSTRUCTURE
     1 RES1 1

@<TRIPOS>CRYSIN
   7.9544   11.8108   14.0463  92.2960 106.1490 107.5580   2 1

