# MOL2 file generated by ConQuest
# Please check atom types

@<TRIPOS>MOLECULE
VAGTED
    17    16     1
SMALL
NO_CHARGES
****
Generated from CSD

@<TRIPOS>ATOM
      1 N1         5.1338    1.5574    0.2172 N.2       1 RES1    0.0000
      2 O1         7.0099    1.9361   -0.8053 O.2       1 RES1    0.0000
      3 O2         6.1949    3.5681    0.3456 O.2       1 RES1    0.0000
      4 C1         4.0668    2.0064    0.9530 C.2       1 RES1    0.0000
      5 N2         3.2101    1.0431    1.2316 N.3       1 RES1    0.0000
      6 H1         3.3672    0.2960    0.9401 H         1 RES1    0.0000
      7 N3         6.1238    2.3897   -0.0824 N.pl3     1 RES1    0.0000
      8 N4         3.8588    3.2428    1.3539 N.3       1 RES1    0.0000
      9 H2         3.0950    3.4587    1.7128 H         1 RES1    0.0000
     10 H3         4.5029    3.7611    1.1633 H         1 RES1    0.0000
     11 C2         1.9911    1.1924    2.0081 C.3       1 RES1    0.0000
     12 H4         2.1258    1.8790    2.6701 H         1 RES1    0.0000
     13 H5         1.8156    0.3684    2.4726 H         1 RES1    0.0000
     14 C3         0.7904    1.5479    1.1779 C.3       1 RES1    0.0000
     15 H6         0.9563    2.3616    0.7126 H         1 RES1    0.0000
     16 H7         0.0338    1.6554    1.7428 H         1 RES1    0.0000
     17 H8         0.6209    0.8526    0.5495 H         1 RES1    0.0000
@<TRIPOS>BOND
     1    1    4 2
     2    2    7 2
     3    3    7 2
     4    4    5 1
     5    5    6 1
     6    7    1 1
     7    8    4 1
     8    9    8 1
     9   10    8 1
    10   11    5 1
    11   12   11 1
    12   13   11 1
    13   14   11 1
    14   15   14 1
    15   16   14 1
    16   17   14 1
@<TRIPOS>SUBSTRUCTURE
     1 RES1 1

@<TRIPOS>CRYSIN
   8.9336   16.0870    4.3173  90.0000  96.1190  90.0000 231 1

