# MOL2 file generated by ConQuest
# Please check atom types

@<TRIPOS>MOLECULE
VAHDOY
    64    62     2
SMALL
NO_CHARGES
****
Generated from CSD

@<TRIPOS>ATOM
      1 N1         0.6339    5.2828    5.9809 N.3       1 RES1    0.0000
      2 N2         1.4620    6.2180    0.8188 N.2       1 RES1    0.0000
      3 O1         1.3360    7.6048    0.6097 O.3       1 RES1    0.0000
      4 O2        -0.9895    4.3116    1.8260 O.3       1 RES1    0.0000
      5 O3        -3.0657    5.8553    3.9457 O.2       1 RES1    0.0000
      6 O4        -2.1591    7.7201    3.1136 O.3       1 RES1    0.0000
      7 O5         2.0867    9.5018    4.5139 O.2       1 RES1    0.0000
      8 O6         3.5036    8.3530    5.8118 O.3       1 RES1    0.0000
      9 C1        -0.5945    5.4094    5.3713 C.2       1 RES1    0.0000
     10 C2        -0.8132    6.4372    4.5168 C.2       1 RES1    0.0000
     11 C3         0.2978    7.4140    4.1623 C.3       1 RES1    0.0000
     12 C4         1.4701    7.3101    5.1369 C.2       1 RES1    0.0000
     13 C5         1.6248    6.2369    5.9320 C.2       1 RES1    0.0000
     14 C6        -1.5525    4.3267    5.7629 C.3       1 RES1    0.0000
     15 C7        -2.1148    6.6016    3.8656 C.2       1 RES1    0.0000
     16 C8        -3.3521    7.9052    2.3037 C.3       1 RES1    0.0000
     17 C9        -3.1685    7.3460    0.9790 C.3       1 RES1    0.0000
     18 C10        2.3560    8.4740    5.1087 C.2       1 RES1    0.0000
     19 C11        4.3886    9.5056    5.7718 C.3       1 RES1    0.0000
     20 C12        5.6245    9.1655    6.5357 C.3       1 RES1    0.0000
     21 C13        2.7785    5.9195    6.8339 C.3       1 RES1    0.0000
     22 C14        0.7683    7.2232    2.7249 C.2       1 RES1    0.0000
     23 C15        1.1311    6.0196    2.0708 C.2       1 RES1    0.0000
     24 C16        0.9182    8.1754    1.7697 C.2       1 RES1    0.0000
     25 C17        0.7319    9.6378    1.7355 C.3       1 RES1    0.0000
     26 C18        1.1909    4.6385    2.6152 C.ar      1 RES1    0.0000
     27 C19        0.0962    3.7826    2.4742 C.ar      1 RES1    0.0000
     28 C20        0.1414    2.5053    2.9949 C.ar      1 RES1    0.0000
     29 C21        1.2776    2.0878    3.6639 C.ar      1 RES1    0.0000
     30 C22        2.3668    2.9210    3.8137 C.ar      1 RES1    0.0000
     31 C23        2.3109    4.1888    3.2842 C.ar      1 RES1    0.0000
     32 C24       -2.1645    3.5048    1.7474 C.3       1 RES1    0.0000
     33 C25       -3.1638    8.5628    1.1377 Du        2 SUP2    0.0000
     34 H1         0.7475    4.5856    6.5312 H         1 RES1    0.0000
     35 H2        -0.0271    8.3304    4.1786 H         1 RES1    0.0000
     36 H3        -1.2645    3.8600    6.5624 H         1 RES1    0.0000
     37 H4        -1.6903    3.7164    5.1384 H         1 RES1    0.0000
     38 H5        -2.3499    4.6819    5.9320 H         1 RES1    0.0000
     39 H6        -3.4900    9.0332    1.8364 H         1 RES1    0.0000
     40 H7        -4.1589    7.5822    2.8050 H         1 RES1    0.0000
     41 H8        -3.9679    7.6143    0.2982 H         1 RES1    0.0000
     42 H9        -3.2883    6.4315    1.3410 H         1 RES1    0.0000
     43 H10       -2.2740    7.4839    0.5681 H         1 RES1    0.0000
     44 H11        3.8591   10.2594    6.1723 H         1 RES1    0.0000
     45 H12        4.5460    9.7474    4.8387 H         1 RES1    0.0000
     46 H13        6.2106    9.9836    6.5476 H         1 RES1    0.0000
     47 H14        6.1248    8.4078    6.1485 H         1 RES1    0.0000
     48 H15        5.4200    8.9255    7.4480 H         1 RES1    0.0000
     49 H16        2.6972    5.0107    7.0801 H         1 RES1    0.0000
     50 H17        2.7102    6.4447    7.5859 H         1 RES1    0.0000
     51 H18        3.6672    5.9932    6.4141 H         1 RES1    0.0000
     52 H19        1.4665   10.0629    1.4522 H         1 RES1    0.0000
     53 H20        0.5815    9.9968    2.5529 H         1 RES1    0.0000
     54 H21        0.0103    9.9099    1.2089 H         1 RES1    0.0000
     55 H22       -0.6418    1.9253    2.9400 H         1 RES1    0.0000
     56 H23        1.2952    1.1979    4.0525 H         1 RES1    0.0000
     57 H24        3.2003    2.5790    4.3611 H         1 RES1    0.0000
     58 H25        3.0037    4.7613    3.3583 H         1 RES1    0.0000
     59 H26       -2.8741    4.0811    1.2965 H         1 RES1    0.0000
     60 H27       -2.5123    3.1799    2.6478 H         1 RES1    0.0000
     61 H28       -1.9103    2.7623    1.1674 H         1 RES1    0.0000
     62 H29       -4.0175    8.6383    0.6631 Du        2 SUP2    0.0000
     63 H30       -2.5251    8.0658    0.5830 Du        2 SUP2    0.0000
     64 H31       -2.8102    9.4583    1.3202 Du        2 SUP2    0.0000
@<TRIPOS>BOND
     1    1    9 1
     2    2    3 1
     3    3   24 1
     4    4   27 1
     5    5   15 2
     6    6   15 1
     7    7   18 2
     8    8   18 1
     9    9   10 2
    10   10   11 1
    11   11   12 1
    12   12   13 2
    13   13    1 1
    14   14    9 1
    15   15   10 1
    16   16    6 1
    17   17   16 1
    18   18   12 1
    19   19    8 1
    20   20   19 1
    21   21   13 1
    22   22   11 1
    23   23    2 2
    24   24   22 2
    25   25   24 1
    26   26   23 1
    27   27   26 ar
    28   28   27 ar
    29   29   28 ar
    30   30   29 ar
    31   31   26 ar
    32   32    4 1
    33   34    1 1
    34   35   11 1
    35   36   14 1
    36   37   14 1
    37   38   14 1
    38   39   16 1
    39   40   16 1
    40   41   17 1
    41   42   17 1
    42   43   17 1
    43   44   19 1
    44   45   19 1
    45   46   20 1
    46   47   20 1
    47   48   20 1
    48   49   21 1
    49   50   21 1
    50   51   21 1
    51   52   25 1
    52   53   25 1
    53   54   25 1
    54   55   28 1
    55   56   29 1
    56   57   30 1
    57   58   31 1
    58   59   32 1
    59   60   32 1
    60   61   32 1
    61   22   23 1
    62   30   31 ar
@<TRIPOS>SUBSTRUCTURE
     1 RES1 1
     2 SUP2 33

@<TRIPOS>CRYSIN
   8.0950   18.8940   14.8670  90.0000  93.8400  90.0000  14 1

