# MOL2 file generated by ConQuest
# Please check atom types

@<TRIPOS>MOLECULE
VAJGAO
    24    24     1
SMALL
NO_CHARGES
****
Generated from CSD

@<TRIPOS>ATOM
      1 O1         1.9170    0.6781    4.2552 O.2       1 RES1    0.0000
      2 O2        -0.0895    1.3553    3.8440 O.2       1 RES1    0.0000
      3 O3         2.2833    2.1480    6.9175 O.3       1 RES1    0.0000
      4 O4         4.4003    4.2072    6.4028 O.3       1 RES1    0.0000
      5 O5         0.8931    4.8729    7.1993 O.3       1 RES1    0.0000
      6 O6        -0.1796    2.4852    8.2650 O.3       1 RES1    0.0000
      7 N1         1.0389    1.5320    4.2748 N.pl3     1 RES1    0.0000
      8 C1         1.3489    2.8940    4.8203 C.3       1 RES1    0.0000
      9 C2         2.5758    2.8739    5.7119 C.3       1 RES1    0.0000
     10 C3         2.9999    4.2712    6.1587 C.3       1 RES1    0.0000
     11 C4         2.2238    4.4527    7.4664 C.3       1 RES1    0.0000
     12 C5         2.2285    3.0525    8.0503 C.3       1 RES1    0.0000
     13 C6         1.0635    2.6647    8.9370 C.3       1 RES1    0.0000
     14 H1         1.4948    3.4384    4.0000 H         1 RES1    0.0000
     15 H2         0.5720    3.1996    5.3357 H         1 RES1    0.0000
     16 H3         3.2604    2.4164    5.2447 H         1 RES1    0.0000
     17 H4         2.7868    4.9379    5.5175 H         1 RES1    0.0000
     18 H5         2.6567    5.1098    8.0979 H         1 RES1    0.0000
     19 H6         2.9639    2.9417    8.6154 H         1 RES1    0.0000
     20 H7         0.9818    3.3333    9.6293 H         1 RES1    0.0000
     21 H8         1.2648    1.7669    9.3077 H         1 RES1    0.0000
     22 H9         4.7156    4.9570    6.6573 H         1 RES1    0.0000
     23 H10        0.9479    5.6255    6.7692 H         1 RES1    0.0000
     24 H11       -0.3875    3.0945    7.7342 H         1 RES1    0.0000
@<TRIPOS>BOND
     1    1    7 2
     2    2    7 2
     3    3    9 1
     4    4   10 1
     5    5   11 1
     6    6   13 1
     7    7    8 1
     8    8    9 1
     9    9   10 1
    10   10   11 1
    11   11   12 1
    12   12    3 1
    13   13   12 1
    14   14    8 1
    15   15    8 1
    16   16    9 1
    17   17   10 1
    18   18   11 1
    19   19   12 1
    20   20   13 1
    21   21   13 1
    22   22    4 1
    23   23    5 1
    24   24    6 1
@<TRIPOS>SUBSTRUCTURE
     1 RES1 1

@<TRIPOS>CRYSIN
   6.1570    9.5510    7.4860  90.0000 110.9100  90.0000   4 1

