# MOL2 file generated by ConQuest
# Please check atom types

@<TRIPOS>MOLECULE
VAKBEP
    46    50     1
SMALL
NO_CHARGES
****
Generated from CSD

@<TRIPOS>ATOM
      1 O1         8.7449    1.0416    6.7590 O.3       1 RES1    0.0000
      2 O2         9.1783    2.3792    8.4859 O.2       1 RES1    0.0000
      3 O3         4.4396    9.0128   12.2019 O.2       1 RES1    0.0000
      4 O4         2.8274    7.7009   12.7814 O.2       1 RES1    0.0000
      5 N1         3.9130    7.8950   12.2570 N.pl3     1 RES1    0.0000
      6 C1         8.3421    1.8435    7.7844 C.2       1 RES1    0.0000
      7 C2         6.8353    1.8851    7.8763 C.3       1 RES1    0.0000
      8 C3         6.4116    1.2762    6.5268 C.3       1 RES1    0.0000
      9 C4         7.5742    0.3802    6.1727 C.3       1 RES1    0.0000
     10 C5         6.2490    3.3277    8.1953 C.3       1 RES1    0.0000
     11 C6         4.7536    3.2128    8.0633 C.2       1 RES1    0.0000
     12 C7         4.1335    2.2653    8.7781 C.2       1 RES1    0.0000
     13 C8         5.0204    1.4218    9.6299 C.3       1 RES1    0.0000
     14 C9         6.4165    1.0970    9.1172 C.3       1 RES1    0.0000
     15 C10        6.5767    3.4495    9.7368 C.3       1 RES1    0.0000
     16 C11        6.2679    2.0515   10.2679 C.3       1 RES1    0.0000
     17 C12        6.8339    4.4445    7.3418 C.3       1 RES1    0.0000
     18 C13        2.6504    2.0218    8.8165 C.3       1 RES1    0.0000
     19 C14        6.6783    1.6911   11.6724 C.3       1 RES1    0.0000
     20 C15        5.8842    4.5891   10.4466 C.ar      1 RES1    0.0000
     21 C16        4.6342    4.4495   11.0495 C.ar      1 RES1    0.0000
     22 C17        3.9883    5.5168   11.6507 C.ar      1 RES1    0.0000
     23 C18        4.6265    6.7633   11.6491 C.ar      1 RES1    0.0000
     24 C19        5.8671    6.9425   11.0929 C.ar      1 RES1    0.0000
     25 C20        6.4998    5.8603   10.4983 C.ar      1 RES1    0.0000
     26 H1         5.6111    0.7713    6.6170 H         1 RES1    0.0000
     27 H2         6.2889    1.9515    5.8721 H         1 RES1    0.0000
     28 H3         7.6717    0.3109    5.2275 H         1 RES1    0.0000
     29 H4         7.4623   -0.4871    6.5418 H         1 RES1    0.0000
     30 H5         4.2618    3.7940    7.4938 H         1 RES1    0.0000
     31 H6         4.5916    0.7436   10.1359 H         1 RES1    0.0000
     32 H7         6.7855    0.2327    9.2675 H         1 RES1    0.0000
     33 H8         7.5114    3.5851    9.8186 H         1 RES1    0.0000
     34 H9         7.7582    4.5406    7.5422 H         1 RES1    0.0000
     35 H10        6.7277    4.2297    6.4266 H         1 RES1    0.0000
     36 H11        6.3830    5.2574    7.5356 H         1 RES1    0.0000
     37 H12        2.3471    2.0534    9.7151 H         1 RES1    0.0000
     38 H13        2.2054    2.6921    8.3088 H         1 RES1    0.0000
     39 H14        2.4592    1.1683    8.4458 H         1 RES1    0.0000
     40 H15        6.0273    2.0158   12.2870 H         1 RES1    0.0000
     41 H16        6.7360    0.7426   11.7526 H         1 RES1    0.0000
     42 H17        7.5203    2.0762   11.8695 H         1 RES1    0.0000
     43 H18        4.2095    3.6010   11.0395 H         1 RES1    0.0000
     44 H19        3.1360    5.4069   12.0599 H         1 RES1    0.0000
     45 H20        6.2882    7.7950   11.1146 H         1 RES1    0.0000
     46 H21        7.3657    5.9742   10.1192 H         1 RES1    0.0000
@<TRIPOS>BOND
     1    1    6 1
     2    2    6 2
     3    3    5 2
     4    4    5 2
     5    5   23 1
     6    6    7 1
     7    7    8 1
     8    8    9 1
     9    9    1 1
    10   10    7 1
    11   11   10 1
    12   12   11 2
    13   13   12 1
    14   14    7 1
    15   15   10 1
    16   16   13 1
    17   17   10 1
    18   18   12 1
    19   19   16 1
    20   20   15 1
    21   21   20 ar
    22   22   21 ar
    23   23   22 ar
    24   24   23 ar
    25   25   20 ar
    26   26    8 1
    27   27    8 1
    28   28    9 1
    29   29    9 1
    30   30   11 1
    31   31   13 1
    32   32   14 1
    33   33   15 1
    34   34   17 1
    35   35   17 1
    36   36   17 1
    37   37   18 1
    38   38   18 1
    39   39   18 1
    40   40   19 1
    41   41   19 1
    42   42   19 1
    43   43   21 1
    44   44   22 1
    45   45   24 1
    46   46   25 1
    47   13   14 1
    48   14   16 1
    49   15   16 1
    50   24   25 ar
@<TRIPOS>SUBSTRUCTURE
     1 RES1 1

@<TRIPOS>CRYSIN
  10.6472    9.9009   17.1097  90.0000 102.5460  90.0000  14 1

