# MOL2 file generated by ConQuest
# Please check atom types

@<TRIPOS>MOLECULE
VAKJUM
    24    25     1
SMALL
NO_CHARGES
****
Generated from CSD

@<TRIPOS>ATOM
      1 O1         0.1239    6.8349    2.0400 O.2       1 RES1    0.0000
      2 O2         2.1251   10.7022    5.1821 O.2       1 RES1    0.0000
      3 N1         0.5773    7.7763    2.8196 N.pl3     1 RES1    0.0000
      4 N2         1.6242    9.7623    4.4385 N.pl3     1 RES1    0.0000
      5 C1         1.1241    8.9225    2.2388 C.ar      1 RES1    0.0000
      6 C2         1.1287    9.0809    0.8486 C.ar      1 RES1    0.0000
      7 C3         1.6724   10.2165    0.3131 C.ar      1 RES1    0.0000
      8 C4         2.2222   11.1983    1.1288 C.ar      1 RES1    0.0000
      9 C5         2.2146   11.0518    2.4799 C.ar      1 RES1    0.0000
     10 C6         1.6502    9.9147    3.0529 C.ar      1 RES1    0.0000
     11 C7         1.0759    8.6610    4.9739 C.2       1 RES1    0.0000
     12 C8         0.5498    7.6523    4.1598 C.2       1 RES1    0.0000
     13 C9        -0.0359    6.3971    4.7156 C.3       1 RES1    0.0000
     14 C10        1.0905    8.5668    6.4581 C.3       1 RES1    0.0000
     15 H1         0.7112    8.3980    0.3131 H         1 RES1    0.0000
     16 H2         1.6747   10.3256   -0.7045 H         1 RES1    0.0000
     17 H3         2.6153   12.0142    0.6576 H         1 RES1    0.0000
     18 H4         2.5770   11.7004    3.0529 H         1 RES1    0.0000
     19 H5        -0.5735    5.9174    3.9610 H         1 RES1    0.0000
     20 H6         0.6959    5.7232    5.0256 H         1 RES1    0.0000
     21 H7        -0.6118    6.5301    5.4796 H         1 RES1    0.0000
     22 H8         0.6423    9.2647    6.8886 H         1 RES1    0.0000
     23 H9         1.8429    8.6669    6.7947 H         1 RES1    0.0000
     24 H10        0.7876    7.6807    6.7790 H         1 RES1    0.0000
@<TRIPOS>BOND
     1    1    3 1
     2    2    4 1
     3    3    5 1
     4    4   10 1
     5    5    6 ar
     6    6    7 ar
     7    7    8 ar
     8    8    9 ar
     9    9   10 ar
    10   10    5 ar
    11   11    4 1
    12   12    3 1
    13   13   12 1
    14   14   11 1
    15   15    6 1
    16   16    7 1
    17   17    8 1
    18   18    9 1
    19   19   13 1
    20   20   13 1
    21   21   13 1
    22   22   14 1
    23   23   14 1
    24   24   14 1
    25   11   12 2
@<TRIPOS>SUBSTRUCTURE
     1 RES1 1

@<TRIPOS>CRYSIN
   7.6470   14.9430   15.6560  90.0000  90.0000  90.0000  61 1

