# MOL2 file generated by ConQuest
# Please check atom types

@<TRIPOS>MOLECULE
VAKROR
    57    59     1
SMALL
NO_CHARGES
****
Generated from CSD

@<TRIPOS>ATOM
      1 N1         0.4821   16.9569    2.3233 N.pl3     1 RES1    0.0000
      2 O1         6.6822    8.6249    1.2678 O.3       1 RES1    0.0000
      3 O2         6.6624   10.9080   -0.5787 O.3       1 RES1    0.0000
      4 H1         7.3762   10.5046   -0.6078 H         1 RES1    0.0000
      5 O3         3.1689   12.0237   -0.6081 O.3       1 RES1    0.0000
      6 O4         2.1130   12.8717   -2.3432 O.2       1 RES1    0.0000
      7 O5         0.8321   16.9203    3.4896 O.2       1 RES1    0.0000
      8 O6        -0.2610   17.8068    1.8515 O.2       1 RES1    0.0000
      9 C1         4.0111    9.8060   -0.5540 C.3       1 RES1    0.0000
     10 H2         3.1175    9.5025   -0.2884 H         1 RES1    0.0000
     11 C2         4.6933    8.6050   -1.2387 C.3       1 RES1    0.0000
     12 H3         5.5705    8.8919   -1.5691 H         1 RES1    0.0000
     13 C3         4.9028    7.6744   -0.0605 C.3       1 RES1    0.0000
     14 H4         5.6301    7.0584   -0.2396 H         1 RES1    0.0000
     15 H5         4.0978    7.1620    0.1139 H         1 RES1    0.0000
     16 C4         5.2396    8.5674    1.1360 C.3       1 RES1    0.0000
     17 C5         4.8091   10.0049    0.7507 C.3       1 RES1    0.0000
     18 H6         4.2101   10.3561    1.4419 H         1 RES1    0.0000
     19 C6         6.1228   10.8319    0.7507 C.3       1 RES1    0.0000
     20 C7         6.9984    9.9628    1.6297 C.3       1 RES1    0.0000
     21 H7         7.9369   10.1479    1.4685 H         1 RES1    0.0000
     22 H8         6.8054   10.1186    2.5673 H         1 RES1    0.0000
     23 C8         3.9159    7.9825   -2.3985 C.3       1 RES1    0.0000
     24 H9         3.0480    7.6946   -2.0763 H         1 RES1    0.0000
     25 H10        3.7695    8.6600   -3.0775 H         1 RES1    0.0000
     26 C9         4.6189    6.8044   -3.0272 C.3       1 RES1    0.0000
     27 H11        4.0800    6.4551   -3.7415 H         1 RES1    0.0000
     28 H12        4.7546    6.1223   -2.3661 H         1 RES1    0.0000
     29 H13        5.4677    7.0868   -3.3762 H         1 RES1    0.0000
     30 C10        4.6335    8.0916    2.4574 C.3       1 RES1    0.0000
     31 H14        4.8864    8.7150    3.1558 H         1 RES1    0.0000
     32 H15        3.6670    8.1127    2.3809 H         1 RES1    0.0000
     33 C11        5.0540    6.7017    2.8749 C.3       1 RES1    0.0000
     34 H16        4.6367    6.4790    3.7104 H         1 RES1    0.0000
     35 H17        6.0068    6.6724    2.9754 H         1 RES1    0.0000
     36 H18        4.7829    6.0710    2.2035 H         1 RES1    0.0000
     37 C12        5.9862   12.2465    1.2822 C.3       1 RES1    0.0000
     38 H19        5.4598   12.2281    2.0955 H         1 RES1    0.0000
     39 H20        5.5064   12.7828    0.6315 H         1 RES1    0.0000
     40 C13        7.3294   12.9057    1.5764 C.3       1 RES1    0.0000
     41 H21        7.1848   13.7949    1.9077 H         1 RES1    0.0000
     42 H22        7.8507   12.9460    0.7705 H         1 RES1    0.0000
     43 H23        7.8018   12.3923    2.2360 H         1 RES1    0.0000
     44 C14        3.8088   11.0015   -1.4326 C.3       1 RES1    0.0000
     45 H24        4.6617   11.3224   -1.7672 H         1 RES1    0.0000
     46 H25        3.2460   10.7741   -2.1887 H         1 RES1    0.0000
     47 C15        2.4060   12.9093   -1.1906 C.2       1 RES1    0.0000
     48 C16        1.8968   13.9435   -0.2439 C.ar      1 RES1    0.0000
     49 C17        2.1438   13.8619    1.1242 C.ar      1 RES1    0.0000
     50 H26        2.6326   13.1495    1.4685 H         1 RES1    0.0000
     51 C18        1.6612   14.8373    1.9657 C.ar      1 RES1    0.0000
     52 H27        1.8091   14.7860    2.8823 H         1 RES1    0.0000
     53 C19        0.9621   15.8834    1.4321 C.ar      1 RES1    0.0000
     54 C20        0.7016   15.9916    0.0819 C.ar      1 RES1    0.0000
     55 H28        0.2224   16.7122   -0.2573 H         1 RES1    0.0000
     56 C21        1.1738   15.0005   -0.7455 C.ar      1 RES1    0.0000
     57 H29        1.0016   15.0445   -1.6578 H         1 RES1    0.0000
@<TRIPOS>BOND
     1    1    7 2
     2    2   16 1
     3    3    4 1
     4    5   44 1
     5    6   47 2
     6    8    1 2
     7    9   10 1
     8   11    9 1
     9   12   11 1
    10   13   11 1
    11   14   13 1
    12   15   13 1
    13   16   13 1
    14   17    9 1
    15   18   17 1
    16   19    3 1
    17   20    2 1
    18   21   20 1
    19   22   20 1
    20   23   11 1
    21   24   23 1
    22   25   23 1
    23   26   23 1
    24   27   26 1
    25   28   26 1
    26   29   26 1
    27   30   16 1
    28   31   30 1
    29   32   30 1
    30   33   30 1
    31   34   33 1
    32   35   33 1
    33   36   33 1
    34   37   19 1
    35   38   37 1
    36   39   37 1
    37   40   37 1
    38   41   40 1
    39   42   40 1
    40   43   40 1
    41   44    9 1
    42   45   44 1
    43   46   44 1
    44   47    5 1
    45   48   47 1
    46   49   48 ar
    47   50   49 1
    48   51   49 ar
    49   52   51 1
    50   53    1 1
    51   54   53 ar
    52   55   54 1
    53   56   48 ar
    54   57   56 1
    55   16   17 1
    56   17   19 1
    57   19   20 1
    58   51   53 ar
    59   54   56 ar
@<TRIPOS>SUBSTRUCTURE
     1 RES1 1

@<TRIPOS>CRYSIN
  15.7725    9.1679   16.4313  90.0000 115.8400  90.0000 231 1

