# MOL2 file generated by ConQuest
# Please check atom types

@<TRIPOS>MOLECULE
VALPII
    20    19     1
SMALL
NO_CHARGES
****
Generated from CSD

@<TRIPOS>ATOM
      1 O1         1.8182    5.6280    4.1540 O.2       1 RES1    0.0000
      2 O2        -1.4461    4.5479    6.4042 O.2       1 RES1    0.0000
      3 O3        -2.9387    5.2877    7.7824 O.2       1 RES1    0.0000
      4 O4         1.8393    4.4834    1.1128 O.2       1 RES1    0.0000
      5 O5        -0.1450    5.2769    1.4608 O.2       1 RES1    0.0000
      6 N1         1.5139    7.5984    5.2000 N.am      1 RES1    0.0000
      7 N2         2.9322    7.4613    3.4227 N.am      1 RES1    0.0000
      8 N3        -1.8180    6.6884    6.5536 N.3       1 RES1    0.0000
      9 N4        -2.0749    5.4543    6.9280 N.pl3     1 RES1    0.0000
     10 N5         1.5128    6.6490    0.9634 N.3       1 RES1    0.0000
     11 N6         1.0454    5.4166    1.2183 N.pl3     1 RES1    0.0000
     12 C1         2.0744    6.8344    4.2489 C.2       1 RES1    0.0000
     13 C2         0.5612    7.1085    6.1563 C.3       1 RES1    0.0000
     14 C3        -0.8211    7.0171    5.5709 C.3       1 RES1    0.0000
     15 C4         3.6046    6.7842    2.3469 C.3       1 RES1    0.0000
     16 C5         2.9173    6.9249    1.0073 C.3       1 RES1    0.0000
     17 H1         1.7487    8.3381    5.2035 H         1 RES1    0.0000
     18 H2         3.0485    8.2575    3.5510 H         1 RES1    0.0000
     19 H3        -2.2368    7.2276    6.9790 H         1 RES1    0.0000
     20 H4         1.0004    7.2007    1.2657 H         1 RES1    0.0000
@<TRIPOS>BOND
     1    1   12 2
     2    2    9 2
     3    3    9 2
     4    4   11 2
     5    5   11 2
     6    6   12 1
     7    7   12 1
     8    8    9 1
     9   10   11 1
    10   13    6 1
    11   14    8 1
    12   15    7 1
    13   16   10 1
    14   17    6 1
    15   18    7 1
    16   19    8 1
    17   20   10 1
    18   13   14 1
    19   15   16 1
@<TRIPOS>SUBSTRUCTURE
     1 RES1 1

@<TRIPOS>CRYSIN
   6.4141    8.9561   17.9030  90.0000 100.9100  90.0000  14 1

