# MOL2 file generated by ConQuest
# Please check atom types

@<TRIPOS>MOLECULE
VALSAF
    37    38     1
SMALL
NO_CHARGES
****
Generated from CSD

@<TRIPOS>ATOM
      1 N1         2.7401    3.2748    3.2221 N.am      1 RES1    0.0000
      2 N2         0.5932    2.2997    3.5224 N.2       1 RES1    0.0000
      3 O1         3.7929    5.4009    3.2097 O.2       1 RES1    0.0000
      4 O2        -0.7466    2.6920    3.7214 O.3       1 RES1    0.0000
      5 C1         2.8471    4.6573    3.2483 C.2       1 RES1    0.0000
      6 C2         1.3248    3.3210    3.3686 C.2       1 RES1    0.0000
      7 C3         1.3581    4.8031    3.3474 C.2       1 RES1    0.0000
      8 C4         0.6279    5.9073    3.3824 C.2       1 RES1    0.0000
      9 H1         1.1357    6.6861    3.4080 H         1 RES1    0.0000
     10 C5        -0.8092    6.1501    3.3897 C.ar      1 RES1    0.0000
     11 C6        -1.7170    5.2918    2.7796 C.ar      1 RES1    0.0000
     12 H2        -1.4149    4.5158    2.3641 H         1 RES1    0.0000
     13 C7        -3.0636    5.5879    2.7883 C.ar      1 RES1    0.0000
     14 H3        -3.6632    5.0099    2.3728 H         1 RES1    0.0000
     15 C8        -3.5243    6.7085    3.3970 C.ar      1 RES1    0.0000
     16 H4        -4.4376    6.8819    3.4123 H         1 RES1    0.0000
     17 C9        -2.6619    7.5811    3.9831 C.ar      1 RES1    0.0000
     18 H5        -2.9814    8.3548    4.3877 H         1 RES1    0.0000
     19 C10       -1.2885    7.3055    3.9729 C.ar      1 RES1    0.0000
     20 H6        -0.6958    7.9055    4.3636 H         1 RES1    0.0000
     21 C11       -1.5230    1.5294    3.9576 C.3       1 RES1    0.0000
     22 H7        -1.5063    0.9695    3.1783 H         1 RES1    0.0000
     23 H8        -2.4288    1.7825    4.1508 H         1 RES1    0.0000
     24 H9        -1.1593    1.0478    4.7048 H         1 RES1    0.0000
     25 C12        3.6713    2.1380    3.2111 C.3       1 RES1    0.0000
     26 C13        5.0761    2.6808    3.0777 C.3       1 RES1    0.0000
     27 H10        5.1436    3.1995    2.2722 H         1 RES1    0.0000
     28 H11        5.6988    1.9503    3.0413 H         1 RES1    0.0000
     29 H12        5.2784    3.2368    3.8337 H         1 RES1    0.0000
     30 C14        3.3302    1.2597    2.0178 C.3       1 RES1    0.0000
     31 H13        2.4093    0.9956    2.0681 H         1 RES1    0.0000
     32 H14        3.8881    0.4792    2.0258 H         1 RES1    0.0000
     33 H15        3.4790    1.7508    1.2065 H         1 RES1    0.0000
     34 C15        3.4969    1.3605    4.5131 C.3       1 RES1    0.0000
     35 H16        3.7063    1.9298    5.2566 H         1 RES1    0.0000
     36 H17        4.0862    0.6022    4.5145 H         1 RES1    0.0000
     37 H18        2.5883    1.0590    4.5867 H         1 RES1    0.0000
@<TRIPOS>BOND
     1    1    5 1
     2    2    4 1
     3    3    5 2
     4    4   21 1
     5    5    7 1
     6    6    1 1
     7    7    6 1
     8    8    7 2
     9    9    8 1
    10   10    8 1
    11   11   10 ar
    12   12   11 1
    13   13   11 ar
    14   14   13 1
    15   15   13 ar
    16   16   15 1
    17   17   15 ar
    18   18   17 1
    19   19   10 ar
    20   20   19 1
    21   21   22 1
    22   23   21 1
    23   24   21 1
    24   25    1 1
    25   26   25 1
    26   27   26 1
    27   28   26 1
    28   29   26 1
    29   30   25 1
    30   31   30 1
    31   32   30 1
    32   33   30 1
    33   34   25 1
    34   35   34 1
    35   36   34 1
    36   37   34 1
    37    2    6 2
    38   17   19 ar
@<TRIPOS>SUBSTRUCTURE
     1 RES1 1

@<TRIPOS>CRYSIN
  10.6579   18.6450    7.3052  90.0000  93.7290  90.0000  14 1

