# MOL2 file generated by ConQuest
# Please check atom types

@<TRIPOS>MOLECULE
VALTEJ01
    31    30     1
SMALL
NO_CHARGES
****
Generated from CSD

@<TRIPOS>ATOM
      1 O1         0.4231    2.0917    7.4489 O.3       1 RES1    0.0000
      2 C1         0.0000    2.8775    8.5370 C.3       1 RES1    0.0000
      3 O2         2.6732    3.5528    5.3752 O.2       1 RES1    0.0000
      4 C2         2.5759    1.5722    6.6258 C.3       1 RES1    0.0000
      5 N1         3.9251    0.9467    6.9659 N.pl3     1 RES1    0.0000
      6 O3         3.1016    0.7257    4.5109 O.2       1 RES1    0.0000
      7 O4         3.0975    3.6233    7.5126 O.2       1 RES1    0.0000
      8 C3         1.5603    1.2882    7.7117 C.3       1 RES1    0.0000
      9 H1         1.3117    0.3304    7.7060 H         1 RES1    0.0000
     10 H2         1.9376    1.5098    8.6007 H         1 RES1    0.0000
     11 O5         3.8639   -0.2071    7.3130 O.2       1 RES1    0.0000
     12 O6         4.9060    1.6315    6.8603 O.2       1 RES1    0.0000
     13 N2         2.8053    3.0613    6.4733 N.pl3     1 RES1    0.0000
     14 N3         2.2006    1.0185    5.2659 N.pl3     1 RES1    0.0000
     15 O7         1.0213    0.9116    5.0316 O.2       1 RES1    0.0000
     16 H3         0.7189    3.4317    8.8989 H         1 RES1    0.0000
     17 O1C       -0.4231    2.0917    9.6250 O.3       1 RES1    0.0000
     18 O2C       -2.6732    3.5528   11.6987 O.2       1 RES1    0.0000
     19 C2C       -2.5759    1.5722   10.4481 C.3       1 RES1    0.0000
     20 N1C       -3.9251    0.9467   10.1080 N.pl3     1 RES1    0.0000
     21 O3C       -3.1016    0.7257   12.5630 O.2       1 RES1    0.0000
     22 O4C       -3.0975    3.6233    9.5613 O.2       1 RES1    0.0000
     23 C3C       -1.5603    1.2882    9.3622 C.3       1 RES1    0.0000
     24 H1C       -1.3117    0.3304    9.3679 H         1 RES1    0.0000
     25 H2C       -1.9376    1.5098    8.4732 H         1 RES1    0.0000
     26 O5C       -3.8639   -0.2071    9.7609 O.2       1 RES1    0.0000
     27 O6C       -4.9060    1.6315   10.2136 O.2       1 RES1    0.0000
     28 N2C       -2.8053    3.0613   10.6006 N.pl3     1 RES1    0.0000
     29 N3C       -2.2006    1.0185   11.8080 N.pl3     1 RES1    0.0000
     30 O7C       -1.0213    0.9116   12.0423 O.2       1 RES1    0.0000
     31 H3C       -0.7189    3.4317    8.1750 H         1 RES1    0.0000
@<TRIPOS>BOND
     1    1    2 1
     2    2   16 1
     3    3   13 2
     4    4    5 1
     5    5   11 2
     6    6   14 2
     7    7   13 2
     8    8    1 1
     9    9    8 1
    10   10    8 1
    11   12    5 2
    12   13    4 1
    13   14    4 1
    14   15   14 2
    15   17    2 1
    16   18   28 2
    17   19   20 1
    18   20   26 2
    19   21   29 2
    20   22   28 2
    21   23   17 1
    22   24   23 1
    23   25   23 1
    24   27   20 2
    25   28   19 1
    26   29   19 1
    27   30   29 2
    28   31    2 1
    29    4    8 1
    30   19   23 1
@<TRIPOS>SUBSTRUCTURE
     1 RES1 1

@<TRIPOS>CRYSIN
   9.9980   11.8416   11.3826  90.0000  90.0000  90.0000  60 1

