# MOL2 file generated by ConQuest
# Please check atom types

@<TRIPOS>MOLECULE
VALTEJ
    31    30     1
SMALL
NO_CHARGES
****
Generated from CSD

@<TRIPOS>ATOM
      1 O1         0.9423   -0.5298    9.7589 O.3       1 RES1    0.0000
      2 O2         0.6661    1.6910    9.1270 O.3       1 RES1    0.0000
      3 N1        -0.4418   -1.7219   12.9312 N.pl3     1 RES1    0.0000
      4 O3         0.2348   -1.9376   13.9092 O.2       1 RES1    0.0000
      5 N2         1.5219    3.6489   11.3665 N.pl3     1 RES1    0.0000
      6 N3         0.6580    4.2803    9.1674 N.pl3     1 RES1    0.0000
      7 C1         0.1921   -1.8043   11.5579 C.3       1 RES1    0.0000
      8 O4         1.8069    4.6727   11.9332 O.2       1 RES1    0.0000
      9 N4         3.0641    4.3931    9.6898 N.pl3     1 RES1    0.0000
     10 O5        -1.6105   -1.4121   12.8902 O.2       1 RES1    0.0000
     11 C2         1.9712    2.1810    9.3329 C.3       1 RES1    0.0000
     12 H1         2.4754    2.1981    8.4813 H         1 RES1    0.0000
     13 H2         2.4594    1.6115    9.9790 H         1 RES1    0.0000
     14 O6         2.9730    5.5179    9.2846 O.2       1 RES1    0.0000
     15 N5         1.6744   -2.0986   11.6927 N.pl3     1 RES1    0.0000
     16 O7         0.7804    4.3618    7.9716 O.2       1 RES1    0.0000
     17 O8        -0.2639    4.6543    9.8458 O.2       1 RES1    0.0000
     18 O9         2.0887   -3.1161   11.2007 O.2       1 RES1    0.0000
     19 C3         1.8035    3.5788    9.8777 C.3       1 RES1    0.0000
     20 O10        4.0721    3.8283   10.0209 O.2       1 RES1    0.0000
     21 C4         0.6241    0.3473    8.7148 C.3       1 RES1    0.0000
     22 H3        -0.2827    0.1376    8.3782 H         1 RES1    0.0000
     23 H4         1.2640    0.2146    7.9704 H         1 RES1    0.0000
     24 O11        1.0382    2.6647   11.8618 O.2       1 RES1    0.0000
     25 N6        -0.4716   -3.0144   10.9335 N.pl3     1 RES1    0.0000
     26 O12       -0.8285   -2.9103    9.7979 O.2       1 RES1    0.0000
     27 O13        2.3049   -1.2363   12.2582 O.2       1 RES1    0.0000
     28 C5        -0.0077   -0.5193   10.8094 C.3       1 RES1    0.0000
     29 H5        -0.9277   -0.4678   10.4463 H         1 RES1    0.0000
     30 H6         0.1415    0.2565   11.4051 H         1 RES1    0.0000
     31 O14       -0.6000   -3.9754   11.6627 O.2       1 RES1    0.0000
@<TRIPOS>BOND
     1    1   21 1
     2    2   11 1
     3    3    4 2
     4    5    8 2
     5    6   16 2
     6    7    3 1
     7    9   14 2
     8   10    3 2
     9   11   12 1
    10   13   11 1
    11   15    7 1
    12   17    6 2
    13   18   15 2
    14   19    5 1
    15   20    9 2
    16   21    2 1
    17   22   21 1
    18   23   21 1
    19   24    5 2
    20   25    7 1
    21   26   25 2
    22   27   15 2
    23   28    1 1
    24   29   28 1
    25   30   28 1
    26   31   25 2
    27    6   19 1
    28    7   28 1
    29    9   19 1
    30   11   19 1
@<TRIPOS>SUBSTRUCTURE
     1 RES1 1

@<TRIPOS>CRYSIN
  10.4605   11.0072   12.3025  90.0000  99.4090  90.0000  14 1

