# MOL2 file generated by ConQuest
# Please check atom types

@<TRIPOS>MOLECULE
VANKED
    68    73     1
SMALL
NO_CHARGES
****
Generated from CSD

@<TRIPOS>ATOM
      1 C1         7.3916    2.0261    8.4131 C.ar      1 RES1    0.0000
      2 O1        14.0384    1.2506   10.2024 O.2       1 RES1    0.0000
      3 C2         5.5016    0.8615    6.4069 C.ar      1 RES1    0.0000
      4 H1         5.7164    0.4680    7.2441 H         1 RES1    0.0000
      5 C3         4.1891    0.8562    5.9610 C.ar      1 RES1    0.0000
      6 H2         3.5114    0.4751    6.5078 H         1 RES1    0.0000
      7 C4         8.9147    1.3082    4.9386 C.ar      1 RES1    0.0000
      8 O2         3.9289    4.1489   11.2049 O.2       1 RES1    0.0000
      9 C5         6.5187    1.4420    5.6365 C.ar      1 RES1    0.0000
     10 C6         9.9284    2.2477    4.7815 C.ar      1 RES1    0.0000
     11 H3        10.0562    2.9116    5.4495 H         1 RES1    0.0000
     12 C7         7.2932    1.3011    9.5990 C.ar      1 RES1    0.0000
     13 H4         7.8501    0.5442    9.7360 H         1 RES1    0.0000
     14 C8         4.8533    1.9783    3.9463 C.ar      1 RES1    0.0000
     15 H5         4.6383    2.3629    3.1052 H         1 RES1    0.0000
     16 C9         8.3376    1.5821    7.3509 C.2       1 RES1    0.0000
     17 N1        12.7820    1.5901   -1.0056 N.ar      1 RES1    0.0000
     18 C10        3.8493    1.3995    4.7249 C.ar      1 RES1    0.0000
     19 C11        6.6070    3.1713    8.2417 C.ar      1 RES1    0.0000
     20 H6         6.6958    3.6853    7.4471 H         1 RES1    0.0000
     21 N2        13.6676    0.6382    9.2136 N.pl3     1 RES1    0.0000
     22 C12        7.9391    1.4341    6.0584 C.2       1 RES1    0.0000
     23 C13        9.7295    1.3313    7.8108 C.ar      1 RES1    0.0000
     24 C14        6.1577    1.9898    4.4016 C.ar      1 RES1    0.0000
     25 H7         6.8318    2.3824    3.8579 H         1 RES1    0.0000
     26 C15       10.5797    1.2621    2.6761 C.ar      1 RES1    0.0000
     27 N3         4.6354    3.1748   11.3959 N.pl3     1 RES1    0.0000
     28 C16       10.7516    2.2326    3.6686 C.ar      1 RES1    0.0000
     29 H8        11.4359    2.8841    3.5790 H         1 RES1    0.0000
     30 O3        14.3634   -0.1462    8.5973 O.2       1 RES1    0.0000
     31 C17       11.3734    1.3250    1.4242 C.ar      1 RES1    0.0000
     32 C18        8.7694    0.3182    3.9637 C.ar      1 RES1    0.0000
     33 H9         8.0959   -0.3448    4.0630 H         1 RES1    0.0000
     34 C19       10.2781    2.1130    8.8192 C.ar      1 RES1    0.0000
     35 H10        9.7604    2.8150    9.1966 H         1 RES1    0.0000
     36 C20       10.4976    0.2765    7.2935 C.ar      1 RES1    0.0000
     37 H11       10.1313   -0.2907    6.6247 H         1 RES1    0.0000
     38 C21        6.3878    1.6787   10.5818 C.ar      1 RES1    0.0000
     39 H12        6.3110    1.1806   11.3871 H         1 RES1    0.0000
     40 C22        2.4630    1.3029    4.2170 C.ar      1 RES1    0.0000
     41 C23        5.6029    2.7892   10.3634 C.ar      1 RES1    0.0000
     42 C24        9.5981    0.2943    2.8511 C.ar      1 RES1    0.0000
     43 H13        9.4913   -0.3918    2.2028 H         1 RES1    0.0000
     44 C25       12.2962    0.8713    8.7282 C.ar      1 RES1    0.0000
     45 C26        5.6984    3.5666    9.2198 C.ar      1 RES1    0.0000
     46 H14        5.1625    4.3421    9.1064 H         1 RES1    0.0000
     47 C27       12.6923    1.7398    1.3936 C.ar      1 RES1    0.0000
     48 H15       13.1467    1.9499    2.2007 H         1 RES1    0.0000
     49 C28       11.5617    1.8914    9.2885 C.ar      1 RES1    0.0000
     50 H16       11.9285    2.4303    9.9801 H         1 RES1    0.0000
     51 O4         4.5753    2.4906   12.4041 O.2       1 RES1    0.0000
     52 C29       11.7863    0.0567    7.7494 C.ar      1 RES1    0.0000
     53 H17       12.3085   -0.6488    7.3897 H         1 RES1    0.0000
     54 C30       10.7745    1.0361    0.1946 C.ar      1 RES1    0.0000
     55 H18        9.8728    0.7365    0.1559 H         1 RES1    0.0000
     56 C31       11.5138    1.1930   -0.9625 C.ar      1 RES1    0.0000
     57 H19       11.0829    1.0033   -1.7885 H         1 RES1    0.0000
     58 C32       13.3447    1.8462    0.1659 C.ar      1 RES1    0.0000
     59 H20       14.2529    2.1201    0.1702 H         1 RES1    0.0000
     60 C33        2.2157    1.0609    2.8636 C.ar      1 RES1    0.0000
     61 H21        2.9374    1.0042    2.2479 H         1 RES1    0.0000
     62 C34        1.3711    1.4048    5.0596 C.ar      1 RES1    0.0000
     63 H22        1.4802    1.5812    5.9868 H         1 RES1    0.0000
     64 N4        -0.1293    0.9936    3.2282 N.ar      1 RES1    0.0000
     65 C35        0.1031    1.2408    4.5019 C.ar      1 RES1    0.0000
     66 H23       -0.6454    1.3126    5.0823 H         1 RES1    0.0000
     67 C36        0.9260    0.9076    2.4304 C.ar      1 RES1    0.0000
     68 H24        0.7811    0.7286    1.5075 H         1 RES1    0.0000
@<TRIPOS>BOND
     1    1   12 ar
     2    2   21 2
     3    3    4 1
     4    5    3 ar
     5    6    5 1
     6    7   10 ar
     7    8   27 2
     8    9    3 ar
     9   10   11 1
    10   12   13 1
    11   14   15 1
    12   16    1 1
    13   17   56 ar
    14   18    5 ar
    15   19    1 ar
    16   20   19 1
    17   21   30 2
    18   22    7 1
    19   23   16 1
    20   24    9 ar
    21   25   24 1
    22   26   28 ar
    23   27   41 1
    24   28   10 ar
    25   29   28 1
    26   31   26 1
    27   32    7 ar
    28   33   32 1
    29   34   23 ar
    30   35   34 1
    31   36   23 ar
    32   37   36 1
    33   38   12 ar
    34   39   38 1
    35   40   18 1
    36   41   38 ar
    37   42   26 ar
    38   43   42 1
    39   44   21 1
    40   45   19 ar
    41   46   45 1
    42   47   31 ar
    43   48   47 1
    44   49   34 ar
    45   50   49 1
    46   51   27 2
    47   52   36 ar
    48   53   52 1
    49   54   31 ar
    50   55   54 1
    51   56   54 ar
    52   57   56 1
    53   58   17 ar
    54   59   58 1
    55   60   40 ar
    56   61   60 1
    57   62   40 ar
    58   63   62 1
    59   64   65 ar
    60   65   62 ar
    61   66   65 1
    62   67   60 ar
    63   68   67 1
    64    9   22 1
    65   14   18 ar
    66   14   24 ar
    67   16   22 2
    68   32   42 ar
    69   41   45 ar
    70   44   49 ar
    71   44   52 ar
    72   47   58 ar
    73   64   67 ar
@<TRIPOS>SUBSTRUCTURE
     1 RES1 1

@<TRIPOS>CRYSIN
  38.1420    8.8632   25.0220  90.0000 124.9480  90.0000  15 1

