# MOL2 file generated by ConQuest
# Please check atom types

@<TRIPOS>MOLECULE
VANNOQ
    44    43     1
SMALL
NO_CHARGES
****
Generated from CSD

@<TRIPOS>ATOM
      1 O1         2.7730    5.2467    2.7927 O.3       1 RES1    0.0000
      2 N1         3.5527    6.0295    3.6572 N.am      1 RES1    0.0000
      3 C1         1.4467    5.8065    2.6727 C.3       1 RES1    0.0000
      4 H1         0.8977    5.2271    2.1031 H         1 RES1    0.0000
      5 H2         1.5036    6.6985    2.2712 H         1 RES1    0.0000
      6 H3         1.0382    5.8728    3.5608 H         1 RES1    0.0000
      7 O2         4.8294    6.1575    5.4708 O.2       1 RES1    0.0000
      8 C2         4.0841    7.2365    3.0604 C.3       1 RES1    0.0000
      9 H4         4.6823    7.6804    3.6970 H         1 RES1    0.0000
     10 H5         3.3460    7.8396    2.8313 H         1 RES1    0.0000
     11 H6         4.5833    7.0070    2.2483 H         1 RES1    0.0000
     12 O3         3.7786    2.6423    7.2302 O.3       1 RES1    0.0000
     13 H7         4.4981    2.2111    7.1865 H         1 RES1    0.0000
     14 C3         4.0025    5.5104    4.8204 C.2       1 RES1    0.0000
     15 C4         3.5467    4.1211    5.2970 C.3       1 RES1    0.0000
     16 O4         5.0221    4.9100    9.2955 O.2       1 RES1    0.0000
     17 C5         2.0296    3.8725    5.2139 C.3       1 RES1    0.0000
     18 H8         1.7813    3.1564    5.8345 H         1 RES1    0.0000
     19 H9         1.7911    3.6103    4.3005 H         1 RES1    0.0000
     20 H10        1.5502    4.6931    5.4539 H         1 RES1    0.0000
     21 O5         2.9156    5.3648    9.9729 O.3       1 RES1    0.0000
     22 C6         4.3047    3.0867    4.4428 C.3       1 RES1    0.0000
     23 H11        4.0565    2.1824    4.7282 H         1 RES1    0.0000
     24 H12        5.2699    3.2128    4.5576 H         1 RES1    0.0000
     25 H13        4.0695    3.2068    3.4997 H         1 RES1    0.0000
     26 C7         3.8492    5.0340    9.0620 C.2       1 RES1    0.0000
     27 C8         3.9966    3.9829    6.7758 C.3       1 RES1    0.0000
     28 H14        4.9697    4.2016    6.8479 H         1 RES1    0.0000
     29 C9         3.2065    4.8918    7.7061 C.3       1 RES1    0.0000
     30 H15        3.1256    5.7868    7.2909 H         1 RES1    0.0000
     31 H16        2.2934    4.5260    7.8180 H         1 RES1    0.0000
     32 C10        3.2776    5.7235   11.3543 C.3       1 RES1    0.0000
     33 C11        3.9551    4.5586   12.0520 C.3       1 RES1    0.0000
     34 H17        4.0808    4.7732   12.9994 H         1 RES1    0.0000
     35 H18        4.8268    4.3915   11.6372 H         1 RES1    0.0000
     36 H19        3.3959    3.7576   11.9695 H         1 RES1    0.0000
     37 C12        1.9280    6.0023   11.9797 C.3       1 RES1    0.0000
     38 H20        2.0438    6.2001   12.9319 H         1 RES1    0.0000
     39 H21        1.3513    5.2172   11.8765 H         1 RES1    0.0000
     40 H22        1.5145    6.7716   11.5341 H         1 RES1    0.0000
     41 C13        4.1385    6.9704   11.3411 C.3       1 RES1    0.0000
     42 H23        4.3509    7.2305   12.2623 H         1 RES1    0.0000
     43 H24        3.6517    7.6982   10.9001 H         1 RES1    0.0000
     44 H25        4.9685    6.7894   10.8530 H         1 RES1    0.0000
@<TRIPOS>BOND
     1    1    2 1
     2    2    8 1
     3    3    1 1
     4    4    3 1
     5    5    3 1
     6    6    3 1
     7    7   14 2
     8    8    9 1
     9   10    8 1
    10   11    8 1
    11   12   13 1
    12   14    2 1
    13   15   14 1
    14   16   26 2
    15   17   15 1
    16   18   17 1
    17   19   17 1
    18   20   17 1
    19   21   26 1
    20   22   15 1
    21   23   22 1
    22   24   22 1
    23   25   22 1
    24   26   29 1
    25   27   12 1
    26   28   27 1
    27   29   27 1
    28   30   29 1
    29   31   29 1
    30   32   21 1
    31   33   32 1
    32   34   33 1
    33   35   33 1
    34   36   33 1
    35   37   32 1
    36   38   37 1
    37   39   37 1
    38   40   37 1
    39   41   32 1
    40   42   41 1
    41   43   41 1
    42   44   41 1
    43   15   27 1
@<TRIPOS>SUBSTRUCTURE
     1 RES1 1

@<TRIPOS>CRYSIN
   5.9353    9.8885   12.7628  90.0000  94.0600  90.0000   4 1

