# MOL2 file generated by ConQuest
# Please check atom types

@<TRIPOS>MOLECULE
VAQMIL
    51    52     1
SMALL
NO_CHARGES
****
Generated from CSD

@<TRIPOS>ATOM
      1 C1         7.2508    6.8236    9.9042 C.ar      1 RES1    0.0000
      2 C2         8.4080    7.3973    9.4663 C.ar      1 RES1    0.0000
      3 H1         8.9252    7.9076   10.0482 H         1 RES1    0.0000
      4 C3         8.8230    7.2135    8.1188 C.ar      1 RES1    0.0000
      5 C4         7.9700    6.4476    7.3256 C.ar      1 RES1    0.0000
      6 C5         6.7927    5.8920    7.8202 C.ar      1 RES1    0.0000
      7 H2         6.2470    5.3924    7.2551 H         1 RES1    0.0000
      8 C6         6.4277    6.0734    9.1233 C.ar      1 RES1    0.0000
      9 H3         5.6484    5.6983    9.4632 H         1 RES1    0.0000
     10 C7        10.0440    7.7634    7.6379 C.1       1 RES1    0.0000
     11 C8        11.0667    8.2621    7.3822 C.1       1 RES1    0.0000
     12 C9        12.3078    8.8846    7.0331 C.ar      1 RES1    0.0000
     13 C10       12.7018    9.0602    5.7055 C.ar      1 RES1    0.0000
     14 C11       13.8908    9.7024    5.4100 C.ar      1 RES1    0.0000
     15 H4        14.1524    9.8112    4.5249 H         1 RES1    0.0000
     16 C12       14.6924   10.1822    6.4344 C.ar      1 RES1    0.0000
     17 H5        15.4793   10.6339    6.2307 H         1 RES1    0.0000
     18 C13       14.3329    9.9950    7.7482 C.ar      1 RES1    0.0000
     19 H6        14.8812   10.3075    8.4296 H         1 RES1    0.0000
     20 C14       13.1604    9.3446    8.0499 C.ar      1 RES1    0.0000
     21 H7        12.9292    9.2061    8.9395 H         1 RES1    0.0000
     22 C15       11.6767    9.0692    3.4591 C.2       1 RES1    0.0000
     23 C16       10.5536    8.7098    1.2939 C.3       1 RES1    0.0000
     24 H8        10.4983    9.6776    1.2694 H         1 RES1    0.0000
     25 H9         9.6709    8.3545    1.1056 H         1 RES1    0.0000
     26 C17       11.5211    8.2374    0.2297 C.3       1 RES1    0.0000
     27 H10       11.6013    7.2712    0.2741 H         1 RES1    0.0000
     28 H11       12.3957    8.6191    0.3981 H         1 RES1    0.0000
     29 C18       11.0530    8.6405   -1.1653 C.3       1 RES1    0.0000
     30 H12       10.7781    9.5705   -1.1530 H         1 RES1    0.0000
     31 H13       10.2824    8.1047   -1.4103 H         1 RES1    0.0000
     32 C19       12.2799    8.4328   -2.3444 C.3       1 RES1    0.0000
     33 H14       12.1101    8.9686   -3.1345 H         1 RES1    0.0000
     34 H15       13.1562    8.6521   -1.9906 H         1 RES1    0.0000
     35 C20       12.1687    7.1434   -2.6001 C.3       1 RES1    0.0000
     36 H16       11.3024    6.9126   -2.9707 H         1 RES1    0.0000
     37 H17       12.3528    6.5944   -1.8207 H         1 RES1    0.0000
     38 C21       13.4304    7.0692   -3.7730 C.3       1 RES1    0.0000
     39 H18       13.5189    6.1682   -4.0915 H         1 RES1    0.0000
     40 H19       14.2566    7.3487   -3.3718 H         1 RES1    0.0000
     41 H20       13.2192    7.6488   -4.5080 H         1 RES1    0.0000
     42 N1         6.8334    6.9868   11.3206 N.pl3     1 RES1    0.0000
     43 N2        11.8683    8.5400    4.7025 N.am      1 RES1    0.0000
     44 H21       11.4363    7.8194    4.8893 H         1 RES1    0.0000
     45 N3        10.9654    8.2877    2.6261 N.am      1 RES1    0.0000
     46 H22       10.7418    7.5012    2.8941 H         1 RES1    0.0000
     47 O1         5.8962    6.3784   11.7433 O.2       1 RES1    0.0000
     48 O2         7.5405    7.7164   12.0112 O.2       1 RES1    0.0000
     49 O3         8.2425    6.1756    6.0056 O.3       1 RES1    0.0000
     50 H23        8.9383    6.5515    5.7866 H         1 RES1    0.0000
     51 O4        12.1187   10.1797    3.1152 O.2       1 RES1    0.0000
@<TRIPOS>BOND
     1    1    2 ar
     2    2    3 1
     3    4    2 ar
     4    5    4 ar
     5    6    5 ar
     6    7    6 1
     7    8    1 ar
     8    9    8 1
     9   10    4 1
    10   11   10 3
    11   12   11 1
    12   13   12 ar
    13   14   13 ar
    14   15   14 1
    15   16   14 ar
    16   17   16 1
    17   18   16 ar
    18   19   18 1
    19   20   12 ar
    20   21   20 1
    21   22   43 1
    22   23   24 1
    23   25   23 1
    24   26   23 1
    25   27   26 1
    26   28   26 1
    27   29   26 1
    28   30   29 1
    29   31   29 1
    30   32   29 1
    31   33   32 1
    32   34   32 1
    33   35   32 1
    34   36   35 1
    35   37   35 1
    36   38   35 1
    37   39   38 1
    38   40   38 1
    39   41   38 1
    40   42    1 1
    41   43   13 1
    42   44   43 1
    43   45   22 1
    44   46   45 1
    45   47   42 2
    46   48   42 2
    47   49    5 1
    48   50   49 1
    49   51   22 2
    50    6    8 ar
    51   18   20 ar
    52   23   45 1
@<TRIPOS>SUBSTRUCTURE
     1 RES1 1

@<TRIPOS>CRYSIN
  15.3236    8.2440   15.3372  90.0000  93.2430  90.0000 231 1

