# MOL2 file generated by ConQuest
# Please check atom types

@<TRIPOS>MOLECULE
VAQPEJ
    55    57     1
SMALL
NO_CHARGES
****
Generated from CSD

@<TRIPOS>ATOM
      1 O1         6.8615    1.7987    1.7064 O.3       1 RES1    0.0000
      2 O2         6.5197    0.3718   -0.0171 O.2       1 RES1    0.0000
      3 O3         9.8131   -1.8350    2.4679 O.3       1 RES1    0.0000
      4 O4         7.6296   -1.3127    2.4279 O.2       1 RES1    0.0000
      5 O5         0.9277   -1.9855    1.7195 O.2       1 RES1    0.0000
      6 O6         2.3269   -2.1861    0.1257 O.2       1 RES1    0.0000
      7 O7         3.4197    2.7655    4.8272 O.2       1 RES1    0.0000
      8 O8         1.6534    1.4649    5.0215 O.2       1 RES1    0.0000
      9 O9        11.7390   -4.7924   -0.7484 O.2       1 RES1    0.0000
     10 O10       10.5973   -5.4877   -2.4279 O.2       1 RES1    0.0000
     11 O11        5.2324   -2.5164   -1.7195 O.2       1 RES1    0.0000
     12 O12        6.1520   -3.8481   -3.1591 O.2       1 RES1    0.0000
     13 N1         1.9644   -1.7278    1.1882 N.pl3     1 RES1    0.0000
     14 N2         2.7141    1.8056    4.5016 N.pl3     1 RES1    0.0000
     15 N3        10.7167   -4.8461   -1.3939 N.pl3     1 RES1    0.0000
     16 N4         6.1580   -3.2030   -2.1023 N.pl3     1 RES1    0.0000
     17 C1         8.1999    2.1307    1.2225 C.3       1 RES1    0.0000
     18 C2         8.9648    2.5406    2.4565 C.3       1 RES1    0.0000
     19 C3         9.1127    1.3992    3.4333 C.3       1 RES1    0.0000
     20 C4        10.2562    0.4099    3.3076 C.3       1 RES1    0.0000
     21 C5        10.0779   -0.9945    3.6447 C.3       1 RES1    0.0000
     22 C6         8.0788    3.2653    0.2057 C.3       1 RES1    0.0000
     23 C7        10.2650    1.4216    4.4102 C.3       1 RES1    0.0000
     24 C8         6.1682    0.9149    1.0226 C.2       1 RES1    0.0000
     25 C9         4.8744    0.5604    1.7024 C.ar      1 RES1    0.0000
     26 C10        4.0776   -0.4272    1.1711 C.ar      1 RES1    0.0000
     27 C11        2.8570   -0.6901    1.7309 C.ar      1 RES1    0.0000
     28 C12        2.3756    0.0138    2.8563 C.ar      1 RES1    0.0000
     29 C13        3.2062    0.9824    3.3476 C.ar      1 RES1    0.0000
     30 C14        4.4496    1.3110    2.7992 C.ar      1 RES1    0.0000
     31 C15        8.5909   -1.8609    1.9595 C.2       1 RES1    0.0000
     32 C16        8.5308   -2.6513    0.6798 C.ar      1 RES1    0.0000
     33 C17        9.6485   -3.3950    0.2685 C.ar      1 RES1    0.0000
     34 C18        9.5235   -4.0972   -0.9540 C.ar      1 RES1    0.0000
     35 C19        8.4007   -4.0488   -1.7024 C.ar      1 RES1    0.0000
     36 C20        7.3443   -3.3206   -1.2568 C.ar      1 RES1    0.0000
     37 C21        7.3842   -2.6323   -0.0457 C.ar      1 RES1    0.0000
     38 H1         8.6690    1.3836    0.7541 H         1 RES1    0.0000
     39 H2         8.4810    3.2861    2.9078 H         1 RES1    0.0000
     40 H3         9.8747    2.8537    2.1880 H         1 RES1    0.0000
     41 H4         8.2506    1.0204    3.7818 H         1 RES1    0.0000
     42 H5        10.8942    0.5880    2.5650 H         1 RES1    0.0000
     43 H6        10.9068   -1.3317    4.0903 H         1 RES1    0.0000
     44 H7         9.3087   -1.0723    4.2788 H         1 RES1    0.0000
     45 H8         8.9838    3.5109   -0.1314 H         1 RES1    0.0000
     46 H9         7.5009    2.9747   -0.5541 H         1 RES1    0.0000
     47 H10        7.6629    4.0643    0.6455 H         1 RES1    0.0000
     48 H11       10.1151    1.1242    5.3585 H         1 RES1    0.0000
     49 H12       10.9262    2.1792    4.3931 H         1 RES1    0.0000
     50 H13        4.3875   -0.9512    0.3770 H         1 RES1    0.0000
     51 H14        1.4840   -0.1902    3.2677 H         1 RES1    0.0000
     52 H15        5.0087    2.0408    3.1763 H         1 RES1    0.0000
     53 H16       10.4836   -3.4244    0.8169 H         1 RES1    0.0000
     54 H17        8.3497   -4.5486   -2.5764 H         1 RES1    0.0000
     55 H18        6.5815   -2.1273    0.2856 H         1 RES1    0.0000
@<TRIPOS>BOND
     1    1   17 1
     2    2   24 2
     3    3   21 1
     4    4   31 2
     5    5   13 2
     6    6   13 2
     7    7   14 2
     8    8   14 2
     9    9   15 2
    10   10   15 2
    11   11   16 2
    12   12   16 2
    13   13   27 1
    14   14   29 1
    15   15   34 1
    16   16   36 1
    17   17   18 1
    18   18   19 1
    19   19   20 1
    20   20   21 1
    21   21   43 1
    22   22   17 1
    23   23   19 1
    24   24    1 1
    25   25   24 1
    26   26   25 ar
    27   27   26 ar
    28   28   27 ar
    29   29   28 ar
    30   30   25 ar
    31   31    3 1
    32   32   31 1
    33   33   32 ar
    34   34   33 ar
    35   35   34 ar
    36   36   35 ar
    37   37   32 ar
    38   38   17 1
    39   39   18 1
    40   40   18 1
    41   41   19 1
    42   42   20 1
    43   44   21 1
    44   45   22 1
    45   46   22 1
    46   47   22 1
    47   48   23 1
    48   49   23 1
    49   50   26 1
    50   51   28 1
    51   52   30 1
    52   53   33 1
    53   54   35 1
    54   55   37 1
    55   20   23 1
    56   29   30 ar
    57   36   37 ar
@<TRIPOS>SUBSTRUCTURE
     1 RES1 1

@<TRIPOS>CRYSIN
  11.7760   17.2950    5.7940  90.0000  99.6100  90.0000   4 1

