# MOL2 file generated by ConQuest
# Please check atom types

@<TRIPOS>MOLECULE
VARJAZ
    42    45     1
SMALL
NO_CHARGES
****
Generated from CSD

@<TRIPOS>ATOM
      1 N1         0.1495    2.5414    2.9641 N.3       1 RES1    0.0000
      2 C1        -0.4737    1.4204    2.5457 C.2       1 RES1    0.0000
      3 N2        -0.0200    0.2101    2.7026 N.2       1 RES1    0.0000
      4 C2         1.2198    0.0218    3.3133 C.2       1 RES1    0.0000
      5 C3         3.0943    1.0285    4.6545 C.ar      1 RES1    0.0000
      6 C4         3.7033    2.1572    5.1860 C.ar      1 RES1    0.0000
      7 C5         3.1217    3.3925    5.0358 C.ar      1 RES1    0.0000
      8 C6         1.9446    3.5438    4.3121 C.ar      1 RES1    0.0000
      9 C7         1.3400    2.4119    3.7368 C.ar      1 RES1    0.0000
     10 C8         1.8970    1.1635    3.9122 C.ar      1 RES1    0.0000
     11 C9        -0.1846    3.8747    2.4378 C.3       1 RES1    0.0000
     12 C10        0.8356    4.3427    1.4424 C.ar      1 RES1    0.0000
     13 C11        1.3435    5.6107    1.5065 C.ar      1 RES1    0.0000
     14 C12        2.2666    6.0646    0.5483 C.ar      1 RES1    0.0000
     15 C13        2.6675    5.2178   -0.4690 C.ar      1 RES1    0.0000
     16 C14        2.1426    3.9542   -0.5635 C.ar      1 RES1    0.0000
     17 C15        1.2262    3.5003    0.3914 C.ar      1 RES1    0.0000
     18 C16       -1.7849    1.5423    1.8439 C.ar      1 RES1    0.0000
     19 C17       -2.8788    2.1322    2.4546 C.ar      1 RES1    0.0000
     20 C18       -4.0936    2.2116    1.7680 C.ar      1 RES1    0.0000
     21 C19       -4.2053    1.7164    0.4808 C.ar      1 RES1    0.0000
     22 C20       -3.1221    1.1232   -0.1147 C.ar      1 RES1    0.0000
     23 C21       -1.9054    1.0144    0.5618 C.ar      1 RES1    0.0000
     24 N3         1.7453   -1.1494    3.3656 N.2       1 RES1    0.0000
     25 O1         0.9468   -2.1267    2.7718 O.3       1 RES1    0.0000
     26 H1         3.4961    0.1088    4.8081 H         1 RES1    0.0000
     27 H2         4.5791    2.0680    5.6853 H         1 RES1    0.0000
     28 H3         3.5504    4.2121    5.4491 H         1 RES1    0.0000
     29 H4         1.5256    4.4516    4.2007 H         1 RES1    0.0000
     30 H5        -0.2135    4.5386    3.2054 H         1 RES1    0.0000
     31 H6        -1.0885    3.8421    1.9907 H         1 RES1    0.0000
     32 H7         1.0549    6.2256    2.2438 H         1 RES1    0.0000
     33 H8         2.6294    7.0093    0.6073 H         1 RES1    0.0000
     34 H9         3.3464    5.5400   -1.1472 H         1 RES1    0.0000
     35 H10        2.4299    3.3523   -1.3159 H         1 RES1    0.0000
     36 H11        0.8463    2.5686    0.3205 H         1 RES1    0.0000
     37 H12       -2.8039    2.5033    3.3909 H         1 RES1    0.0000
     38 H13       -4.9013    2.6230    2.2269 H         1 RES1    0.0000
     39 H14       -5.0777    1.8067   -0.0169 H         1 RES1    0.0000
     40 H15       -3.2075    0.7619   -1.0460 H         1 RES1    0.0000
     41 H16       -1.1193    0.5551    0.1181 H         1 RES1    0.0000
     42 H17        0.1564   -1.9003    2.4057 H         1 RES1    0.0000
@<TRIPOS>BOND
     1    1    2 1
     2    2    3 2
     3    3    4 1
     4    4   10 1
     5    5    6 ar
     6    6    7 ar
     7    7    8 ar
     8    8    9 ar
     9    9    1 1
    10   10    5 ar
    11   11    1 1
    12   12   11 1
    13   13   12 ar
    14   14   13 ar
    15   15   14 ar
    16   16   15 ar
    17   17   12 ar
    18   18    2 1
    19   19   18 ar
    20   20   19 ar
    21   21   20 ar
    22   22   21 ar
    23   23   18 ar
    24   24    4 2
    25   25   24 1
    26   26    5 1
    27   27    6 1
    28   28    7 1
    29   29    8 1
    30   30   11 1
    31   31   11 1
    32   32   13 1
    33   33   14 1
    34   34   15 1
    35   35   16 1
    36   36   17 1
    37   37   19 1
    38   38   20 1
    39   39   21 1
    40   40   22 1
    41   41   23 1
    42   42   25 1
    43    9   10 ar
    44   16   17 ar
    45   22   23 ar
@<TRIPOS>SUBSTRUCTURE
     1 RES1 1

@<TRIPOS>CRYSIN
   9.1520   10.8840   16.9560  90.0000  95.7600  90.0000  14 1

