# MOL2 file generated by ConQuest
# Please check atom types

@<TRIPOS>MOLECULE
VASFIE
    30    30     1
SMALL
NO_CHARGES
****
Generated from CSD

@<TRIPOS>ATOM
      1 O1         9.8288    0.1985    1.3875 O.2       1 RES1    0.0000
      2 O2         8.0480    1.8039   -0.5021 O.2       1 RES1    0.0000
      3 O3         7.2759    0.3735   -1.9091 O.2       1 RES1    0.0000
      4 O4        12.4611    2.6396   -1.5780 O.3       1 RES1    0.0000
      5 N1         8.1297    0.7522   -1.1152 N.pl3     1 RES1    0.0000
      6 C1        10.1746    0.5090    0.2287 C.2       1 RES1    0.0000
      7 C2         9.3676   -0.1457   -0.9115 C.3       1 RES1    0.0000
      8 C3        10.1266   -0.1465   -2.2249 C.3       1 RES1    0.0000
      9 C4        10.7703    1.1989   -2.5288 C.3       1 RES1    0.0000
     10 C5        11.5059    1.7475   -1.3472 C.2       1 RES1    0.0000
     11 C6        11.2330    1.4135   -0.0566 C.2       1 RES1    0.0000
     12 C7         8.8372   -1.5278   -0.5119 C.3       1 RES1    0.0000
     13 C8         9.9355   -2.5231   -0.2374 C.3       1 RES1    0.0000
     14 C9        11.9907    2.0485    1.0825 C.3       1 RES1    0.0000
     15 C10       13.1550    1.2165    1.5552 C.3       1 RES1    0.0000
     16 H1        12.5412    2.8197   -2.2870 H         1 RES1    0.0000
     17 H2         9.5319   -0.4175   -2.9296 H         1 RES1    0.0000
     18 H3        10.8543   -0.8203   -2.2217 H         1 RES1    0.0000
     19 H4        11.4192    1.1206   -3.2672 H         1 RES1    0.0000
     20 H5        10.1674    1.8530   -2.8533 H         1 RES1    0.0000
     21 H6         8.1928   -1.4209    0.2505 H         1 RES1    0.0000
     22 H7         8.2443   -1.8676   -1.1762 H         1 RES1    0.0000
     23 H8        10.6049   -2.2411    0.4356 H         1 RES1    0.0000
     24 H9         9.5584   -3.2958   -0.0109 H         1 RES1    0.0000
     25 H10       10.4815   -2.7245   -0.9910 H         1 RES1    0.0000
     26 H11       11.3791    2.1972    1.7969 H         1 RES1    0.0000
     27 H12       12.3457    2.9516    0.8930 H         1 RES1    0.0000
     28 H13       13.5937    1.5966    2.2761 H         1 RES1    0.0000
     29 H14       13.7697    0.9814    0.9801 H         1 RES1    0.0000
     30 H15       12.8085    0.3003    1.8732 H         1 RES1    0.0000
@<TRIPOS>BOND
     1    1    6 2
     2    2    5 2
     3    3    5 2
     4    4   10 1
     5    5    7 1
     6    6    7 1
     7    7    8 1
     8    8    9 1
     9    9   10 1
    10   10   11 2
    11   11    6 1
    12   12    7 1
    13   13   12 1
    14   14   11 1
    15   15   14 1
    16   16    4 1
    17   17    8 1
    18   18    8 1
    19   19    9 1
    20   20    9 1
    21   21   12 1
    22   22   12 1
    23   23   13 1
    24   24   13 1
    25   25   13 1
    26   26   14 1
    27   27   14 1
    28   28   15 1
    29   29   15 1
    30   30   15 1
@<TRIPOS>SUBSTRUCTURE
     1 RES1 1

@<TRIPOS>CRYSIN
  13.4550    7.3240   12.1220  90.0000 116.0500  90.0000  14 1

