# MOL2 file generated by ConQuest
# Please check atom types

@<TRIPOS>MOLECULE
VASFUQ
    34    35     1
SMALL
NO_CHARGES
****
Generated from CSD

@<TRIPOS>ATOM
      1 O1         3.0768    1.9231    5.8062 O.2       1 RES1    0.0000
      2 O2         4.7357    2.7148    8.1534 O.2       1 RES1    0.0000
      3 O3         2.8736    2.9999    9.2047 O.2       1 RES1    0.0000
      4 O4         5.8034   -1.4766    5.7306 O.2       1 RES1    0.0000
      5 N1         3.6129    2.3498    8.4905 N.pl3     1 RES1    0.0000
      6 C1         3.2949    0.9462    6.4856 C.2       1 RES1    0.0000
      7 C2         3.1808    0.9536    8.0160 C.3       1 RES1    0.0000
      8 C3         4.1791   -0.0525    8.6344 C.3       1 RES1    0.0000
      9 C4         5.4330   -0.2826    7.7828 C.3       1 RES1    0.0000
     10 C5         5.0729   -0.7842    6.4055 C.2       1 RES1    0.0000
     11 C6         3.6571   -0.4177    5.9488 C.3       1 RES1    0.0000
     12 C7         3.3315   -0.6475    4.4880 C.3       1 RES1    0.0000
     13 C8         1.8352   -0.5276    4.1845 C.3       1 RES1    0.0000
     14 C9         0.8856   -1.1593    5.2168 C.3       1 RES1    0.0000
     15 C10        0.4319   -0.2504    6.3884 C.3       1 RES1    0.0000
     16 C11        1.0114   -0.5029    7.8091 C.3       1 RES1    0.0000
     17 C12        1.7325    0.6908    8.4596 C.3       1 RES1    0.0000
     18 H1         3.1212   -1.0374    6.4659 H         1 RES1    0.0000
     19 H2         3.6955   -0.8843    8.7132 H         1 RES1    0.0000
     20 H3         4.4400    0.2710    9.5412 H         1 RES1    0.0000
     21 H4         5.9094    0.5622    7.6684 H         1 RES1    0.0000
     22 H5         6.0501   -0.9156    8.2204 H         1 RES1    0.0000
     23 H6         3.6329   -1.5609    4.2712 H         1 RES1    0.0000
     24 H7         3.8851   -0.0359    3.9426 H         1 RES1    0.0000
     25 H8         1.5969    0.4448    4.0675 H         1 RES1    0.0000
     26 H9         1.6900   -0.9636    3.3250 H         1 RES1    0.0000
     27 H10        1.2856   -2.0139    5.5788 H         1 RES1    0.0000
     28 H11        0.0951   -1.4139    4.7509 H         1 RES1    0.0000
     29 H12        0.6243    0.7093    6.1374 H         1 RES1    0.0000
     30 H13       -0.5398   -0.3096    6.4462 H         1 RES1    0.0000
     31 H14        1.5818   -1.3017    7.8130 H         1 RES1    0.0000
     32 H15        0.2421   -0.7109    8.4175 H         1 RES1    0.0000
     33 H16        1.7743    0.5752    9.4426 H         1 RES1    0.0000
     34 H17        1.2074    1.4972    8.2664 H         1 RES1    0.0000
@<TRIPOS>BOND
     1    1    6 2
     2    2    5 2
     3    3    5 2
     4    4   10 2
     5    5    7 1
     6    6    7 1
     7    7    8 1
     8    8    9 1
     9    9   10 1
    10   10   11 1
    11   11    6 1
    12   12   11 1
    13   13   12 1
    14   14   13 1
    15   15   14 1
    16   16   15 1
    17   17    7 1
    18   18   11 1
    19   19    8 1
    20   20    8 1
    21   21    9 1
    22   22    9 1
    23   23   12 1
    24   24   12 1
    25   25   13 1
    26   26   13 1
    27   27   14 1
    28   28   14 1
    29   29   15 1
    30   30   15 1
    31   31   16 1
    32   32   16 1
    33   33   17 1
    34   34   17 1
    35   16   17 1
@<TRIPOS>SUBSTRUCTURE
     1 RES1 1

@<TRIPOS>CRYSIN
   9.3207    9.3720    7.0013 109.9760  90.5160  80.3160   2 1

