# MOL2 file generated by ConQuest
# Please check atom types

@<TRIPOS>MOLECULE
VASKOQ
    40    41     1
SMALL
NO_CHARGES
****
Generated from CSD

@<TRIPOS>ATOM
      1 O1         8.7657    4.4089    7.0454 O.2       1 RES1    0.0000
      2 O2         7.7370    4.7391    8.9114 O.2       1 RES1    0.0000
      3 O3        10.6918   10.0491    2.2322 O.3       1 RES1    0.0000
      4 H1        11.3373    9.4918    2.4276 H         1 RES1    0.0000
      5 N1         8.1112    5.1361    7.8169 N.pl3     1 RES1    0.0000
      6 N2         7.3470   10.3956    6.0609 N.pl3     1 RES1    0.0000
      7 H2         7.5316   10.6078    5.2335 H         1 RES1    0.0000
      8 H3         6.9522   10.9870    6.6010 H         1 RES1    0.0000
      9 C1         7.8179    6.4875    7.3901 C.ar      1 RES1    0.0000
     10 C2         7.2677    7.4498    8.2712 C.ar      1 RES1    0.0000
     11 C3         7.1083    8.7476    7.7891 C.ar      1 RES1    0.0000
     12 H4         6.7312    9.4483    8.3345 H         1 RES1    0.0000
     13 C4         7.4800    9.1145    6.4833 C.ar      1 RES1    0.0000
     14 C5         8.0183    8.1233    5.6184 C.ar      1 RES1    0.0000
     15 C6         8.1693    6.8295    6.0896 C.ar      1 RES1    0.0000
     16 H5         8.5247    6.1229    5.5574 H         1 RES1    0.0000
     17 C7         6.8820    7.1615    9.6169 C.1       1 RES1    0.0000
     18 C8         6.5577    6.9162   10.7448 C.1       1 RES1    0.0000
     19 C9         8.4751    8.4787    4.3064 C.1       1 RES1    0.0000
     20 C10        8.9218    8.8151    3.2427 C.1       1 RES1    0.0000
     21 C11        6.2389    6.3864   12.0389 C.ar      1 RES1    0.0000
     22 C12        6.1540    4.9975   12.1871 C.ar      1 RES1    0.0000
     23 H6         6.2828    4.4526   11.4099 H         1 RES1    0.0000
     24 C13        5.9051    4.4323   13.4319 C.ar      1 RES1    0.0000
     25 H7         5.8668    3.4526   13.4847 H         1 RES1    0.0000
     26 C14        5.7434    5.2459   14.5384 C.ar      1 RES1    0.0000
     27 H8         5.5843    4.8319   15.4177 H         1 RES1    0.0000
     28 C15        5.8277    6.6299   14.4010 C.ar      1 RES1    0.0000
     29 H9         5.7440    7.2050   15.2080 H         1 RES1    0.0000
     30 C16        6.0606    7.2015   13.1595 C.ar      1 RES1    0.0000
     31 H10        6.1267    8.2009   13.0909 H         1 RES1    0.0000
     32 C17        9.5060    9.2717    1.9550 C.3       1 RES1    0.0000
     33 C18        8.5408   10.2222    1.2530 C.3       1 RES1    0.0000
     34 H11        8.8917   10.4637    0.3815 H         1 RES1    0.0000
     35 H12        7.7101    9.7921    1.1053 H         1 RES1    0.0000
     36 H13        8.3913   11.0319    1.7726 H         1 RES1    0.0000
     37 C19        9.8562    8.0836    1.0611 C.3       1 RES1    0.0000
     38 H14       10.1673    8.3903    0.2139 H         1 RES1    0.0000
     39 H15        9.1034    7.4931    0.9367 H         1 RES1    0.0000
     40 H16       10.5879    7.5944    1.4487 H         1 RES1    0.0000
@<TRIPOS>BOND
     1    1    5 2
     2    2    5 2
     3    3    4 1
     4    5    9 1
     5    6    7 1
     6    8    6 1
     7    9   10 ar
     8   10   11 ar
     9   11   12 1
    10   13    6 1
    11   14   13 ar
    12   15    9 ar
    13   16   15 1
    14   17   10 1
    15   18   17 3
    16   19   14 1
    17   20   19 3
    18   21   18 1
    19   22   21 ar
    20   23   22 1
    21   24   22 ar
    22   25   24 1
    23   26   24 ar
    24   27   26 1
    25   28   26 ar
    26   29   28 1
    27   30   21 ar
    28   31   30 1
    29   32    3 1
    30   33   32 1
    31   34   33 1
    32   35   33 1
    33   36   33 1
    34   37   32 1
    35   38   37 1
    36   39   37 1
    37   40   37 1
    38   11   13 ar
    39   14   15 ar
    40   20   32 1
    41   28   30 ar
@<TRIPOS>SUBSTRUCTURE
     1 RES1 1

@<TRIPOS>CRYSIN
   7.5320   10.4860   11.0690  72.4600  72.8300  72.6800   2 1

