# MOL2 file generated by ConQuest
# Please check atom types

@<TRIPOS>MOLECULE
VASLOQ
    46    47     1
SMALL
NO_CHARGES
****
Generated from CSD

@<TRIPOS>ATOM
      1 O1         1.7850    6.4405    1.5244 O.3       1 RES1    0.0000
      2 O2        -0.5967    2.2964    6.0403 O.2       1 RES1    0.0000
      3 O3        -1.5217    4.2449    5.8632 O.2       1 RES1    0.0000
      4 O4        -1.4649    3.4509    3.0403 O.2       1 RES1    0.0000
      5 N1        -0.6625    3.4205    5.5561 N.pl3     1 RES1    0.0000
      6 C1         0.1567    4.9464    2.2062 C.2       1 RES1    0.0000
      7 C2         1.2245    5.7142    2.5208 C.2       1 RES1    0.0000
      8 C3         1.8403    5.7970    3.8886 C.3       1 RES1    0.0000
      9 C4         0.9745    5.1687    4.9763 C.3       1 RES1    0.0000
     10 C5         0.3838    3.8403    4.5159 C.3       1 RES1    0.0000
     11 C6        -0.4146    4.0612    3.2095 C.2       1 RES1    0.0000
     12 C7        -0.5277    4.9491    0.8460 C.3       1 RES1    0.0000
     13 C8        -0.3466    3.6456    0.0537 C.3       1 RES1    0.0000
     14 C9         1.0826    3.3929   -0.4144 C.3       1 RES1    0.0000
     15 C10        1.3943    1.9084   -0.6714 C.3       1 RES1    0.0000
     16 C11        1.3438    1.0467    0.5889 C.3       1 RES1    0.0000
     17 C12        2.4031    1.4016    1.6230 C.3       1 RES1    0.0000
     18 C13        2.1883    0.7567    2.9869 C.3       1 RES1    0.0000
     19 C14        1.0545    1.3864    3.7907 C.3       1 RES1    0.0000
     20 C15        1.4510    2.7618    4.3567 C.3       1 RES1    0.0000
     21 C16        2.7672    7.4541    1.8167 C.3       1 RES1    0.0000
     22 H1         2.0153    6.7526    4.1245 H         1 RES1    0.0000
     23 H2         2.7207    5.3993    3.8368 H         1 RES1    0.0000
     24 H3         1.5297    5.0265    5.7936 H         1 RES1    0.0000
     25 H4         0.2123    5.7860    5.2180 H         1 RES1    0.0000
     26 H5        -1.5543    5.0955    0.9976 H         1 RES1    0.0000
     27 H6        -0.2102    5.7307    0.3261 H         1 RES1    0.0000
     28 H7        -0.6877    2.9137    0.6139 H         1 RES1    0.0000
     29 H8        -0.9725    3.7008   -0.7482 H         1 RES1    0.0000
     30 H9         1.7314    3.7560    0.2686 H         1 RES1    0.0000
     31 H10        1.2827    3.9218   -1.2470 H         1 RES1    0.0000
     32 H11        2.3113    1.7952   -1.0935 H         1 RES1    0.0000
     33 H12        0.7194    1.5604   -1.3429 H         1 RES1    0.0000
     34 H13        1.4191    0.1243    0.3453 H         1 RES1    0.0000
     35 H14        0.4241    1.1185    1.0551 H         1 RES1    0.0000
     36 H15        3.3071    1.1738    1.3045 H         1 RES1    0.0000
     37 H16        2.4509    2.3751    1.7266 H         1 RES1    0.0000
     38 H17        2.0434   -0.2071    2.8392 H         1 RES1    0.0000
     39 H18        3.0296    0.8285    3.5298 H         1 RES1    0.0000
     40 H19        0.2480    1.4914    3.2229 H         1 RES1    0.0000
     41 H20        0.7639    0.8285    4.4890 H         1 RES1    0.0000
     42 H21        2.1035    3.1623    3.7792 H         1 RES1    0.0000
     43 H22        1.8759    2.6375    5.2564 H         1 RES1    0.0000
     44 H23        3.5586    7.0702    2.2829 H         1 RES1    0.0000
     45 H24        2.3765    8.1749    2.3404 H         1 RES1    0.0000
     46 H25        3.0753    7.7883    0.9208 H         1 RES1    0.0000
@<TRIPOS>BOND
     1    1    7 1
     2    2    5 2
     3    3    5 2
     4    4   11 2
     5    5   10 1
     6    6    7 2
     7    7    8 1
     8    8    9 1
     9    9   10 1
    10   10   11 1
    11   11    6 1
    12   12    6 1
    13   13   12 1
    14   14   13 1
    15   15   14 1
    16   16   15 1
    17   17   16 1
    18   18   17 1
    19   19   18 1
    20   20   10 1
    21   21    1 1
    22   22    8 1
    23   23    8 1
    24   24    9 1
    25   25    9 1
    26   26   12 1
    27   27   12 1
    28   28   13 1
    29   29   13 1
    30   30   14 1
    31   31   14 1
    32   32   15 1
    33   33   15 1
    34   34   16 1
    35   35   16 1
    36   36   17 1
    37   37   17 1
    38   38   18 1
    39   39   18 1
    40   40   19 1
    41   41   19 1
    42   42   20 1
    43   43   20 1
    44   44   21 1
    45   45   21 1
    46   46   21 1
    47   19   20 1
@<TRIPOS>SUBSTRUCTURE
     1 RES1 1

@<TRIPOS>CRYSIN
   5.8420   13.8090   19.1960  90.0000  92.0300  90.0000  14 1

