# MOL2 file generated by ConQuest
# Please check atom types

@<TRIPOS>MOLECULE
VASLOT
    45    47     2
SMALL
NO_CHARGES
****
Generated from CSD

@<TRIPOS>ATOM
      1 O1         7.3978    5.7060   -1.8088 O.3       1 RES1    0.0000
      2 O2         4.6971    4.8501    5.9146 O.2       1 RES1    0.0000
      3 O3         7.3340    3.3207    4.5829 O.2       1 RES1    0.0000
      4 O4         7.5982    1.7979    3.0814 O.2       1 RES1    0.0000
      5 N1         5.6309    4.9243    2.5581 N.2       1 RES1    0.0000
      6 N2         5.3482    5.3902    3.8288 N.am      1 RES1    0.0000
      7 H1         5.4471    6.2222    4.0234 H         1 RES1    0.0000
      8 N3         6.9037    2.4517    3.8476 N.pl3     1 RES1    0.0000
      9 C1         7.2630    4.3397   -2.1361 C.ar      1 RES1    0.0000
     10 C2         7.7513    3.9399   -3.3678 C.ar      1 RES1    0.0000
     11 H2         8.0793    4.5650   -3.9737 H         1 RES1    0.0000
     12 C3         7.7412    2.5866   -3.6785 C.ar      1 RES1    0.0000
     13 H3         8.0335    2.3123   -4.5176 H         1 RES1    0.0000
     14 C4         7.3070    1.6340   -2.7707 C.ar      1 RES1    0.0000
     15 H4         7.3081    0.7321   -2.9974 H         1 RES1    0.0000
     16 C5         6.8687    2.0456   -1.5114 C.ar      1 RES1    0.0000
     17 H5         6.6001    1.4109   -0.8867 H         1 RES1    0.0000
     18 C6         6.8302    3.3958   -1.1841 C.ar      1 RES1    0.0000
     19 C7         6.4491    3.8982    0.1316 C.2       1 RES1    0.0000
     20 H6         6.3003    3.3011    0.8292 H         1 RES1    0.0000
     21 C8         6.3139    5.2106    0.3393 C.2       1 RES1    0.0000
     22 C9         6.4748    6.1632   -0.8392 C.3       1 RES1    0.0000
     23 H7         5.6023    6.2098   -1.2825 H         1 RES1    0.0000
     24 C10        6.8298    7.5424   -0.4666 C.3       1 RES1    0.0000
     25 H8         7.7562    7.5595   -0.1791 H         1 RES1    0.0000
     26 H9         6.7546    8.1074   -1.2516 H         1 RES1    0.0000
     27 C11        5.9931    8.0973    0.5970 C.3       1 RES1    0.0000
     28 H10        5.0851    8.1834    0.2676 H         1 RES1    0.0000
     29 H11        6.3135    8.9868    0.8137 H         1 RES1    0.0000
     30 C12        5.9753    7.2659    1.8619 C.3       1 RES1    0.0000
     31 H12        6.7606    7.4893    2.3860 H         1 RES1    0.0000
     32 H13        5.1969    7.5166    2.3826 H         1 RES1    0.0000
     33 C13        5.9503    5.7804    1.6562 C.2       1 RES1    0.0000
     34 C14        4.9166    4.5181    4.7542 C.2       1 RES1    0.0000
     35 C15        4.5724    3.1214    4.3049 C.ar      1 RES1    0.0000
     36 C16        3.2283    2.7584    4.3551 C.ar      1 RES1    0.0000
     37 H14        2.5949    3.3827    4.6282 H         1 RES1    0.0000
     38 C17        2.8273    1.4916    4.0079 C.ar      1 RES1    0.0000
     39 H15        1.9265    1.2666    4.0522 H         1 RES1    0.0000
     40 C18        3.7420    0.5546    3.5977 C.ar      1 RES1    0.0000
     41 H16        3.4607   -0.3005    3.3656 H         1 RES1    0.0000
     42 C19        5.0705    0.8823    3.5303 C.ar      1 RES1    0.0000
     43 H17        5.6966    0.2532    3.2539 H         1 RES1    0.0000
     44 C20        5.4693    2.1574    3.8786 C.ar      1 RES1    0.0000
     45 O5         6.6785    5.3321   -1.9835 Du        2 SUP2    0.0000
@<TRIPOS>BOND
     1    1    9 1
     2    2   34 2
     3    3    8 2
     4    4    8 2
     5    5    6 1
     6    6    7 1
     7    8   44 1
     8    9   10 ar
     9   10   11 1
    10   12   10 ar
    11   13   12 1
    12   14   12 ar
    13   15   14 1
    14   16   14 ar
    15   17   16 1
    16   18    9 ar
    17   19   18 1
    18   20   19 1
    19   21   19 2
    20   22    1 1
    21   23   22 1
    22   24   22 1
    23   25   24 1
    24   26   24 1
    25   27   24 1
    26   28   27 1
    27   29   27 1
    28   30   27 1
    29   31   30 1
    30   32   30 1
    31   33    5 2
    32   34    6 1
    33   35   34 1
    34   36   35 ar
    35   37   36 1
    36   38   36 ar
    37   39   38 1
    38   40   38 ar
    39   41   40 1
    40   42   40 ar
    41   43   42 1
    42   44   35 ar
    43   16   18 ar
    44   21   22 1
    45   21   33 1
    46   30   33 1
    47   42   44 ar
@<TRIPOS>SUBSTRUCTURE
     1 RES1 1
     2 SUP2 45

@<TRIPOS>CRYSIN
   8.0224   10.0791   11.5144  75.7640  80.9940  84.1820   2 1

