# MOL2 file generated by ConQuest
# Please check atom types

@<TRIPOS>MOLECULE
VASNAF
    44    47     1
SMALL
NO_CHARGES
****
Generated from CSD

@<TRIPOS>ATOM
      1 O1         3.5597    3.8063    3.3441 O.3       1 RES1    0.0000
      2 O2         2.7067    2.1910    2.0419 O.2       1 RES1    0.0000
      3 O3         4.9632    5.7962   -3.4116 O.2       1 RES1    0.0000
      4 O4         5.7055    7.3249   -2.0968 O.2       1 RES1    0.0000
      5 N1         5.1429    6.2583   -2.2981 N.pl3     1 RES1    0.0000
      6 C1         4.9757    3.9383    6.2410 C.3       1 RES1    0.0000
      7 C2         3.5699    3.8390    5.7141 C.3       1 RES1    0.0000
      8 C3         2.8756    5.1843    6.0526 C.3       1 RES1    0.0000
      9 H1         3.0221    5.8710    5.3555 H         1 RES1    0.0000
     10 H2         1.9061    5.0762    6.2227 H         1 RES1    0.0000
     11 C4         3.6525    5.4739    7.3187 C.3       1 RES1    0.0000
     12 H3         3.4504    6.3339    7.7871 H         1 RES1    0.0000
     13 C5         3.4548    4.1503    8.1439 C.3       1 RES1    0.0000
     14 H4         4.0839    4.0841    8.9050 H         1 RES1    0.0000
     15 H5         2.5241    4.0435    8.4659 H         1 RES1    0.0000
     16 C6         3.7726    3.2345    7.0955 C.3       1 RES1    0.0000
     17 H6         3.7461    2.2457    7.2419 H         1 RES1    0.0000
     18 C7         5.0813    5.2211    6.9509 C.3       1 RES1    0.0000
     19 C8         6.0324    3.1028    5.7562 C.3       1 RES1    0.0000
     20 H7         6.5281    3.5760    5.0554 H         1 RES1    0.0000
     21 H8         5.6533    2.2776    5.3884 H         1 RES1    0.0000
     22 H9         6.6387    2.8831    6.4935 H         1 RES1    0.0000
     23 C9         5.5038    6.2818    5.8239 C.3       1 RES1    0.0000
     24 H10        4.8407    6.2766    5.1048 H         1 RES1    0.0000
     25 H11        6.3829    6.0397    5.4598 H         1 RES1    0.0000
     26 H12        5.5515    7.1772    6.2191 H         1 RES1    0.0000
     27 C10        6.0714    5.3540    8.0652 C.3       1 RES1    0.0000
     28 H13        6.0084    4.5724    8.6525 H         1 RES1    0.0000
     29 H14        5.8782    6.1654    8.5775 H         1 RES1    0.0000
     30 H15        6.9768    5.4101    7.6920 H         1 RES1    0.0000
     31 C11        3.1507    3.0691    4.5175 C.3       1 RES1    0.0000
     32 H16        3.5752    2.1744    4.5211 H         1 RES1    0.0000
     33 H17        2.1675    2.9485    4.5175 H         1 RES1    0.0000
     34 C12        3.2801    3.2526    2.1590 C.2       1 RES1    0.0000
     35 C13        3.7605    4.0719    1.0173 C.ar      1 RES1    0.0000
     36 C14        3.4393    3.6616   -0.2818 C.ar      1 RES1    0.0000
     37 H18        2.9091    2.8850   -0.4135 H         1 RES1    0.0000
     38 C15        3.8859    4.3742   -1.3723 C.ar      1 RES1    0.0000
     39 H19        3.6672    4.1049   -2.2560 H         1 RES1    0.0000
     40 C16        4.6670    5.4996   -1.1381 C.ar      1 RES1    0.0000
     41 C17        4.9919    5.9358    0.1189 C.ar      1 RES1    0.0000
     42 H20        5.5179    6.7181    0.2379 H         1 RES1    0.0000
     43 C18        4.5450    5.2239    1.1984 C.ar      1 RES1    0.0000
     44 H21        4.7672    5.5103    2.0767 H         1 RES1    0.0000
@<TRIPOS>BOND
     1    1   31 1
     2    2   34 2
     3    3    5 2
     4    4    5 2
     5    5   40 1
     6    6    7 1
     7    7    8 1
     8    8    9 1
     9   10    8 1
    10   11    8 1
    11   12   11 1
    12   13   11 1
    13   14   13 1
    14   15   13 1
    15   16    6 1
    16   17   16 1
    17   18    6 1
    18   19    6 1
    19   20   19 1
    20   21   19 1
    21   22   19 1
    22   23   18 1
    23   24   23 1
    24   25   23 1
    25   26   23 1
    26   27   18 1
    27   28   27 1
    28   29   27 1
    29   30   27 1
    30   31    7 1
    31   32   31 1
    32   33   31 1
    33   34    1 1
    34   35   34 1
    35   36   35 ar
    36   37   36 1
    37   38   36 ar
    38   39   38 1
    39   40   38 ar
    40   41   40 ar
    41   42   41 1
    42   43   35 ar
    43   44   43 1
    44    7   16 1
    45   11   18 1
    46   13   16 1
    47   41   43 ar
@<TRIPOS>SUBSTRUCTURE
     1 RES1 1

@<TRIPOS>CRYSIN
   7.0666    7.0975   18.3293  88.4370  86.5860  62.9070   2 1

