# MOL2 file generated by ConQuest
# Please check atom types

@<TRIPOS>MOLECULE
VATNUA
    15    15     1
SMALL
NO_CHARGES
****
Generated from CSD

@<TRIPOS>ATOM
      1 O1        -0.3817    4.9045    5.4673 O.2       1 RES1    0.0000
      2 N1         0.2725    3.8414    5.9359 N.pl3     1 RES1    0.0000
      3 O2         1.9991    1.1408    3.3829 O.3       1 RES1    0.0000
      4 H1         2.3576    0.5609    2.9277 H         1 RES1    0.0000
      5 C1         0.7999    2.9423    5.0762 C.ar      1 RES1    0.0000
      6 H2         0.7398    3.0831    4.1587 H         1 RES1    0.0000
      7 O3         2.4638   -0.2638    5.0599 O.2       1 RES1    0.0000
      8 C2         0.3611    3.6756    7.2743 C.ar      1 RES1    0.0000
      9 H3        -0.0000    4.3144    7.8460 H         1 RES1    0.0000
     10 C3         1.4307    1.8104    5.5672 C.ar      1 RES1    0.0000
     11 C4         2.0139    0.7795    4.6398 C.2       1 RES1    0.0000
     12 C5         1.5198    1.6142    6.9427 C.ar      1 RES1    0.0000
     13 H4         1.9341    0.8552    7.2844 H         1 RES1    0.0000
     14 C6         0.9845    2.5637    7.7935 C.ar      1 RES1    0.0000
     15 H5         1.0456    2.4510    8.7147 H         1 RES1    0.0000
@<TRIPOS>BOND
     1    1    2 1
     2    2    5 ar
     3    3    4 1
     4    5    6 1
     5    7   11 2
     6    8    2 ar
     7    9    8 1
     8   10    5 ar
     9   11    3 1
    10   12   10 ar
    11   13   12 1
    12   14    8 ar
    13   15   14 1
    14   10   11 1
    15   12   14 ar
@<TRIPOS>SUBSTRUCTURE
     1 RES1 1

@<TRIPOS>CRYSIN
   3.7879   10.6240   14.6740  90.0000  97.4160  90.0000  14 1

