# MOL2 file generated by ConQuest
# Please check atom types

@<TRIPOS>MOLECULE
VAVQEQ
    80    85     1
SMALL
NO_CHARGES
****
Generated from CSD

@<TRIPOS>ATOM
      1 C1         3.9670   -0.6031   14.2323 C.ar      1 RES1    0.0000
      2 C2         3.7705    0.4568   15.1485 C.ar      1 RES1    0.0000
      3 H1         4.3478    1.2104   15.1331 H         1 RES1    0.0000
      4 C3         2.7408    0.3947   16.0619 C.ar      1 RES1    0.0000
      5 H2         2.6041    1.1127   16.6684 H         1 RES1    0.0000
      6 C4         1.8856   -0.7322   16.1011 C.ar      1 RES1    0.0000
      7 H3         1.1780   -0.7617   16.7330 H         1 RES1    0.0000
      8 C5         2.0670   -1.7784   15.2401 C.ar      1 RES1    0.0000
      9 H4         1.4899   -2.5315   15.2818 H         1 RES1    0.0000
     10 C6         3.1196   -1.7434   14.2793 C.ar      1 RES1    0.0000
     11 C7         3.3675   -2.8069   13.3859 C.ar      1 RES1    0.0000
     12 H5         2.8336   -3.5925   13.4120 H         1 RES1    0.0000
     13 C8         4.3881   -2.6901   12.4814 C.ar      1 RES1    0.0000
     14 H6         4.5864   -3.3971   11.8783 H         1 RES1    0.0000
     15 C9         5.1394   -1.4963   12.4659 C.ar      1 RES1    0.0000
     16 C10        6.1592   -1.3100   11.3859 C.2       1 RES1    0.0000
     17 C11        7.0466   -0.0695   11.4221 C.3       1 RES1    0.0000
     18 H7         6.5655    0.6848   11.8702 H         1 RES1    0.0000
     19 C12        8.4017   -0.3332   12.1275 C.3       1 RES1    0.0000
     20 H8         8.8988   -1.0377   11.6213 H         1 RES1    0.0000
     21 C13        9.2131    0.9522   12.1117 C.3       1 RES1    0.0000
     22 H9         8.7014    1.6782   12.5716 H         1 RES1    0.0000
     23 C14       10.8095    1.8528   13.6006 C.3       1 RES1    0.0000
     24 H10       10.1442    1.9635   14.3251 H         1 RES1    0.0000
     25 H11       10.8105    2.6784   13.0548 H         1 RES1    0.0000
     26 C15       12.1785    1.6395   14.1980 C.ar      1 RES1    0.0000
     27 C16       12.7338    2.6753   14.9513 C.ar      1 RES1    0.0000
     28 H12       12.2537    3.4868   15.0685 H         1 RES1    0.0000
     29 C17       13.9899    2.5223   15.5323 C.ar      1 RES1    0.0000
     30 H13       14.3630    3.2286   16.0462 H         1 RES1    0.0000
     31 C18       14.6972    1.3444   15.3634 C.ar      1 RES1    0.0000
     32 H14       15.5559    1.2430   15.7569 H         1 RES1    0.0000
     33 C19       14.1495    0.3160   14.6185 C.ar      1 RES1    0.0000
     34 H15       14.6346   -0.4930   14.5044 H         1 RES1    0.0000
     35 C20       12.8885    0.4549   14.0319 C.ar      1 RES1    0.0000
     36 H16       12.5185   -0.2557   13.5219 H         1 RES1    0.0000
     37 C21        9.4253    1.3229   10.6415 C.3       1 RES1    0.0000
     38 H17        9.9452    0.5988   10.1879 H         1 RES1    0.0000
     39 C22       11.4540    2.3317   10.0018 C.3       1 RES1    0.0000
     40 H18       11.3675    1.9696    9.0841 H         1 RES1    0.0000
     41 H19       11.9403    1.6653   10.5499 H         1 RES1    0.0000
     42 C23       12.2329    3.6104    9.9635 C.ar      1 RES1    0.0000
     43 C24       13.0737    3.9380   11.0237 C.ar      1 RES1    0.0000
     44 H20       13.0870    3.3909   11.8007 H         1 RES1    0.0000
     45 C25       13.8878    5.0525   10.9557 C.ar      1 RES1    0.0000
     46 H21       14.4598    5.2640   11.6844 H         1 RES1    0.0000
     47 C26       13.8758    5.8615    9.8346 C.ar      1 RES1    0.0000
     48 H22       14.4441    6.6214    9.7887 H         1 RES1    0.0000
     49 C27       13.0283    5.5591    8.7775 C.ar      1 RES1    0.0000
     50 H23       13.0086    6.1167    8.0094 H         1 RES1    0.0000
     51 C28       12.2088    4.4403    8.8449 C.ar      1 RES1    0.0000
     52 H24       11.6271    4.2386    8.1225 H         1 RES1    0.0000
     53 C29        8.0665    1.4809    9.9558 C.3       1 RES1    0.0000
     54 H25        7.5601    2.2112   10.4141 H         1 RES1    0.0000
     55 C30        8.1759    1.8172    8.4782 C.3       1 RES1    0.0000
     56 H26        7.2894    1.6850    8.0595 H         1 RES1    0.0000
     57 H27        8.4080    2.7762    8.3908 H         1 RES1    0.0000
     58 C31        8.7182   -0.2662    7.4449 C.3       1 RES1    0.0000
     59 H28        7.7805   -0.2539    7.1270 H         1 RES1    0.0000
     60 H29        8.7613   -0.8324    8.2566 H         1 RES1    0.0000
     61 C32        9.6116   -0.8422    6.3737 C.ar      1 RES1    0.0000
     62 C33       10.7234   -0.1568    5.8902 C.ar      1 RES1    0.0000
     63 H30       10.9450    0.6996    6.2365 H         1 RES1    0.0000
     64 C34       11.5112   -0.7358    4.8935 C.ar      1 RES1    0.0000
     65 H31       12.2658   -0.2656    4.5606 H         1 RES1    0.0000
     66 C35       11.2044   -1.9905    4.3833 C.ar      1 RES1    0.0000
     67 H32       11.7467   -2.3754    3.7057 H         1 RES1    0.0000
     68 C36       10.1038   -2.6797    4.8665 C.ar      1 RES1    0.0000
     69 H33        9.8928   -3.5409    4.5267 H         1 RES1    0.0000
     70 C37        9.3093   -2.1036    5.8527 C.ar      1 RES1    0.0000
     71 H34        8.5509   -2.5745    6.1767 H         1 RES1    0.0000
     72 N1         4.9709   -0.4863   13.3030 N.ar      1 RES1    0.0000
     73 N2         8.1689   -0.8133   13.5327 N.pl3     1 RES1    0.0000
     74 O1         6.2604   -2.1049   10.4744 O.2       1 RES1    0.0000
     75 O2         8.0522   -2.0268   13.6883 O.2       1 RES1    0.0000
     76 O3         8.0670    0.0080   14.4311 O.2       1 RES1    0.0000
     77 O4        10.4463    0.7371   12.7827 O.3       1 RES1    0.0000
     78 O5        10.1453    2.5475   10.5568 O.3       1 RES1    0.0000
     79 O6         9.1347    1.0524    7.7587 O.3       1 RES1    0.0000
     80 O7         7.3243    0.2600   10.0780 O.3       1 RES1    0.0000
@<TRIPOS>BOND
     1    1    2 ar
     2    2    3 1
     3    4    2 ar
     4    5    4 1
     5    6    4 ar
     6    7    6 1
     7    8    6 ar
     8    9    8 1
     9   10    1 ar
    10   11   10 ar
    11   12   11 1
    12   13   11 ar
    13   14   13 1
    14   15   13 ar
    15   16   15 1
    16   17   16 1
    17   18   17 1
    18   19   17 1
    19   20   19 1
    20   21   19 1
    21   22   21 1
    22   23   24 1
    23   25   23 1
    24   26   23 1
    25   27   26 ar
    26   28   27 1
    27   29   27 ar
    28   30   29 1
    29   31   29 ar
    30   32   31 1
    31   33   31 ar
    32   34   33 1
    33   35   26 ar
    34   36   35 1
    35   37   21 1
    36   38   37 1
    37   39   40 1
    38   41   39 1
    39   42   39 1
    40   43   42 ar
    41   44   43 1
    42   45   43 ar
    43   46   45 1
    44   47   45 ar
    45   48   47 1
    46   49   47 ar
    47   50   49 1
    48   51   42 ar
    49   52   51 1
    50   53   37 1
    51   54   53 1
    52   55   53 1
    53   56   55 1
    54   57   55 1
    55   58   59 1
    56   60   58 1
    57   61   58 1
    58   62   61 ar
    59   63   62 1
    60   64   62 ar
    61   65   64 1
    62   66   64 ar
    63   67   66 1
    64   68   66 ar
    65   69   68 1
    66   70   61 ar
    67   71   70 1
    68   72    1 ar
    69   73   19 1
    70   74   16 2
    71   75   73 2
    72   76   73 2
    73   77   21 1
    74   78   37 1
    75   79   55 1
    76   80   17 1
    77    8   10 ar
    78   15   72 ar
    79   23   77 1
    80   33   35 ar
    81   39   78 1
    82   49   51 ar
    83   53   80 1
    84   58   79 1
    85   68   70 ar
@<TRIPOS>SUBSTRUCTURE
     1 RES1 1

@<TRIPOS>CRYSIN
  15.7429    6.1474   16.5336  90.0000 102.1880  90.0000   4 1

