# MOL2 file generated by ConQuest
# Please check atom types

@<TRIPOS>MOLECULE
VAVVIZ
    50    53     1
SMALL
NO_CHARGES
****
Generated from CSD

@<TRIPOS>ATOM
      1 O1         3.9184    6.4499    7.7418 O.3       1 RES1    0.0000
      2 O2         4.9574    5.8776    5.8258 O.2       1 RES1    0.0000
      3 O3         5.4511    3.7101    7.7699 O.2       1 RES1    0.0000
      4 O4         4.8401    1.6739    7.6652 O.2       1 RES1    0.0000
      5 O5         0.2350    0.5979    6.7146 O.2       1 RES1    0.0000
      6 O6        -0.7722    1.8926    5.3043 O.2       1 RES1    0.0000
      7 N1         4.6392    2.8527    7.5007 N.pl3     1 RES1    0.0000
      8 N2         0.1281    1.6363    6.0912 N.pl3     1 RES1    0.0000
      9 C1         5.3480    7.6928    9.2983 C.3       1 RES1    0.0000
     10 C2         6.0810    6.3946    9.6411 C.3       1 RES1    0.0000
     11 H1         6.3324    6.4097   10.5989 H         1 RES1    0.0000
     12 H2         5.4664    5.6306    9.5012 H         1 RES1    0.0000
     13 C3         7.3365    6.1821    8.8012 C.3       1 RES1    0.0000
     14 H3         7.0879    6.1037    7.8464 H         1 RES1    0.0000
     15 H4         7.7814    5.3406    9.0745 H         1 RES1    0.0000
     16 C4         8.2944    7.3530    8.9876 C.3       1 RES1    0.0000
     17 H5         9.1036    7.2103    8.4356 H         1 RES1    0.0000
     18 H6         8.5734    7.4048    9.9361 H         1 RES1    0.0000
     19 C5         7.6243    8.6612    8.5816 C.3       1 RES1    0.0000
     20 H7         7.4386    8.6421    7.6092 H         1 RES1    0.0000
     21 H8         8.2455    9.4120    8.7566 H         1 RES1    0.0000
     22 C6         6.3185    8.9039    9.3359 C.3       1 RES1    0.0000
     23 H9         6.5560    9.0618   10.2944 H         1 RES1    0.0000
     24 C7         5.5967   10.1787    8.8281 C.3       1 RES1    0.0000
     25 H10        5.7790   10.9337    9.4422 H         1 RES1    0.0000
     26 H11        5.9384   10.4208    7.9313 H         1 RES1    0.0000
     27 C8         4.0811    9.9223    8.7549 C.3       1 RES1    0.0000
     28 H12        3.5914   10.7665    8.5381 H         1 RES1    0.0000
     29 C9         3.8335    8.8786    7.6961 C.2       1 RES1    0.0000
     30 C10        4.7259    7.6646    7.8926 C.3       1 RES1    0.0000
     31 H13        5.4525    7.6697    7.2054 H         1 RES1    0.0000
     32 C11        4.2211    7.9519   10.3099 C.3       1 RES1    0.0000
     33 H14        4.5798    7.8779   11.2295 H         1 RES1    0.0000
     34 H15        3.5137    7.2683   10.1992 H         1 RES1    0.0000
     35 C12        3.6155    9.3586   10.1033 C.3       1 RES1    0.0000
     36 H16        2.6274    9.3040   10.1204 H         1 RES1    0.0000
     37 H17        3.9053    9.9591   10.8350 H         1 RES1    0.0000
     38 C13        2.9378    8.9740    6.7340 C.2       1 RES1    0.0000
     39 H18        2.3872    9.7464    6.6721 H         1 RES1    0.0000
     40 H19        2.8415    8.2702    6.1025 H         1 RES1    0.0000
     41 C14        4.1420    5.6883    6.6827 C.2       1 RES1    0.0000
     42 C15        3.1099    4.5893    6.6112 C.ar      1 RES1    0.0000
     43 C16        3.3409    3.2632    6.9516 C.ar      1 RES1    0.0000
     44 C17        2.3766    2.2832    6.7982 C.ar      1 RES1    0.0000
     45 H20        2.5461    1.3806    7.0428 H         1 RES1    0.0000
     46 C18        1.1603    2.6658    6.2772 C.ar      1 RES1    0.0000
     47 C19        0.8827    3.9711    5.9109 C.ar      1 RES1    0.0000
     48 H21        0.0381    4.2045    5.5443 H         1 RES1    0.0000
     49 C20        1.8642    4.9252    6.0911 C.ar      1 RES1    0.0000
     50 H22        1.6849    5.8285    5.8550 H         1 RES1    0.0000
@<TRIPOS>BOND
     1    1   30 1
     2    2   41 2
     3    3    7 2
     4    4    7 2
     5    5    8 2
     6    6    8 2
     7    7   43 1
     8    8   46 1
     9    9   10 1
    10   10   11 1
    11   12   10 1
    12   13   10 1
    13   14   13 1
    14   15   13 1
    15   16   13 1
    16   17   16 1
    17   18   16 1
    18   19   16 1
    19   20   19 1
    20   21   19 1
    21   22    9 1
    22   23   22 1
    23   24   22 1
    24   25   24 1
    25   26   24 1
    26   27   24 1
    27   28   27 1
    28   29   27 1
    29   30    9 1
    30   31   30 1
    31   32    9 1
    32   33   32 1
    33   34   32 1
    34   35   27 1
    35   36   35 1
    36   37   35 1
    37   38   29 2
    38   39   38 1
    39   40   38 1
    40   41    1 1
    41   42   41 1
    42   43   42 ar
    43   44   43 ar
    44   45   44 1
    45   46   44 ar
    46   47   46 ar
    47   48   47 1
    48   49   42 ar
    49   50   49 1
    50   19   22 1
    51   29   30 1
    52   32   35 1
    53   47   49 ar
@<TRIPOS>SUBSTRUCTURE
     1 RES1 1

@<TRIPOS>CRYSIN
   7.7364   11.3727   10.3702  90.0000  93.0490  90.0000   4 1

