# MOL2 file generated by ConQuest
# Please check atom types

@<TRIPOS>MOLECULE
VAWDOO
    44    45     1
SMALL
NO_CHARGES
****
Generated from CSD

@<TRIPOS>ATOM
      1 C1        -5.3331    5.4744    1.6185 C.ar      1 RES1    0.0000
      2 C2        -6.6155    4.9710    1.7595 C.ar      1 RES1    0.0000
      3 C3        -7.1717    4.8092    3.0216 C.ar      1 RES1    0.0000
      4 C4        -6.4276    5.1478    4.1417 C.ar      1 RES1    0.0000
      5 C5        -5.1434    5.6570    3.9991 C.ar      1 RES1    0.0000
      6 C6        -4.5796    5.8356    2.7408 C.ar      1 RES1    0.0000
      7 C7        -3.1943    6.4228    2.5880 C.3       1 RES1    0.0000
      8 C8        -2.1955    5.5817    1.8008 C.2       1 RES1    0.0000
      9 C9        -1.4643    6.3240    0.9838 C.2       1 RES1    0.0000
     10 C10       -1.8344    7.7853    0.9989 C.3       1 RES1    0.0000
     11 C11       -3.1742    7.7271    1.7784 C.3       1 RES1    0.0000
     12 C12       -2.0901    4.1080    2.0255 C.3       1 RES1    0.0000
     13 O1        -2.0283    8.3014   -0.3022 O.3       1 RES1    0.0000
     14 C13       -0.7751    8.6512    1.7073 C.2       1 RES1    0.0000
     15 O2        -0.1675    9.5187    1.1298 O.2       1 RES1    0.0000
     16 O3        -0.6737    8.2943    2.9786 O.3       1 RES1    0.0000
     17 C14        0.2328    9.0102    3.9221 C.3       1 RES1    0.0000
     18 C15        0.0145    8.2328    5.2099 C.3       1 RES1    0.0000
     19 C16        1.6687    8.8915    3.4494 C.3       1 RES1    0.0000
     20 C17       -0.2402   10.4450    4.0595 C.3       1 RES1    0.0000
     21 N1        -3.4445    8.9692    2.5812 N.pl3     1 RES1    0.0000
     22 O4        -3.3072   10.0368    1.9894 O.2       1 RES1    0.0000
     23 O5        -3.7950    8.8668    3.7445 O.2       1 RES1    0.0000
     24 H1        -4.9583    5.5787    0.7481 H         1 RES1    0.0000
     25 H2        -7.1153    4.7118    0.9814 H         1 RES1    0.0000
     26 H3        -8.0401    4.4397    3.1259 H         1 RES1    0.0000
     27 H4        -6.7916    4.9842    5.0114 H         1 RES1    0.0000
     28 H5        -4.6337    5.9130    4.7669 H         1 RES1    0.0000
     29 H6        -2.8187    6.5826    3.4467 H         1 RES1    0.0000
     30 H7        -0.7306    6.0278    0.4374 H         1 RES1    0.0000
     31 H8        -3.8824    7.7110    1.1205 H         1 RES1    0.0000
     32 H9        -1.4714    8.9020   -0.4150 H         1 RES1    0.0000
     33 H10       -1.8646    3.9080    2.9611 H         1 RES1    0.0000
     34 H11        0.5997    8.6336    5.8963 H         1 RES1    0.0000
     35 H12        1.8959    7.9557    3.3009 H         1 RES1    0.0000
     36 H13        0.2633   10.8909    4.7792 H         1 RES1    0.0000
     37 H14       -2.9325    3.6823    1.8585 H         1 RES1    0.0000
     38 H15       -0.9191    8.2920    5.5004 H         1 RES1    0.0000
     39 H16        1.8536    9.3554    2.6246 H         1 RES1    0.0000
     40 H17       -1.2181   10.4728    4.3350 H         1 RES1    0.0000
     41 H18       -1.4040    3.7152    1.4660 H         1 RES1    0.0000
     42 H19        0.2438    7.2862    5.0675 H         1 RES1    0.0000
     43 H20        2.2705    9.2130    4.1242 H         1 RES1    0.0000
     44 H21       -0.1641   10.9496    3.2280 H         1 RES1    0.0000
@<TRIPOS>BOND
     1    1    2 ar
     2    2    3 ar
     3    3    4 ar
     4    4    5 ar
     5    5    6 ar
     6    6    1 ar
     7    7    6 1
     8    8    7 1
     9    9    8 2
    10   10    9 1
    11   11    7 1
    12   12    8 1
    13   13   10 1
    14   14   10 1
    15   15   14 2
    16   16   14 1
    17   17   16 1
    18   18   17 1
    19   19   17 1
    20   20   17 1
    21   21   11 1
    22   22   21 2
    23   23   21 2
    24   24    1 1
    25   25    2 1
    26   26    3 1
    27   27    4 1
    28   28    5 1
    29   29    7 1
    30   30    9 1
    31   31   11 1
    32   32   13 1
    33   33   12 1
    34   34   18 1
    35   35   19 1
    36   36   20 1
    37   37   12 1
    38   38   18 1
    39   39   19 1
    40   40   20 1
    41   41   12 1
    42   42   18 1
    43   43   19 1
    44   44   20 1
    45   10   11 1
@<TRIPOS>SUBSTRUCTURE
     1 RES1 1

@<TRIPOS>CRYSIN
   8.7703    9.2477   12.0469 100.0550 102.3510 115.5310   2 1

