# MOL2 file generated by ConQuest
# Please check atom types

@<TRIPOS>MOLECULE
VAWWEV
    30    31     1
SMALL
NO_CHARGES
****
Generated from CSD

@<TRIPOS>ATOM
      1 N1         7.9542    9.1784    3.8690 N.pl3     1 RES1    0.0000
      2 C1         8.0876    7.8534    3.5292 C.2       1 RES1    0.0000
      3 C2         6.9923    6.9896    4.0982 C.3       1 RES1    0.0000
      4 C3         9.1301    7.4625    2.7659 C.2       1 RES1    0.0000
      5 C4         9.2572    6.0716    2.3435 C.2       1 RES1    0.0000
      6 O1         8.4250    5.2063    2.4191 O.2       1 RES1    0.0000
      7 O2        10.4834    5.8257    1.8362 O.3       1 RES1    0.0000
      8 C5        10.7730    4.4406    1.5557 C.3       1 RES1    0.0000
      9 C6        12.2598    4.3088    1.4184 C.3       1 RES1    0.0000
     10 O3        12.6803    4.8301    0.1897 O.3       1 RES1    0.0000
     11 C7        14.0589    4.6558   -0.0407 C.3       1 RES1    0.0000
     12 C8        10.2619    8.4376    2.4249 C.3       1 RES1    0.0000
     13 C9         9.7709    9.8827    2.5297 C.2       1 RES1    0.0000
     14 C10       10.5426   10.9456    1.8629 C.2       1 RES1    0.0000
     15 O4        10.3475   12.1301    1.9688 O.2       1 RES1    0.0000
     16 O5        11.5296   10.4376    1.0973 O.3       1 RES1    0.0000
     17 C11       12.3983   11.4112    0.4189 C.3       1 RES1    0.0000
     18 C12       13.7328   10.7231    0.2653 C.3       1 RES1    0.0000
     19 C13       11.7676   11.8050   -0.8867 C.3       1 RES1    0.0000
     20 C14        8.6907   10.1916    3.2872 C.2       1 RES1    0.0000
     21 C15        8.1204   11.5547    3.5478 C.3       1 RES1    0.0000
     22 C16       11.4793    8.2034    3.3349 C.ar      1 RES1    0.0000
     23 C17       12.7420    8.0057    2.7577 C.ar      1 RES1    0.0000
     24 C18       13.8260    7.8285    3.5990 C.ar      1 RES1    0.0000
     25 N2        15.1593    7.6441    2.9637 N.pl3     1 RES1    0.0000
     26 O6        15.2046    7.4684    1.7524 O.2       1 RES1    0.0000
     27 O7        16.1362    7.6558    3.6712 O.2       1 RES1    0.0000
     28 C19       13.7291    7.8256    4.9616 C.ar      1 RES1    0.0000
     29 C20       12.4839    8.0057    5.5155 C.ar      1 RES1    0.0000
     30 C21       11.3635    8.1858    4.7079 C.ar      1 RES1    0.0000
@<TRIPOS>BOND
     1    1    2 1
     2    2    3 1
     3    4    2 2
     4    5    4 1
     5    6    5 2
     6    7    5 1
     7    8    7 1
     8    9    8 1
     9   10    9 1
    10   11   10 1
    11   12    4 1
    12   13   12 1
    13   14   13 1
    14   15   14 2
    15   16   14 1
    16   17   16 1
    17   18   17 1
    18   19   17 1
    19   20    1 1
    20   21   20 1
    21   22   12 1
    22   23   22 ar
    23   24   23 ar
    24   25   24 1
    25   26   25 2
    26   27   25 2
    27   28   24 ar
    28   29   28 ar
    29   30   22 ar
    30   13   20 2
    31   29   30 ar
@<TRIPOS>SUBSTRUCTURE
     1 RES1 1

@<TRIPOS>CRYSIN
  12.5897   14.6410   11.6360  90.0000  90.0000  90.0000  19 1

