# MOL2 file generated by ConQuest
# Please check atom types

@<TRIPOS>MOLECULE
VAWWEW
    47    48     1
SMALL
NO_CHARGES
****
Generated from CSD

@<TRIPOS>ATOM
      1 N1         6.6636   -0.3740    2.1107 N.3       1 RES1    0.0000
      2 C1         6.3406    0.9657    2.1100 C.2       1 RES1    0.0000
      3 C2         5.0477    1.3381    1.9649 C.2       1 RES1    0.0000
      4 C3         3.9347    0.3007    1.9693 C.3       1 RES1    0.0000
      5 C4         4.4707   -1.0747    1.5971 C.2       1 RES1    0.0000
      6 C5         5.7779   -1.3716    1.7572 C.2       1 RES1    0.0000
      7 C6         3.2392    0.2279    3.3300 C.ar      1 RES1    0.0000
      8 C7         1.8723    0.3970    3.4385 C.ar      1 RES1    0.0000
      9 C8         1.2816    0.2662    4.6936 C.ar      1 RES1    0.0000
     10 C9         1.9941   -0.0302    5.8321 C.ar      1 RES1    0.0000
     11 C10        3.3644   -0.1655    5.7175 C.ar      1 RES1    0.0000
     12 C11        3.9780   -0.0477    4.4791 C.ar      1 RES1    0.0000
     13 C12        7.5313    1.8562    2.2999 C.3       1 RES1    0.0000
     14 C13        4.6737    2.7625    1.8988 C.2       1 RES1    0.0000
     15 C14        2.7845    4.2359    2.0274 C.3       1 RES1    0.0000
     16 C15        1.8726    4.3175    3.2031 C.3       1 RES1    0.0000
     17 C16        1.8261    4.2098    5.5563 C.3       1 RES1    0.0000
     18 C17        3.5045   -2.1170    1.1909 C.2       1 RES1    0.0000
     19 C18        1.2460   -2.4799    0.4877 C.3       1 RES1    0.0000
     20 C19        1.2520   -2.4476   -1.0372 C.3       1 RES1    0.0000
     21 C20       -0.0140   -1.9571    0.8937 C.3       1 RES1    0.0000
     22 C21        6.4526   -2.7031    1.5800 C.3       1 RES1    0.0000
     23 N2        -0.1671    0.4095    4.8015 N.pl3     1 RES1    0.0000
     24 O1        -0.7134    0.3056    5.8760 O.2       1 RES1    0.0000
     25 O2        -0.7993    0.6480    3.8020 O.2       1 RES1    0.0000
     26 O3         5.4054    3.7039    1.8005 O.2       1 RES1    0.0000
     27 O4         3.3285    2.9045    1.9518 O.3       1 RES1    0.0000
     28 O5         2.6226    4.2714    4.3998 O.3       1 RES1    0.0000
     29 O6         3.7144   -3.2989    1.0970 O.2       1 RES1    0.0000
     30 O7         2.3005   -1.5860    0.9235 O.3       1 RES1    0.0000
     31 H1         7.4447   -0.6218    2.1983 H         1 RES1    0.0000
     32 H2         3.2622    0.5229    1.3336 H         1 RES1    0.0000
     33 H3         1.4119    0.6964    2.7160 H         1 RES1    0.0000
     34 H4         1.5373   -0.2043    6.7269 H         1 RES1    0.0000
     35 H5         3.8788   -0.4361    6.5462 H         1 RES1    0.0000
     36 H6         4.9570   -0.1747    4.4053 H         1 RES1    0.0000
     37 H7         8.1317    1.6038    2.8680 H         1 RES1    0.0000
     38 H8         7.2414    2.6595    2.5382 H         1 RES1    0.0000
     39 H9         8.1321    1.8532    1.6620 H         1 RES1    0.0000
     40 H10        3.5181    4.8938    2.0420 H         1 RES1    0.0000
     41 H11        2.2563    4.4281    1.1658 H         1 RES1    0.0000
     42 H12        1.2606    3.5723    3.2007 H         1 RES1    0.0000
     43 H13        1.4973    5.0355    3.1333 H         1 RES1    0.0000
     44 H14        1.1867    5.0388    5.4894 H         1 RES1    0.0000
     45 H15        2.7317    4.3457    6.1863 H         1 RES1    0.0000
     46 H16        0.9820    3.6470    5.2743 H         1 RES1    0.0000
     47 H17        1.3178   -3.3416    0.9751 H         1 RES1    0.0000
@<TRIPOS>BOND
     1    1    2 1
     2    2    3 2
     3    3    4 1
     4    4    5 1
     5    5    6 2
     6    6    1 1
     7    7    4 1
     8    8    7 ar
     9    9    8 ar
    10   10    9 ar
    11   11   10 ar
    12   12    7 ar
    13   13    2 1
    14   14    3 1
    15   15   16 1
    16   16   28 1
    17   17   28 1
    18   18    5 1
    19   19   20 1
    20   21   19 1
    21   22    6 1
    22   23    9 1
    23   24   23 2
    24   25   23 2
    25   26   14 2
    26   27   14 1
    27   29   18 2
    28   30   18 1
    29   31    1 1
    30   32    4 1
    31   33    8 1
    32   34   10 1
    33   35   11 1
    34   36   12 1
    35   37   13 1
    36   38   13 1
    37   39   13 1
    38   40   15 1
    39   41   15 1
    40   42   16 1
    41   43   16 1
    42   44   17 1
    43   45   17 1
    44   46   17 1
    45   47   19 1
    46   11   12 ar
    47   15   27 1
    48   19   30 1
@<TRIPOS>SUBSTRUCTURE
     1 RES1 1

@<TRIPOS>CRYSIN
  13.9330   10.9850   14.8390  90.0000 104.9000  90.0000  14 1

