# MOL2 file generated by ConQuest
# Please check atom types

@<TRIPOS>MOLECULE
VAYKAH
    39    41     1
SMALL
NO_CHARGES
****
Generated from CSD

@<TRIPOS>ATOM
      1 O1         3.2731    1.1249    6.4847 O.3       1 RES1    0.0000
      2 O2         1.2457   -0.2703    7.5014 O.2       1 RES1    0.0000
      3 O3         7.8746    1.6843    7.7145 O.2       1 RES1    0.0000
      4 O4         8.4959    1.4007    9.7539 O.2       1 RES1    0.0000
      5 O5         4.4157    1.1764   12.4238 O.3       1 RES1    0.0000
      6 O6        -2.6828    0.1605   10.7363 O.2       1 RES1    0.0000
      7 O7        -2.2049    0.5991   12.7771 O.2       1 RES1    0.0000
      8 O8         0.3251    2.4921    6.6040 O.2       1 RES1    0.0000
      9 N1         7.6350    1.5230    8.8997 N.pl3     1 RES1    0.0000
     10 N2        -1.8971    0.5235   11.5919 N.pl3     1 RES1    0.0000
     11 C1         5.2284    1.5082    8.3809 C.ar      1 RES1    0.0000
     12 C2         6.2297    1.4514    9.3320 C.ar      1 RES1    0.0000
     13 C3         5.9675    1.3586   10.6781 C.ar      1 RES1    0.0000
     14 H1         2.4355    0.9738    5.5903 H         1 RES1    0.0000
     15 H2         5.3024    1.1296   13.1483 H         1 RES1    0.0000
     16 H3         5.4305    1.4724    7.3940 H         1 RES1    0.0000
     17 H4         6.9452    1.2932   11.1805 H         1 RES1    0.0000
     18 H5         0.0357    1.3711   13.3272 H         1 RES1    0.0000
     19 H6        -0.8708    0.3038    9.2425 H         1 RES1    0.0000
     20 C4         4.6538    1.3135   11.1089 C.ar      1 RES1    0.0000
     21 C5         1.6618    1.5152   11.8573 C.ar      1 RES1    0.0000
     22 C6         0.3333    1.3065   12.1897 C.ar      1 RES1    0.0000
     23 C7        -0.5088    0.8227   11.2073 C.ar      1 RES1    0.0000
     24 C8        -0.0974    0.5742    9.9104 C.ar      1 RES1    0.0000
     25 C9         1.6901    0.6069    8.2274 C.2       1 RES1    0.0000
     26 C10        2.8128    1.5160    7.7593 C.3       1 RES1    0.0000
     27 C11        3.9158    1.4412    8.8132 C.ar      1 RES1    0.0000
     28 C12        3.5925    1.3625   10.1757 C.ar      1 RES1    0.0000
     29 C13        2.1678    1.2628   10.5738 C.ar      1 RES1    0.0000
     30 C14        1.2272    0.8250    9.6137 C.ar      1 RES1    0.0000
     31 C15        2.3721    3.0032    7.6818 C.3       1 RES1    0.0000
     32 C16        1.2602    3.2611    6.6934 C.2       1 RES1    0.0000
     33 C17        1.4124    4.4732    5.8511 C.3       1 RES1    0.0000
     34 H7         1.8931    3.4745    8.5717 H         1 RES1    0.0000
     35 H8         3.1663    3.4901    7.3791 H         1 RES1    0.0000
     36 H9         1.2556    4.8612    6.2462 H         1 RES1    0.0000
     37 H10        1.3192    4.6976    4.6064 H         1 RES1    0.0000
     38 H11        0.5340    4.5496    5.2772 H         1 RES1    0.0000
     39 H12        2.3137    1.8775   12.5818 H         1 RES1    0.0000
@<TRIPOS>BOND
     1    1   14 1
     2    2   25 2
     3    3    9 2
     4    4    9 2
     5    5   15 1
     6    6   10 2
     7    7   10 2
     8    8   32 2
     9    9   12 1
    10   10   23 1
    11   11   12 ar
    12   12   13 ar
    13   13   17 1
    14   16   11 1
    15   18   22 1
    16   19   24 1
    17   20    5 1
    18   21   22 ar
    19   22   23 ar
    20   23   24 ar
    21   24   30 ar
    22   25   26 1
    23   26    1 1
    24   27   11 ar
    25   28   20 ar
    26   29   21 ar
    27   30   25 1
    28   31   26 1
    29   32   31 1
    30   33   32 1
    31   34   31 1
    32   35   31 1
    33   36   33 1
    34   37   33 1
    35   38   33 1
    36   39   21 1
    37   13   20 ar
    38   26   27 1
    39   27   28 ar
    40   28   29 1
    41   29   30 ar
@<TRIPOS>SUBSTRUCTURE
     1 RES1 1

@<TRIPOS>CRYSIN
  13.6461    7.7904   14.9460  90.0000  94.1220  90.0000 231 1

