# MOL2 file generated by ConQuest
# Please check atom types

@<TRIPOS>MOLECULE
VAYLUC
    21    23     1
SMALL
NO_CHARGES
****
Generated from CSD

@<TRIPOS>ATOM
      1 C1         7.0989    0.2691    1.5012 C.ar      1 RES1    0.0000
      2 C2         7.8528   -0.7813    1.9774 C.ar      1 RES1    0.0000
      3 C3         9.1751   -0.5564    2.2934 C.ar      1 RES1    0.0000
      4 C4         9.7794    0.6591    2.1159 C.ar      1 RES1    0.0000
      5 C5         9.1350    3.9169    0.7446 C.2       1 RES1    0.0000
      6 C6         7.1597    4.9257   -0.2489 C.ar      1 RES1    0.0000
      7 C7         5.8295    4.9413   -0.5660 C.ar      1 RES1    0.0000
      8 C8         5.0220    3.9052   -0.1580 C.ar      1 RES1    0.0000
      9 C9         5.5649    2.8431    0.5282 C.ar      1 RES1    0.0000
     10 C10        6.9419    2.7170    0.7879 C.ar      1 RES1    0.0000
     11 C11        7.6434    1.5496    1.3280 C.ar      1 RES1    0.0000
     12 C12        8.9999    1.6900    1.6213 C.ar      1 RES1    0.0000
     13 C13        7.7129    3.8272    0.4080 C.ar      1 RES1    0.0000
     14 N1         9.9855   -1.6718    2.8194 N.pl3     1 RES1    0.0000
     15 N2         4.5784    1.8980    1.0834 N.pl3     1 RES1    0.0000
     16 O1         9.4340   -2.7417    3.0110 O.2       1 RES1    0.0000
     17 O2        11.1607   -1.4703    3.0423 O.2       1 RES1    0.0000
     18 O3         4.6389    1.6484    2.2707 O.2       1 RES1    0.0000
     19 O4         3.7305    1.4703    0.3366 O.2       1 RES1    0.0000
     20 O5         9.6872    2.8704    1.4221 O.3       1 RES1    0.0000
     21 O6         9.8463    4.8542    0.5195 O.2       1 RES1    0.0000
@<TRIPOS>BOND
     1    1    2 ar
     2    2    3 ar
     3    3    4 ar
     4    4   12 ar
     5    5   13 1
     6    6    7 ar
     7    7    8 ar
     8    8    9 ar
     9    9   10 ar
    10   10   11 1
    11   11    1 ar
    12   12   11 ar
    13   13    6 ar
    14   14    3 1
    15   15    9 1
    16   16   14 2
    17   17   14 2
    18   18   15 2
    19   19   15 2
    20   20    5 1
    21   21    5 2
    22   10   13 ar
    23   12   20 1
@<TRIPOS>SUBSTRUCTURE
     1 RES1 1

@<TRIPOS>CRYSIN
  16.1580   13.0360   10.8230  90.0000  90.0000  85.7400  15 4

