# MOL2 file generated by ConQuest
# Please check atom types

@<TRIPOS>MOLECULE
VAYLOW
    18    20     1
SMALL
NO_CHARGES
****
Generated from CSD

@<TRIPOS>ATOM
      1 C1         0.4487    6.9168   -2.2913 C.ar      1 RES1    0.0000
      2 C2        -0.1330    7.6882   -3.2634 C.ar      1 RES1    0.0000
      3 C3        -0.8040    8.8493   -2.9462 C.ar      1 RES1    0.0000
      4 C4        -0.8933    9.2499   -1.6279 C.ar      1 RES1    0.0000
      5 C5         0.0717    8.2809    1.7224 C.2       1 RES1    0.0000
      6 C6         1.4581    6.4458    2.5402 C.ar      1 RES1    0.0000
      7 C7         2.1484    5.2914    2.3325 C.ar      1 RES1    0.0000
      8 C8         2.2900    4.7515    1.0647 C.ar      1 RES1    0.0000
      9 C9         1.7214    5.3808   -0.0131 C.ar      1 RES1    0.0000
     10 C10        0.9948    6.5690    0.1628 C.ar      1 RES1    0.0000
     11 C11        0.3848    7.3038   -0.9375 C.ar      1 RES1    0.0000
     12 C12       -0.3084    8.4744   -0.6502 C.ar      1 RES1    0.0000
     13 C13        0.8666    7.0886    1.4502 C.ar      1 RES1    0.0000
     14 N1         2.7539    4.6067    3.4692 N.pl3     1 RES1    0.0000
     15 O1         3.4345    3.6120    3.2456 O.2       1 RES1    0.0000
     16 O2         2.5531    5.0465    4.5947 O.2       1 RES1    0.0000
     17 O3        -0.4620    8.9319    0.6493 O.3       1 RES1    0.0000
     18 O4        -0.1592    8.7478    2.8049 O.2       1 RES1    0.0000
@<TRIPOS>BOND
     1    1    2 ar
     2    2    3 ar
     3    3    4 ar
     4    4   12 ar
     5    5   13 1
     6    6    7 ar
     7    7    8 ar
     8    8    9 ar
     9    9   10 ar
    10   10   11 1
    11   11    1 ar
    12   12   11 ar
    13   13    6 ar
    14   14    7 1
    15   15   14 2
    16   16   14 2
    17   17    5 1
    18   18    5 2
    19   10   13 ar
    20   12   17 1
@<TRIPOS>SUBSTRUCTURE
     1 RES1 1

@<TRIPOS>CRYSIN
   8.2300   13.7360    9.3560  90.0000  90.0000  99.8600  14 3

