# MOL2 file generated by ConQuest
# Please check atom types

@<TRIPOS>MOLECULE
VAYSEU
    55    58     1
SMALL
NO_CHARGES
****
Generated from CSD

@<TRIPOS>ATOM
      1 C1         1.8393    9.0480    2.9610 C.2       1 RES1    0.0000
      2 C2         1.9921    8.8410    1.4678 C.3       1 RES1    0.0000
      3 H1         1.5013    9.5364    1.0026 H         1 RES1    0.0000
      4 H2         1.5980    7.9879    1.2259 H         1 RES1    0.0000
      5 C3         3.4462    8.8635    0.9998 C.3       1 RES1    0.0000
      6 C4         4.2261    7.8027    1.8019 C.3       1 RES1    0.0000
      7 H3         4.0099    6.9213    1.4587 H         1 RES1    0.0000
      8 H4         5.1774    7.9446    1.6762 H         1 RES1    0.0000
      9 C5         5.4013    5.7379    5.8288 C.3       1 RES1    0.0000
     10 H5         6.1687    6.1434    6.2622 H         1 RES1    0.0000
     11 H6         5.7250    5.1923    5.0959 H         1 RES1    0.0000
     12 C6         4.6692    4.8564    6.8256 C.3       1 RES1    0.0000
     13 C7         3.9968    5.7796    7.8462 C.3       1 RES1    0.0000
     14 H7         3.4528    5.2374    8.4387 H         1 RES1    0.0000
     15 H8         4.6871    6.1975    8.3848 H         1 RES1    0.0000
     16 C8         3.1285    6.8635    7.2561 C.2       1 RES1    0.0000
     17 C9         2.6789    8.5116    5.3284 C.3       1 RES1    0.0000
     18 H9         1.6482    8.3524    5.5559 H         1 RES1    0.0000
     19 N1         4.8537    7.1573    4.0032 N.pl3     1 RES1    0.0000
     20 H10        5.6217    6.9501    3.6757 H         1 RES1    0.0000
     21 C10        4.5115    6.8151    5.2892 C.2       1 RES1    0.0000
     22 C11        3.4928    7.3807    5.9410 C.2       1 RES1    0.0000
     23 C12        2.8598    8.4438    3.8175 C.2       1 RES1    0.0000
     24 C13        3.9162    7.8471    3.2533 C.2       1 RES1    0.0000
     25 O1         2.1384    7.2885    7.8587 O.2       1 RES1    0.0000
     26 O2         0.8850    9.6562    3.4307 O.2       1 RES1    0.0000
     27 C14        3.1070    9.8634    5.9098 C.ar      1 RES1    0.0000
     28 C15        2.2955   10.5236    6.8133 C.ar      1 RES1    0.0000
     29 H11        1.4684   10.1572    7.0300 H         1 RES1    0.0000
     30 C16        2.6807   11.7161    7.4051 C.ar      1 RES1    0.0000
     31 H12        2.1271   12.1460    8.0173 H         1 RES1    0.0000
     32 C17        3.9024   12.2478    7.0639 C.ar      1 RES1    0.0000
     33 C18        4.7295   11.6290    6.1529 C.ar      1 RES1    0.0000
     34 H13        5.5452   12.0107    5.9215 H         1 RES1    0.0000
     35 C19        4.3324   10.4346    5.5871 C.ar      1 RES1    0.0000
     36 H14        4.8925   10.0056    4.9805 H         1 RES1    0.0000
     37 N2         4.3509   13.5025    7.6943 N.pl3     1 RES1    0.0000
     38 O3         5.3977   13.9975    7.3418 O.2       1 RES1    0.0000
     39 O4         3.6624   13.9871    8.5940 O.2       1 RES1    0.0000
     40 C20        4.0607   10.2444    1.2497 C.3       1 RES1    0.0000
     41 H15        4.0888   10.4153    2.1939 H         1 RES1    0.0000
     42 H16        3.5262   10.9152    0.8179 H         1 RES1    0.0000
     43 H17        4.9517   10.2673    0.8929 H         1 RES1    0.0000
     44 C21        3.5418    8.5376   -0.4892 C.3       1 RES1    0.0000
     45 H18        4.4632    8.5383   -0.7582 H         1 RES1    0.0000
     46 H19        3.0604    9.1971   -0.9930 H         1 RES1    0.0000
     47 H20        3.1626    7.6702   -0.6524 H         1 RES1    0.0000
     48 C22        3.6206    4.0077    6.1057 C.3       1 RES1    0.0000
     49 H21        3.0897    3.5373    6.7529 H         1 RES1    0.0000
     50 H22        4.0595    3.3749    5.5328 H         1 RES1    0.0000
     51 H23        3.0545    4.5769    5.5790 H         1 RES1    0.0000
     52 C23        5.6712    3.9425    7.5413 C.3       1 RES1    0.0000
     53 H24        6.3168    4.4794    8.0076 H         1 RES1    0.0000
     54 H25        6.1197    3.3911    6.8953 H         1 RES1    0.0000
     55 H26        5.2048    3.3857    8.1693 H         1 RES1    0.0000
@<TRIPOS>BOND
     1    1    2 1
     2    2    3 1
     3    4    2 1
     4    5    2 1
     5    6    5 1
     6    7    6 1
     7    8    6 1
     8    9   10 1
     9   11    9 1
    10   12    9 1
    11   13   12 1
    12   14   13 1
    13   15   13 1
    14   16   13 1
    15   17   18 1
    16   19   20 1
    17   21    9 1
    18   22   16 1
    19   23    1 1
    20   24    6 1
    21   25   16 2
    22   26    1 2
    23   27   17 1
    24   28   27 ar
    25   29   28 1
    26   30   28 ar
    27   31   30 1
    28   32   30 ar
    29   33   32 ar
    30   34   33 1
    31   35   27 ar
    32   36   35 1
    33   37   32 1
    34   38   37 2
    35   39   37 2
    36   40    5 1
    37   41   40 1
    38   42   40 1
    39   43   40 1
    40   44    5 1
    41   45   44 1
    42   46   44 1
    43   47   44 1
    44   48   12 1
    45   49   48 1
    46   50   48 1
    47   51   48 1
    48   52   12 1
    49   53   52 1
    50   54   52 1
    51   55   52 1
    52   17   22 1
    53   17   23 1
    54   19   21 1
    55   19   24 1
    56   21   22 2
    57   23   24 2
    58   33   35 ar
@<TRIPOS>SUBSTRUCTURE
     1 RES1 1

@<TRIPOS>CRYSIN
   5.9716   18.0476   19.2445  90.0000  90.0000  90.0000  19 1

