# MOL2 file generated by ConQuest
# Please check atom types

@<TRIPOS>MOLECULE
VAYTAR
    58    61     1
SMALL
NO_CHARGES
****
Generated from CSD

@<TRIPOS>ATOM
      1 N1         4.1703    1.6172    4.5486 N.2       1 RES1    0.0000
      2 N2         5.0767    2.6033    4.8177 N.pl3     1 RES1    0.0000
      3 N3         4.4089    3.9512    2.3692 N.pl3     1 RES1    0.0000
      4 N4         1.4583    0.8149    6.8158 N.2       1 RES1    0.0000
      5 N5         0.4771   -0.1047    6.5944 N.pl3     1 RES1    0.0000
      6 N6         1.1858   -0.5832    9.3544 N.pl3     1 RES1    0.0000
      7 O1         3.9611    3.6742    1.2700 O.2       1 RES1    0.0000
      8 O2         3.7975    4.5409    3.2178 O.2       1 RES1    0.0000
      9 O3         1.8860   -1.3992    8.7623 O.2       1 RES1    0.0000
     10 O4         1.5741    0.0859   10.3003 O.2       1 RES1    0.0000
     11 C1         6.0826    2.8949    3.8500 C.ar      1 RES1    0.0000
     12 C2         7.3927    2.5142    4.0829 C.ar      1 RES1    0.0000
     13 H1         7.6142    2.0704    4.8702 H         1 RES1    0.0000
     14 C3         8.3747    2.7896    3.1475 C.ar      1 RES1    0.0000
     15 H2         9.2571    2.5515    3.3209 H         1 RES1    0.0000
     16 C4         8.0512    3.4231    1.9521 C.ar      1 RES1    0.0000
     17 H3         8.7143    3.6094    1.3255 H         1 RES1    0.0000
     18 C5         6.7450    3.7681    1.7011 C.ar      1 RES1    0.0000
     19 H4         6.5141    4.1683    0.8939 H         1 RES1    0.0000
     20 C6         5.7815    3.5170    2.6455 C.ar      1 RES1    0.0000
     21 C7         4.8435    3.2432    6.0043 C.2       1 RES1    0.0000
     22 C8         5.6595    4.3853    6.4792 C.3       1 RES1    0.0000
     23 H5         5.0720    5.0236    6.9144 H         1 RES1    0.0000
     24 H6         6.0509    4.8260    5.7099 H         1 RES1    0.0000
     25 C9         6.7527    4.0289    7.4273 C.3       1 RES1    0.0000
     26 H7         7.4212    3.5348    6.9270 H         1 RES1    0.0000
     27 H8         7.1688    4.8568    7.7162 H         1 RES1    0.0000
     28 C10        6.4431    3.2675    8.6046 C.3       1 RES1    0.0000
     29 H9         5.8989    3.7940    9.1933 H         1 RES1    0.0000
     30 H10        7.2568    3.0245    9.0525 H         1 RES1    0.0000
     31 H11        5.9668    2.4721    8.3554 H         1 RES1    0.0000
     32 C11        3.7504    2.6244    6.5316 C.2       1 RES1    0.0000
     33 H12        3.3397    2.8188    7.3424 H         1 RES1    0.0000
     34 C12        3.3682    1.6475    5.6215 C.2       1 RES1    0.0000
     35 C13        2.2334    0.7241    5.7275 C.2       1 RES1    0.0000
     36 C14       -0.5265   -0.2786    7.5898 C.ar      1 RES1    0.0000
     37 C15       -0.2054   -0.4374    8.9333 C.ar      1 RES1    0.0000
     38 C16       -1.1734   -0.5135    9.8958 C.ar      1 RES1    0.0000
     39 H13       -0.9395   -0.5783   10.7933 H         1 RES1    0.0000
     40 C17       -2.5021   -0.4957    9.5220 C.ar      1 RES1    0.0000
     41 H14       -3.1637   -0.5945   10.1685 H         1 RES1    0.0000
     42 C18       -2.8549   -0.3370    8.2056 C.ar      1 RES1    0.0000
     43 H15       -3.7519   -0.3110    7.9636 H         1 RES1    0.0000
     44 C19       -1.8682   -0.2138    7.2395 C.ar      1 RES1    0.0000
     45 H16       -2.1076   -0.0859    6.3492 H         1 RES1    0.0000
     46 C20        0.6384   -0.7808    5.4140 C.2       1 RES1    0.0000
     47 C21       -0.3327   -1.7966    4.9100 C.3       1 RES1    0.0000
     48 H17       -0.9797   -1.9926    5.6052 H         1 RES1    0.0000
     49 H18        0.1413   -2.6163    4.7023 H         1 RES1    0.0000
     50 C22       -1.0661   -1.3090    3.6640 C.3       1 RES1    0.0000
     51 H19       -1.4938   -0.4601    3.8554 H         1 RES1    0.0000
     52 H20       -0.4238   -1.1648    2.9507 H         1 RES1    0.0000
     53 C23       -2.1153   -2.3053    3.1963 C.3       1 RES1    0.0000
     54 H21       -1.7146   -3.1720    3.1006 H         1 RES1    0.0000
     55 H22       -2.4712   -2.0218    2.3512 H         1 RES1    0.0000
     56 H23       -2.8240   -2.3490    3.8427 H         1 RES1    0.0000
     57 C24        1.7656   -0.2560    4.8468 C.2       1 RES1    0.0000
     58 H24        2.1469   -0.5038    4.0360 H         1 RES1    0.0000
@<TRIPOS>BOND
     1    1    2 1
     2    2   11 1
     3    3    7 2
     4    4    5 1
     5    5   36 1
     6    6    9 2
     7    8    3 2
     8   10    6 2
     9   11   12 ar
    10   12   13 1
    11   14   12 ar
    12   15   14 1
    13   16   14 ar
    14   17   16 1
    15   18   16 ar
    16   19   18 1
    17   20    3 1
    18   21    2 1
    19   22   21 1
    20   23   22 1
    21   24   22 1
    22   25   22 1
    23   26   25 1
    24   27   25 1
    25   28   25 1
    26   29   28 1
    27   30   28 1
    28   31   28 1
    29   32   21 2
    30   33   32 1
    31   34    1 2
    32   35    4 2
    33   36   37 ar
    34   37    6 1
    35   38   37 ar
    36   39   38 1
    37   40   38 ar
    38   41   40 1
    39   42   40 ar
    40   43   42 1
    41   44   36 ar
    42   45   44 1
    43   46    5 1
    44   47   46 1
    45   48   47 1
    46   49   47 1
    47   50   47 1
    48   51   50 1
    49   52   50 1
    50   53   50 1
    51   54   53 1
    52   55   53 1
    53   56   53 1
    54   57   35 1
    55   58   57 1
    56   11   20 ar
    57   18   20 ar
    58   32   34 1
    59   34   35 1
    60   42   44 ar
    61   46   57 2
@<TRIPOS>SUBSTRUCTURE
     1 RES1 1

@<TRIPOS>CRYSIN
   7.7200   16.2000   18.0580  90.0000  90.0000  90.0000  19 1

