# MOL2 file generated by ConQuest
# Please check atom types

@<TRIPOS>MOLECULE
VAYYAW
    27    27     1
SMALL
NO_CHARGES
****
Generated from CSD

@<TRIPOS>ATOM
      1 C1         1.8333    1.5447    7.3692 C.ar      1 RES1    0.0000
      2 C2         1.8950    0.2076    6.9550 C.ar      1 RES1    0.0000
      3 C3         2.8295   -0.1797    6.0003 C.ar      1 RES1    0.0000
      4 H1         2.8808   -1.0727    5.7427 H         1 RES1    0.0000
      5 C4         3.6717    0.7352    5.4359 C.ar      1 RES1    0.0000
      6 H2         4.2905    0.4743    4.7931 H         1 RES1    0.0000
      7 C5         3.5883    2.0514    5.8372 C.ar      1 RES1    0.0000
      8 C6         2.6978    2.4585    6.7850 C.ar      1 RES1    0.0000
      9 H3         2.6700    3.3514    7.0420 H         1 RES1    0.0000
     10 C7         0.8690    1.9447    8.3994 C.2       1 RES1    0.0000
     11 C8         0.0327    3.6483    9.8038 C.3       1 RES1    0.0000
     12 H4        -0.0585    2.9850   10.5049 H         1 RES1    0.0000
     13 H5        -0.8347    3.7770    9.3887 H         1 RES1    0.0000
     14 C9         0.5199    4.9274   10.3723 C.3       1 RES1    0.0000
     15 H6         0.7023    5.5409    9.6442 H         1 RES1    0.0000
     16 H7        -0.1867    5.3147   10.9127 H         1 RES1    0.0000
     17 C10        1.7234    4.8091   11.1945 C.3       1 RES1    0.0000
     18 H8         1.5505    4.2188   11.9329 H         1 RES1    0.0000
     19 H9         1.9698    5.6742   11.5270 H         1 RES1    0.0000
     20 H10        2.4402    4.4543   10.6626 H         1 RES1    0.0000
     21 H11        0.5273   -0.3131    8.0568 H         1 RES1    0.0000
     22 N1         4.4921    3.0371    5.2316 N.pl3     1 RES1    0.0000
     23 O1         1.0923   -0.7506    7.4459 O.3       1 RES1    0.0000
     24 O2         0.0238    1.1931    8.8391 O.2       1 RES1    0.0000
     25 O3         1.0015    3.1979    8.8106 O.3       1 RES1    0.0000
     26 O4         4.4634    4.1736    5.6403 O.2       1 RES1    0.0000
     27 O5         5.2340    2.6753    4.3428 O.2       1 RES1    0.0000
@<TRIPOS>BOND
     1    1    2 ar
     2    2    3 ar
     3    3    4 1
     4    5    3 ar
     5    6    5 1
     6    7    5 ar
     7    8    1 ar
     8    9    8 1
     9   10    1 1
    10   11   12 1
    11   13   11 1
    12   14   11 1
    13   15   14 1
    14   16   14 1
    15   17   14 1
    16   18   17 1
    17   19   17 1
    18   20   17 1
    19   21   23 1
    20   22    7 1
    21   23    2 1
    22   24   10 2
    23   25   10 1
    24   26   22 2
    25   27   22 2
    26    7    8 ar
    27   11   25 1
@<TRIPOS>SUBSTRUCTURE
     1 RES1 1

@<TRIPOS>CRYSIN
   5.1084   11.5966   18.1660  90.0000  94.0180  90.0000  14 1

