# MOL2 file generated by ConQuest
# Please check atom types

@<TRIPOS>MOLECULE
VAZBOP
    21    21     1
SMALL
NO_CHARGES
****
Generated from CSD

@<TRIPOS>ATOM
      1 O1         1.6871   -0.1130    4.9670 O.2       1 RES1    0.0000
      2 O2         0.4795    0.8166    6.5211 O.2       1 RES1    0.0000
      3 O3         3.5882    1.0184    7.0234 O.2       1 RES1    0.0000
      4 O4         3.3991    3.1681    7.2042 O.2       1 RES1    0.0000
      5 O5         4.1219    1.9313    4.3523 O.2       1 RES1    0.0000
      6 O6         2.2394    2.1744    3.2769 O.2       1 RES1    0.0000
      7 N1         1.3532    0.8068    5.6831 N.pl3     1 RES1    0.0000
      8 N2         3.1329    2.0964    6.7123 N.pl3     1 RES1    0.0000
      9 N3         2.9158    2.0600    4.2821 N.pl3     1 RES1    0.0000
     10 N4         1.8469    4.5226    5.1943 N.3       1 RES1    0.0000
     11 N5         1.4946    4.9787    3.9199 N.pl3     1 RES1    0.0000
     12 N6         0.2213    5.1400    3.5006 N.2       1 RES1    0.0000
     13 N7         0.3093    5.6447    2.3093 N.2       1 RES1    0.0000
     14 N8         1.6160    5.8214    1.9484 N.2       1 RES1    0.0000
     15 C1         2.1165    2.1120    5.5707 C.3       1 RES1    0.0000
     16 C2         1.1733    3.2932    5.5973 C.3       1 RES1    0.0000
     17 C3         2.3165    5.4021    2.9687 C.2       1 RES1    0.0000
     18 H1         0.7803    3.3344    6.4891 H         1 RES1    0.0000
     19 H2         3.2214    5.4044    3.0407 H         1 RES1    0.0000
     20 H3         0.4819    3.0793    5.0221 H         1 RES1    0.0000
     21 H4         1.7164    5.1556    5.8001 H         1 RES1    0.0000
@<TRIPOS>BOND
     1    1    7 2
     2    2    7 2
     3    3    8 2
     4    4    8 2
     5    5    9 2
     6    6    9 2
     7    7   15 1
     8    8   15 1
     9    9   15 1
    10   10   11 1
    11   11   12 1
    12   12   13 2
    13   13   14 1
    14   14   17 2
    15   15   16 1
    16   16   10 1
    17   17   11 1
    18   18   16 1
    19   19   17 1
    20   20   16 1
    21   21   10 1
@<TRIPOS>SUBSTRUCTURE
     1 RES1 1

@<TRIPOS>CRYSIN
   9.9097    7.7761   11.7846  90.0000  96.1240  90.0000  14 1

