# MOL2 file generated by ConQuest
# Please check atom types

@<TRIPOS>MOLECULE
VAZJOY
    45    48     1
SMALL
NO_CHARGES
****
Generated from CSD

@<TRIPOS>ATOM
      1 O1         8.3118    4.0093    8.4344 O.3       1 RES1    0.0000
      2 O2         5.9583    6.3109    7.4234 O.3       1 RES1    0.0000
      3 O3         7.8787    6.1023    6.3036 O.2       1 RES1    0.0000
      4 O4        10.3021    6.4575   11.1301 O.3       1 RES1    0.0000
      5 H1        10.7851    6.8758   11.6921 H         1 RES1    0.0000
      6 O5         8.3071    6.0638    9.3365 O.2       1 RES1    0.0000
      7 O6        12.0142    5.0406   11.0816 O.2       1 RES1    0.0000
      8 N1         5.2435    5.5530    8.4167 N.2       1 RES1    0.0000
      9 C1         7.0936    5.6545    7.0757 C.2       1 RES1    0.0000
     10 C2         5.7894    3.3251    5.7736 C.ar      1 RES1    0.0000
     11 C3         7.0791    4.2912    7.7598 C.3       1 RES1    0.0000
     12 C4         5.8767    4.4589    8.6423 C.2       1 RES1    0.0000
     13 C5        10.9033    5.3987   10.6928 C.2       1 RES1    0.0000
     14 C6         4.5361    2.8036    6.0809 C.ar      1 RES1    0.0000
     15 H2         4.4033    2.3512    6.9058 H         1 RES1    0.0000
     16 C7        10.1855    4.5819    9.6832 C.3       1 RES1    0.0000
     17 C8         8.8553    5.0083    9.1783 C.2       1 RES1    0.0000
     18 C9         6.9494    3.1656    6.7209 C.3       1 RES1    0.0000
     19 H3         7.7864    3.1235    6.1937 H         1 RES1    0.0000
     20 H4         6.8532    2.3032    7.1973 H         1 RES1    0.0000
     21 C10        5.3320    3.4748    9.5833 C.ar      1 RES1    0.0000
     22 C11        4.9082    4.1094    3.6716 C.ar      1 RES1    0.0000
     23 H5         5.0392    4.5598    2.8460 H         1 RES1    0.0000
     24 C12       11.1075    3.8842    8.6686 C.3       1 RES1    0.0000
     25 H6        10.7615    3.7492    7.7517 H         1 RES1    0.0000
     26 H7        12.0778    4.0767    8.7219 H         1 RES1    0.0000
     27 C13        5.9661    3.9680    4.5559 C.ar      1 RES1    0.0000
     28 H8         6.8206    4.3147    4.3275 H         1 RES1    0.0000
     29 C14       10.5125    3.0851    9.7451 C.3       1 RES1    0.0000
     30 H9        11.1100    2.7760   10.4710 H         1 RES1    0.0000
     31 H10        9.7949    2.4485    9.5009 H         1 RES1    0.0000
     32 C15        6.0815    2.3685    9.9587 C.ar      1 RES1    0.0000
     33 H11        6.9676    2.2629    9.6323 H         1 RES1    0.0000
     34 C16        3.4797    2.9379    5.1944 C.ar      1 RES1    0.0000
     35 H12        2.6279    2.5777    5.4123 H         1 RES1    0.0000
     36 C17        3.6624    3.5963    3.9886 C.ar      1 RES1    0.0000
     37 H13        2.9375    3.6948    3.3836 H         1 RES1    0.0000
     38 C18        4.0358    3.6282   10.0772 C.ar      1 RES1    0.0000
     39 H14        3.5170    4.3851    9.8306 H         1 RES1    0.0000
     40 C19        5.5405    1.4146   10.8113 C.ar      1 RES1    0.0000
     41 H15        6.0533    0.6551   11.0612 H         1 RES1    0.0000
     42 C20        4.2593    1.5700   11.2947 C.ar      1 RES1    0.0000
     43 H16        3.8900    0.9194   11.8809 H         1 RES1    0.0000
     44 C21        3.5116    2.6730   10.9282 C.ar      1 RES1    0.0000
     45 H17        2.6290    2.7754   11.2644 H         1 RES1    0.0000
@<TRIPOS>BOND
     1    1   11 1
     2    2    8 1
     3    3    9 2
     4    4    5 1
     5    6   17 2
     6    7   13 2
     7    8   12 2
     8    9    2 1
     9   10   14 ar
    10   11    9 1
    11   12   11 1
    12   13    4 1
    13   14   15 1
    14   16   13 1
    15   17    1 1
    16   18   10 1
    17   19   18 1
    18   20   18 1
    19   21   12 1
    20   22   23 1
    21   24   16 1
    22   25   24 1
    23   26   24 1
    24   27   10 ar
    25   28   27 1
    26   29   16 1
    27   30   29 1
    28   31   29 1
    29   32   21 ar
    30   33   32 1
    31   34   14 ar
    32   35   34 1
    33   36   22 ar
    34   37   36 1
    35   38   21 ar
    36   39   38 1
    37   40   32 ar
    38   41   40 1
    39   42   40 ar
    40   43   42 1
    41   44   38 ar
    42   45   44 1
    43   11   18 1
    44   16   17 1
    45   22   27 ar
    46   24   29 1
    47   34   36 ar
    48   42   44 ar
@<TRIPOS>SUBSTRUCTURE
     1 RES1 1

@<TRIPOS>CRYSIN
  11.9770    6.3979   23.8960  90.0000  90.3530  90.0000 231 1

