# MOL2 file generated by ConQuest
# Please check atom types

@<TRIPOS>MOLECULE
VAZKUF
    66    70     2
SMALL
NO_CHARGES
****
Generated from CSD

@<TRIPOS>ATOM
      1 O1         1.6185   12.4425   10.7305 O.3       1 RES1    0.0000
      2 O2         1.8561   16.3237   11.5082 O.3       1 RES1    0.0000
      3 O3         3.5738   15.2532    9.7343 O.2       1 RES1    0.0000
      4 O4         2.7028   14.7710   14.1221 O.2       1 RES1    0.0000
      5 N1         1.8179   12.8295   12.1200 N.3       1 RES1    0.0000
      6 N2         0.4563   15.2121   14.1949 N.am      1 RES1    0.0000
      7 N3         1.8630   14.9642   11.1929 N.am      1 RES1    0.0000
      8 C1        -0.2801   14.3104   12.2217 C.ar      1 RES1    0.0000
      9 C2         2.7953   14.5254   10.3165 C.2       1 RES1    0.0000
     10 C3         1.5991   14.7453   13.6366 C.2       1 RES1    0.0000
     11 C4         1.2245   14.1543   12.2321 C.3       1 RES1    0.0000
     12 C5        -0.6670   14.9671   13.3820 C.ar      1 RES1    0.0000
     13 C6        -1.2188   13.9371   11.2873 C.ar      1 RES1    0.0000
     14 H1        -0.9660   13.4970   10.5073 H         1 RES1    0.0000
     15 C7         2.7037   13.0331   10.0169 C.3       1 RES1    0.0000
     16 H2         3.5416   12.5952   10.2771 H         1 RES1    0.0000
     17 C8         1.8974   10.5325   12.9481 C.ar      1 RES1    0.0000
     18 C9         2.4526   12.8044    8.5433 C.ar      1 RES1    0.0000
     19 C10        1.1159   11.8162   12.9159 C.3       1 RES1    0.0000
     20 H3         0.2404   11.6521   12.5323 H         1 RES1    0.0000
     21 H4         0.9925   12.1433   13.8205 H         1 RES1    0.0000
     22 C11        0.9974   18.4600   11.1010 C.ar      1 RES1    0.0000
     23 C12       -1.9837   15.2878   13.6360 C.ar      1 RES1    0.0000
     24 H5        -2.2328   15.7420   14.4082 H         1 RES1    0.0000
     25 C13       -2.5523   14.2320   11.5370 C.ar      1 RES1    0.0000
     26 H6        -3.2035   13.9758   10.9241 H         1 RES1    0.0000
     27 C14        2.9733   10.3817   13.7810 C.ar      1 RES1    0.0000
     28 H7         3.2430   11.0861   14.3272 H         1 RES1    0.0000
     29 C15        0.9938   17.0591   10.5982 C.3       1 RES1    0.0000
     30 H8         0.0952   16.6935   10.6071 H         1 RES1    0.0000
     31 H9         1.3378   17.0189    9.6923 H         1 RES1    0.0000
     32 C16       -2.9228   14.9016   12.6879 C.ar      1 RES1    0.0000
     33 H10       -3.8199   15.0973   12.8305 H         1 RES1    0.0000
     34 C17        0.4235   15.9037   15.4656 C.3       1 RES1    0.0000
     35 H11        1.2646   15.7876   15.9136 H         1 RES1    0.0000
     36 H12       -0.2802   15.5430   16.0091 H         1 RES1    0.0000
     37 H13        0.2660   16.8386   15.3172 H         1 RES1    0.0000
     38 C18        3.3256   12.0899    7.7728 C.ar      1 RES1    0.0000
     39 H14        4.0985   11.7350    8.1493 H         1 RES1    0.0000
     40 C19        1.3487   13.3434    7.9506 C.ar      1 RES1    0.0000
     41 H15        0.7689   13.8660    8.4576 H         1 RES1    0.0000
     42 C20        1.5145    9.4723   12.1487 C.ar      1 RES1    0.0000
     43 H16        0.7733    9.5604   11.5943 H         1 RES1    0.0000
     44 C21        0.3163   18.7863   12.2531 C.ar      1 RES1    0.0000
     45 H17       -0.1791   18.1321   12.6915 H         1 RES1    0.0000
     46 C22        1.6916   19.4513   10.4609 C.ar      1 RES1    0.0000
     47 H18        2.1537   19.2619    9.6750 H         1 RES1    0.0000
     48 C23        1.9130   12.4099    5.8584 C.ar      1 RES1    0.0000
     49 H19        1.7235   12.2615    4.9605 H         1 RES1    0.0000
     50 C24        3.2788    8.1448   12.9825 C.ar      1 RES1    0.0000
     51 H20        3.7504    7.3424   12.9868 H         1 RES1    0.0000
     52 C25        3.6690    9.1660   13.8104 C.ar      1 RES1    0.0000
     53 H21        4.3907    9.0526   14.3865 H         1 RES1    0.0000
     54 C26        1.0727   13.1299    6.6118 C.ar      1 RES1    0.0000
     55 H22        0.3010   13.4866    6.2343 H         1 RES1    0.0000
     56 C27        2.2119    8.2912   12.1603 C.ar      1 RES1    0.0000
     57 H23        1.9523    7.5911   11.6059 H         1 RES1    0.0000
     58 C28        1.0556   21.0220   12.1284 C.ar      1 RES1    0.0000
     59 H24        1.0867   21.8821   12.4816 H         1 RES1    0.0000
     60 C29        3.0533   11.8946    6.4152 C.ar      1 RES1    0.0000
     61 H25        3.6486   11.4116    5.8884 H         1 RES1    0.0000
     62 C30        0.3560   20.0581   12.7653 C.ar      1 RES1    0.0000
     63 H26       -0.0993   20.2569   13.5528 H         1 RES1    0.0000
     64 C31        1.7080   20.7461   10.9849 C.ar      1 RES1    0.0000
     65 H27        2.1705   21.4198   10.5420 H         1 RES1    0.0000
     66 H28        2.7720   12.8523   12.3441 Du        2 SUP2    0.0000
@<TRIPOS>BOND
     1    1    5 1
     2    2    7 1
     3    3    9 2
     4    4   10 2
     5    5   11 1
     6    6   10 1
     7    7    9 1
     8    8   11 1
     9    9   15 1
    10   10   11 1
    11   11    7 1
    12   12    6 1
    13   13    8 ar
    14   14   13 1
    15   15    1 1
    16   16   15 1
    17   17   19 1
    18   18   15 1
    19   19    5 1
    20   20   19 1
    21   21   19 1
    22   22   29 1
    23   23   12 ar
    24   24   23 1
    25   25   13 ar
    26   26   25 1
    27   27   17 ar
    28   28   27 1
    29   29    2 1
    30   30   29 1
    31   31   29 1
    32   32   23 ar
    33   33   32 1
    34   34    6 1
    35   35   34 1
    36   36   34 1
    37   37   34 1
    38   38   18 ar
    39   39   38 1
    40   40   18 ar
    41   41   40 1
    42   42   17 ar
    43   43   42 1
    44   44   22 ar
    45   45   44 1
    46   46   22 ar
    47   47   46 1
    48   48   49 1
    49   50   51 1
    50   52   27 ar
    51   53   52 1
    52   54   40 ar
    53   55   54 1
    54   56   42 ar
    55   57   56 1
    56   58   59 1
    57   60   38 ar
    58   61   60 1
    59   62   44 ar
    60   63   62 1
    61   64   46 ar
    62   65   64 1
    63    8   12 ar
    64   25   32 ar
    65   48   54 ar
    66   48   60 ar
    67   50   52 ar
    68   50   56 ar
    69   58   62 ar
    70   58   64 ar
@<TRIPOS>SUBSTRUCTURE
     1 RES1 1
     2 SUP2 66

@<TRIPOS>CRYSIN
   8.9195   20.7295   14.8956  90.0000 103.6512  90.0000 231 1

