# MOL2 file generated by ConQuest
# Please check atom types

@<TRIPOS>MOLECULE
VAZMAL
    55    58     1
SMALL
NO_CHARGES
****
Generated from CSD

@<TRIPOS>ATOM
      1 N1         3.0554    3.1839   13.6493 N.3       1 RES1    0.0000
      2 O1         2.2299    3.0343   12.4709 O.3       1 RES1    0.0000
      3 C1         1.3566    1.9026   12.6239 C.3       1 RES1    0.0000
      4 C2         0.7051    1.7254   11.2860 C.ar      1 RES1    0.0000
      5 C3         1.3506    1.0296   10.2798 C.ar      1 RES1    0.0000
      6 C4         0.7718    0.9022    9.0281 C.ar      1 RES1    0.0000
      7 C5        -0.4535    1.4777    8.7747 C.ar      1 RES1    0.0000
      8 C6        -1.1069    2.1687    9.7730 C.ar      1 RES1    0.0000
      9 C7        -0.5308    2.2947   11.0214 C.ar      1 RES1    0.0000
     10 C8         2.8862    4.5557   14.1538 C.3       1 RES1    0.0000
     11 C9         1.5326    4.7191   14.8407 C.3       1 RES1    0.0000
     12 C10        1.2236    6.1519   15.1950 C.ar      1 RES1    0.0000
     13 C11        0.3722    6.9086   14.3987 C.ar      1 RES1    0.0000
     14 C12        0.1063    8.2375   14.6834 C.ar      1 RES1    0.0000
     15 C13        0.6861    8.8344   15.7842 C.ar      1 RES1    0.0000
     16 C14        1.5207    8.0969   16.6011 C.ar      1 RES1    0.0000
     17 C15        1.7931    6.7672   16.3104 C.ar      1 RES1    0.0000
     18 C16        4.1051    4.6542   15.0648 C.3       1 RES1    0.0000
     19 C17        5.2432    3.9330   14.2939 C.3       1 RES1    0.0000
     20 C18        6.0830    3.0131   15.1557 C.2       1 RES1    0.0000
     21 O2         7.2616    2.8149   15.0163 O.2       1 RES1    0.0000
     22 O3         5.3518    2.3775   16.0783 O.3       1 RES1    0.0000
     23 C19        6.0561    1.4269   16.9052 C.3       1 RES1    0.0000
     24 C20        6.1330    4.9225   13.4989 C.3       1 RES1    0.0000
     25 C21        5.6485    4.8245   12.0953 C.2       1 RES1    0.0000
     26 C22        4.7680    3.8630   11.9301 C.2       1 RES1    0.0000
     27 C23        4.4741    3.0927   13.1926 C.3       1 RES1    0.0000
     28 C24        4.8524    1.6259   13.0420 C.3       1 RES1    0.0000
     29 H1         0.6781    2.0769   13.3237 H         1 RES1    0.0000
     30 H2         1.8716    1.0951   12.8724 H         1 RES1    0.0000
     31 H3         2.1988    0.6360   10.4481 H         1 RES1    0.0000
     32 H4         1.2192    0.4179    8.3455 H         1 RES1    0.0000
     33 H5        -0.8470    1.3997    7.9142 H         1 RES1    0.0000
     34 H6        -1.9565    2.5586    9.6012 H         1 RES1    0.0000
     35 H7        -0.9849    2.7747   11.7038 H         1 RES1    0.0000
     36 H8         2.9688    5.2098   13.4019 H         1 RES1    0.0000
     37 H9         0.8231    4.3741   14.2421 H         1 RES1    0.0000
     38 H10        1.5224    4.1724   15.6654 H         1 RES1    0.0000
     39 H11       -0.0362    6.5045   13.6410 H         1 RES1    0.0000
     40 H12       -0.4739    8.7379   14.1214 H         1 RES1    0.0000
     41 H13        0.5119    9.7486   15.9782 H         1 RES1    0.0000
     42 H14        1.9114    8.5012   17.3658 H         1 RES1    0.0000
     43 H15        2.3729    6.2719   16.8764 H         1 RES1    0.0000
     44 H16        3.9316    4.2094   15.9313 H         1 RES1    0.0000
     45 H17        4.3409    5.6009   15.2341 H         1 RES1    0.0000
     46 H18        6.3912    0.6937   16.3469 H         1 RES1    0.0000
     47 H19        5.4461    1.0683   17.5825 H         1 RES1    0.0000
     48 H20        6.8093    1.8731   17.3456 H         1 RES1    0.0000
     49 H21        6.0269    5.8438   13.8443 H         1 RES1    0.0000
     50 H22        7.0869    4.6643   13.5606 H         1 RES1    0.0000
     51 H23        5.9447    5.3951   11.3954 H         1 RES1    0.0000
     52 H24        4.3560    3.6722   11.0960 H         1 RES1    0.0000
     53 H25        4.6291    1.1445   13.8667 H         1 RES1    0.0000
     54 H26        5.8147    1.5520   12.8701 H         1 RES1    0.0000
     55 H27        4.3568    1.2350   12.2914 H         1 RES1    0.0000
@<TRIPOS>BOND
     1    1    2 1
     2    2    3 1
     3    3    4 1
     4    4    5 ar
     5    5    6 ar
     6    6    7 ar
     7    7    8 ar
     8    8    9 ar
     9    9    4 ar
    10   10    1 1
    11   11   10 1
    12   12   11 1
    13   13   12 ar
    14   14   13 ar
    15   15   14 ar
    16   16   15 ar
    17   17   12 ar
    18   18   10 1
    19   19   18 1
    20   20   19 1
    21   21   20 2
    22   22   20 1
    23   23   22 1
    24   24   19 1
    25   25   24 1
    26   26   25 2
    27   27    1 1
    28   28   27 1
    29   29    3 1
    30   30    3 1
    31   31    5 1
    32   32    6 1
    33   33    7 1
    34   34    8 1
    35   35    9 1
    36   36   10 1
    37   37   11 1
    38   38   11 1
    39   39   13 1
    40   40   14 1
    41   41   15 1
    42   42   16 1
    43   43   17 1
    44   44   18 1
    45   45   18 1
    46   46   23 1
    47   47   23 1
    48   48   23 1
    49   49   24 1
    50   50   24 1
    51   51   25 1
    52   52   26 1
    53   53   28 1
    54   54   28 1
    55   55   28 1
    56   16   17 ar
    57   19   27 1
    58   26   27 1
@<TRIPOS>SUBSTRUCTURE
     1 RES1 1

@<TRIPOS>CRYSIN
   8.8410   20.5840   22.3440  90.0000  90.0000  90.0000  61 1

