# MOL2 file generated by ConQuest
# Please check atom types

@<TRIPOS>MOLECULE
VAZMEO
    50    51     1
SMALL
NO_CHARGES
****
Generated from CSD

@<TRIPOS>ATOM
      1 C1         7.2506    0.3622   11.3923 C.2       1 RES1    0.0000
      2 C2         5.8763   -0.1136   11.7825 C.2       1 RES1    0.0000
      3 C3         5.7407   -0.8713   12.8855 C.2       1 RES1    0.0000
      4 C4         6.8181   -1.1885   13.8713 C.3       1 RES1    0.0000
      5 C5         8.1294   -0.4510   13.5812 C.3       1 RES1    0.0000
      6 C6         8.4429   -0.2794   12.0849 C.3       1 RES1    0.0000
      7 C7         4.6744    0.3409   10.9557 C.3       1 RES1    0.0000
      8 C8         3.3809   -0.3137   11.4355 C.3       1 RES1    0.0000
      9 C9         4.5252    1.8503   11.1454 C.3       1 RES1    0.0000
     10 C10        4.8533    0.0036    9.4717 C.3       1 RES1    0.0000
     11 C11        6.3250   -1.0027   15.3182 C.3       1 RES1    0.0000
     12 C12        9.7077    0.5647   11.9214 C.3       1 RES1    0.0000
     13 C13        8.6612   -1.6940   11.4478 C.3       1 RES1    0.0000
     14 C14        9.2014   -1.7011   10.0301 C.ar      1 RES1    0.0000
     15 C15        8.3540   -1.6881    8.9426 C.ar      1 RES1    0.0000
     16 C16        8.8536   -1.7343    7.6576 C.ar      1 RES1    0.0000
     17 C17       10.2007   -1.7686    7.4277 C.ar      1 RES1    0.0000
     18 C18       11.0557   -1.7769    8.5029 C.ar      1 RES1    0.0000
     19 C19       10.5682   -1.7508    9.7941 C.ar      1 RES1    0.0000
     20 N1         7.1562   -2.7002   13.8126 N.pl3     1 RES1    0.0000
     21 N2         8.0477    0.9234   14.2075 N.pl3     1 RES1    0.0000
     22 O1         7.4161    1.1921   10.5130 O.2       1 RES1    0.0000
     23 O2         6.3608   -3.4449   13.2203 O.2       1 RES1    0.0000
     24 O3         8.1422   -3.1513   14.4004 O.2       1 RES1    0.0000
     25 O4         7.3004    1.7520   13.7031 O.2       1 RES1    0.0000
     26 O5         8.7352    1.1542   15.1809 O.2       1 RES1    0.0000
     27 H1         4.8711   -1.2418   13.0552 H         1 RES1    0.0000
     28 H2         8.8333   -0.9897   13.9515 H         1 RES1    0.0000
     29 H3         3.1697   -0.0722   12.3610 H         1 RES1    0.0000
     30 H4         3.4288   -1.2892   11.3552 H         1 RES1    0.0000
     31 H5         2.6809    0.0284   10.8400 H         1 RES1    0.0000
     32 H6         4.4091    2.0089   12.1050 H         1 RES1    0.0000
     33 H7         3.7290    2.1581   10.6641 H         1 RES1    0.0000
     34 H8         5.3111    2.3404   10.8261 H         1 RES1    0.0000
     35 H9         4.0404    0.2782    8.9981 H         1 RES1    0.0000
     36 H10        4.9494   -0.9707    9.4177 H         1 RES1    0.0000
     37 H11        5.6312    0.4321    9.0583 H         1 RES1    0.0000
     38 H12        6.1050   -0.0509   15.3984 H         1 RES1    0.0000
     39 H13        7.0465   -1.2240   15.9430 H         1 RES1    0.0000
     40 H14        5.5327   -1.5389   15.5311 H         1 RES1    0.0000
     41 H15       10.4401    0.0781   12.3549 H         1 RES1    0.0000
     42 H16        9.6024    1.4419   12.3471 H         1 RES1    0.0000
     43 H17        9.9126    0.6854   10.9711 H         1 RES1    0.0000
     44 H18        7.8163   -2.1498   11.4432 H         1 RES1    0.0000
     45 H19        9.2807   -2.1758   12.0016 H         1 RES1    0.0000
     46 H20        7.4047   -1.6467    9.0799 H         1 RES1    0.0000
     47 H21        8.2470   -1.7437    6.9140 H         1 RES1    0.0000
     48 H22       10.5420   -1.7864    6.5315 H         1 RES1    0.0000
     49 H23       12.0034   -1.8017    8.3548 H         1 RES1    0.0000
     50 H24       11.1790   -1.7686   10.5346 H         1 RES1    0.0000
@<TRIPOS>BOND
     1    1    2 1
     2    2    3 2
     3    3    4 1
     4    4    5 1
     5    5    6 1
     6    6    1 1
     7    7    2 1
     8    8    7 1
     9    9    7 1
    10   10    7 1
    11   11    4 1
    12   12    6 1
    13   13    6 1
    14   14   13 1
    15   15   14 ar
    16   16   15 ar
    17   17   16 ar
    18   18   17 ar
    19   19   14 ar
    20   20    4 1
    21   21    5 1
    22   22    1 2
    23   23   20 2
    24   24   20 2
    25   25   21 2
    26   26   21 2
    27   27    3 1
    28   28    5 1
    29   29    8 1
    30   30    8 1
    31   31    8 1
    32   32    9 1
    33   33    9 1
    34   34    9 1
    35   35   10 1
    36   36   10 1
    37   37   10 1
    38   38   11 1
    39   39   11 1
    40   40   11 1
    41   41   12 1
    42   42   12 1
    43   43   12 1
    44   44   13 1
    45   45   13 1
    46   46   15 1
    47   47   16 1
    48   48   17 1
    49   49   18 1
    50   50   19 1
    51   18   19 ar
@<TRIPOS>SUBSTRUCTURE
     1 RES1 1

@<TRIPOS>CRYSIN
  10.2440   11.8380   15.4360  90.0000  92.0400  90.0000  14 2

