# MOL2 file generated by ConQuest
# Please check atom types

@<TRIPOS>MOLECULE
VAZRIX
    62    63     1
SMALL
NO_CHARGES
****
Generated from CSD

@<TRIPOS>ATOM
      1 O1         1.9407    2.2069    2.8298 O.3       1 RES1    0.0000
      2 O2         0.8729    0.7882    4.1785 O.2       1 RES1    0.0000
      3 O3        -0.6193    4.8276    7.3500 O.2       1 RES1    0.0000
      4 N1        -0.0089    4.4182    6.3189 N.3       1 RES1    0.0000
      5 C1         2.3638    1.0859    2.0593 C.3       1 RES1    0.0000
      6 C2         1.3291    0.6087    1.1624 C.1       1 RES1    0.0000
      7 C3         0.4970    0.2124    0.4277 C.1       1 RES1    0.0000
      8 C4         1.1732    1.9048    3.9082 C.2       1 RES1    0.0000
      9 C5         0.8142    3.0958    4.6718 C.2       1 RES1    0.0000
     10 C6        -0.0545    3.0236    5.8787 C.3       1 RES1    0.0000
     11 C7         0.6951    5.3159    5.4037 C.3       1 RES1    0.0000
     12 C8         1.1934    4.3241    4.4102 C.2       1 RES1    0.0000
     13 C9        -1.5041    2.6251    5.5523 C.3       1 RES1    0.0000
     14 C10        0.4675    2.1281    7.0015 C.3       1 RES1    0.0000
     15 C11        1.8316    6.0537    6.1287 C.3       1 RES1    0.0000
     16 C12       -0.2648    6.3449    4.8022 C.3       1 RES1    0.0000
     17 H1         2.6229    0.3831    2.6463 H         1 RES1    0.0000
     18 H2         3.1363    1.3180    1.5621 H         1 RES1    0.0000
     19 H3         1.7272    4.5956    3.6736 H         1 RES1    0.0000
     20 H4        -1.5273    1.7187    5.2675 H         1 RES1    0.0000
     21 H5        -1.8375    3.1834    4.8601 H         1 RES1    0.0000
     22 H6        -2.0424    2.7258    6.3295 H         1 RES1    0.0000
     23 H7         0.4405    1.2217    6.7196 H         1 RES1    0.0000
     24 H8        -0.0770    2.2376    7.7710 H         1 RES1    0.0000
     25 H9         1.3634    2.3689    7.2071 H         1 RES1    0.0000
     26 H10        2.2757    6.6273    5.5166 H         1 RES1    0.0000
     27 H11        2.4491    5.4188    6.4724 H         1 RES1    0.0000
     28 H12        1.4705    6.5660    6.8412 H         1 RES1    0.0000
     29 H13        0.2140    6.9141    4.2113 H         1 RES1    0.0000
     30 H14       -0.6488    6.8616    5.4983 H         1 RES1    0.0000
     31 H15       -0.9491    5.8939    4.3223 H         1 RES1    0.0000
     32 C3B       -0.4970   -0.2124   -0.4277 C.1       1 RES1    0.0000
     33 C2B       -1.3291   -0.6087   -1.1624 C.1       1 RES1    0.0000
     34 C1B       -2.3638   -1.0859   -2.0593 C.3       1 RES1    0.0000
     35 O1B       -1.9407   -2.2069   -2.8298 O.3       1 RES1    0.0000
     36 H1B       -2.6229   -0.3831   -2.6463 H         1 RES1    0.0000
     37 H2B       -3.1363   -1.3180   -1.5621 H         1 RES1    0.0000
     38 C4B       -1.1732   -1.9048   -3.9082 C.2       1 RES1    0.0000
     39 O2B       -0.8729   -0.7882   -4.1785 O.2       1 RES1    0.0000
     40 C5B       -0.8142   -3.0958   -4.6718 C.2       1 RES1    0.0000
     41 C6B        0.0545   -3.0236   -5.8787 C.3       1 RES1    0.0000
     42 C8B       -1.1934   -4.3241   -4.4102 C.2       1 RES1    0.0000
     43 N1B        0.0089   -4.4182   -6.3189 N.3       1 RES1    0.0000
     44 C9B        1.5041   -2.6251   -5.5523 C.3       1 RES1    0.0000
     45 C10B      -0.4675   -2.1281   -7.0015 C.3       1 RES1    0.0000
     46 C7B       -0.6951   -5.3159   -5.4037 C.3       1 RES1    0.0000
     47 H3B       -1.7272   -4.5956   -3.6736 H         1 RES1    0.0000
     48 O3B        0.6193   -4.8276   -7.3500 O.2       1 RES1    0.0000
     49 H4B        1.5273   -1.7187   -5.2675 H         1 RES1    0.0000
     50 H5B        1.8375   -3.1834   -4.8601 H         1 RES1    0.0000
     51 H6B        2.0424   -2.7258   -6.3295 H         1 RES1    0.0000
     52 H7B       -0.4405   -1.2217   -6.7196 H         1 RES1    0.0000
     53 H8B        0.0770   -2.2376   -7.7710 H         1 RES1    0.0000
     54 H9B       -1.3634   -2.3689   -7.2071 H         1 RES1    0.0000
     55 C11B      -1.8316   -6.0537   -6.1287 C.3       1 RES1    0.0000
     56 C12B       0.2648   -6.3449   -4.8022 C.3       1 RES1    0.0000
     57 H10B      -2.2757   -6.6273   -5.5166 H         1 RES1    0.0000
     58 H11B      -2.4491   -5.4188   -6.4724 H         1 RES1    0.0000
     59 H12B      -1.4705   -6.5660   -6.8412 H         1 RES1    0.0000
     60 H13B      -0.2140   -6.9141   -4.2113 H         1 RES1    0.0000
     61 H14B       0.6488   -6.8616   -5.4983 H         1 RES1    0.0000
     62 H15B       0.9491   -5.8939   -4.3223 H         1 RES1    0.0000
@<TRIPOS>BOND
     1    1    5 1
     2    2    8 2
     3    3    4 1
     4    4   10 1
     5    5    6 1
     6    6    7 3
     7    7   32 1
     8    8    1 1
     9    9    8 1
    10   10    9 1
    11   11    4 1
    12   12    9 2
    13   13   10 1
    14   14   10 1
    15   15   11 1
    16   16   11 1
    17   17    5 1
    18   18    5 1
    19   19   12 1
    20   20   13 1
    21   21   13 1
    22   22   13 1
    23   23   14 1
    24   24   14 1
    25   25   14 1
    26   26   15 1
    27   27   15 1
    28   28   15 1
    29   29   16 1
    30   30   16 1
    31   31   16 1
    32   32   33 3
    33   33   34 1
    34   34   35 1
    35   35   38 1
    36   36   34 1
    37   37   34 1
    38   38   39 2
    39   40   38 1
    40   41   40 1
    41   42   40 2
    42   43   41 1
    43   44   41 1
    44   45   41 1
    45   46   42 1
    46   47   42 1
    47   48   43 1
    48   49   44 1
    49   50   44 1
    50   51   44 1
    51   52   45 1
    52   53   45 1
    53   54   45 1
    54   55   46 1
    55   56   46 1
    56   57   55 1
    57   58   55 1
    58   59   55 1
    59   60   56 1
    60   61   56 1
    61   62   56 1
    62   11   12 1
    63   43   46 1
@<TRIPOS>SUBSTRUCTURE
     1 RES1 1

@<TRIPOS>CRYSIN
   5.8670   21.8940    9.7110  90.0000  96.1800  90.0000 231 1

