# MOL2 file generated by ConQuest
# Please check atom types

@<TRIPOS>MOLECULE
VEBDIQ
    31    31     1
SMALL
NO_CHARGES
****
Generated from CSD

@<TRIPOS>ATOM
      1 O1        -0.5721    6.7442    1.3418 O.3       1 RES1    0.0000
      2 O2         1.3318    5.5940    1.0994 O.2       1 RES1    0.0000
      3 O3         2.3507    7.1368    4.8779 O.3       1 RES1    0.0000
      4 O4         5.7560    1.3421    2.8671 O.2       1 RES1    0.0000
      5 O5         6.9275    2.7957    1.7911 O.2       1 RES1    0.0000
      6 N1         5.9441    2.4783    2.4465 N.pl3     1 RES1    0.0000
      7 C1         0.5941    6.3879    1.7556 C.2       1 RES1    0.0000
      8 C2         1.0211    6.9580    3.0317 C.2       1 RES1    0.0000
      9 C3         2.1113    6.5121    3.7038 C.2       1 RES1    0.0000
     10 C4         0.2099    8.0866    3.6124 C.3       1 RES1    0.0000
     11 C5         3.4049    6.6975    5.7440 C.3       1 RES1    0.0000
     12 C6         3.3511    7.5059    6.9900 C.3       1 RES1    0.0000
     13 C7         3.0672    5.4413    3.3036 C.ar      1 RES1    0.0000
     14 C8         2.8243    4.1110    3.6320 C.ar      1 RES1    0.0000
     15 C9         3.7617    3.1332    3.3519 C.ar      1 RES1    0.0000
     16 C10        4.9413    3.5071    2.7425 C.ar      1 RES1    0.0000
     17 C11        5.2140    4.8213    2.4058 C.ar      1 RES1    0.0000
     18 C12        4.2687    5.7828    2.6957 C.ar      1 RES1    0.0000
     19 H1         0.5579    8.9417    3.2847 H         1 RES1    0.0000
     20 H2         0.2708    8.0632    4.5903 H         1 RES1    0.0000
     21 H3        -0.7266    7.9896    3.3413 H         1 RES1    0.0000
     22 H4         4.2825    6.8178    5.2993 H         1 RES1    0.0000
     23 H5         3.2930    5.7372    5.9562 H         1 RES1    0.0000
     24 H6         3.9062    8.3062    6.8850 H         1 RES1    0.0000
     25 H7         3.6861    6.9721    7.7405 H         1 RES1    0.0000
     26 H8         2.4244    7.7711    7.1667 H         1 RES1    0.0000
     27 H9         2.0067    3.8727    4.0526 H         1 RES1    0.0000
     28 H10        3.5963    2.2255    3.5746 H         1 RES1    0.0000
     29 H11        6.0324    5.0550    1.9844 H         1 RES1    0.0000
     30 H12        4.4416    6.6905    2.4767 H         1 RES1    0.0000
     31 H13       -0.7549    6.5305    0.4546 H         1 RES1    0.0000
@<TRIPOS>BOND
     1    1    7 1
     2    2    7 2
     3    3    9 1
     4    4    6 2
     5    5    6 2
     6    6   16 1
     7    7    8 1
     8    8    9 2
     9    9   13 1
    10   10    8 1
    11   11    3 1
    12   12   11 1
    13   13   14 ar
    14   14   15 ar
    15   15   16 ar
    16   16   17 ar
    17   17   18 ar
    18   18   13 ar
    19   19   10 1
    20   20   10 1
    21   21   10 1
    22   22   11 1
    23   23   11 1
    24   24   12 1
    25   25   12 1
    26   26   12 1
    27   27   14 1
    28   28   15 1
    29   29   17 1
    30   30   18 1
    31   31    1 1
@<TRIPOS>SUBSTRUCTURE
     1 RES1 1

@<TRIPOS>CRYSIN
  13.5842   11.6824    7.5787  90.0000  94.8997  90.0000  14 1

