# MOL2 file generated by ConQuest
# Please check atom types

@<TRIPOS>MOLECULE
VEBVOO
    40    42     1
SMALL
NO_CHARGES
****
Generated from CSD

@<TRIPOS>ATOM
      1 H1         0.6998    0.1914    5.5401 H         1 RES1    0.0000
      2 O1         4.7168    2.5582    4.7168 O.3       1 RES1    0.0000
      3 O2         0.9488    0.6226    5.0668 O.3       1 RES1    0.0000
      4 O3         3.0866    1.0463    6.9494 O.3       1 RES1    0.0000
      5 O4         7.7945   -0.3968    5.4029 O.3       1 RES1    0.0000
      6 N1         5.7400    1.7837    3.9787 N.3       1 RES1    0.0000
      7 O5         4.1540   -0.8587    7.1628 O.2       1 RES1    0.0000
      8 C1         3.6052    1.6766    4.7312 C.3       1 RES1    0.0000
      9 H2         3.1065    1.6957    3.8880 H         1 RES1    0.0000
     10 C2         5.6950    0.4708    4.6753 C.3       1 RES1    0.0000
     11 H3         5.9411   -0.2284    4.0334 H         1 RES1    0.0000
     12 C3         7.2332    1.9458    5.8226 C.3       1 RES1    0.0000
     13 H4         6.7101    2.4766    6.4446 H         1 RES1    0.0000
     14 H5         8.1702    2.0045    6.0648 H         1 RES1    0.0000
     15 C4         7.0078    2.3949    4.3972 C.3       1 RES1    0.0000
     16 H6         6.9518    3.3620    4.3502 H         1 RES1    0.0000
     17 H7         7.7334    2.0976    3.8277 H         1 RES1    0.0000
     18 C5         3.8578    0.0600    6.4706 C.2       1 RES1    0.0000
     19 C6         8.3809   -1.2670    6.3644 C.3       1 RES1    0.0000
     20 C7         6.7602    0.4963    5.8010 C.3       1 RES1    0.0000
     21 H8         6.3742    0.2335    6.6630 H         1 RES1    0.0000
     22 C8         4.1945    0.3113    5.0154 C.3       1 RES1    0.0000
     23 H9         3.7812   -0.3687    4.4437 H         1 RES1    0.0000
     24 C9         2.7271    1.9981    5.9238 C.3       1 RES1    0.0000
     25 H10        2.9274    2.9040    6.2384 H         1 RES1    0.0000
     26 C10        1.2383    1.8794    5.6589 C.3       1 RES1    0.0000
     27 H11        0.7514    1.9675    6.4927 H         1 RES1    0.0000
     28 H12        0.9547    2.5927    5.0662 H         1 RES1    0.0000
     29 C11        9.0741   -0.4721    7.4393 C.3       1 RES1    0.0000
     30 H13        8.4243    0.0408    7.9264 H         1 RES1    0.0000
     31 H14        9.7135    0.1199    7.0379 H         1 RES1    0.0000
     32 H15        9.5241   -1.0705    8.0397 H         1 RES1    0.0000
     33 C12        7.3363   -2.1372    7.0633 C.3       1 RES1    0.0000
     34 H16        6.8899   -2.6858    6.4142 H         1 RES1    0.0000
     35 H17        6.6932   -1.5745    7.5012 H         1 RES1    0.0000
     36 H18        7.7680   -2.6960    7.7135 H         1 RES1    0.0000
     37 C13        9.4210   -2.0427    5.6219 C.3       1 RES1    0.0000
     38 H19        9.0011   -2.5710    4.9396 H         1 RES1    0.0000
     39 H20        9.8851   -2.6195    6.2323 H         1 RES1    0.0000
     40 H21       10.0457   -1.4354    5.2177 H         1 RES1    0.0000
@<TRIPOS>BOND
     1    1    3 1
     2    2    6 1
     3    3   26 1
     4    4   18 1
     5    5   19 1
     6    6   10 1
     7    7   18 2
     8    8    2 1
     9    9    8 1
    10   10   11 1
    11   12   13 1
    12   14   12 1
    13   15    6 1
    14   16   15 1
    15   17   15 1
    16   18   22 1
    17   19   29 1
    18   20    5 1
    19   21   20 1
    20   22    8 1
    21   23   22 1
    22   24    4 1
    23   25   24 1
    24   26   24 1
    25   27   26 1
    26   28   26 1
    27   29   30 1
    28   31   29 1
    29   32   29 1
    30   33   19 1
    31   34   33 1
    32   35   33 1
    33   36   33 1
    34   37   19 1
    35   38   37 1
    36   39   37 1
    37   40   37 1
    38    8   24 1
    39   10   20 1
    40   10   22 1
    41   12   15 1
    42   12   20 1
@<TRIPOS>SUBSTRUCTURE
     1 RES1 1

@<TRIPOS>CRYSIN
  14.7330   14.7330    5.5290  90.0000  90.0000 120.0000 145 1

