# MOL2 file generated by ConQuest
# Please check atom types

@<TRIPOS>MOLECULE
VEBWAB
    46    49     1
SMALL
NO_CHARGES
****
Generated from CSD

@<TRIPOS>ATOM
      1 O1        -1.2456    1.9837    8.2230 O.2       1 RES1    0.0000
      2 N1         0.1258    1.1866    6.1352 N.pl3     1 RES1    0.0000
      3 H1        -0.6609    1.4873    6.3894 H         1 RES1    0.0000
      4 O2        -0.3858    1.8694   10.2104 O.2       1 RES1    0.0000
      5 C1         3.0367    0.2026    8.9161 C.ar      1 RES1    0.0000
      6 O3         5.0674   -0.7510    9.4729 O.2       1 RES1    0.0000
      7 O4         3.8649    0.0883   11.0682 O.2       1 RES1    0.0000
      8 N2         4.0569   -0.1748    9.8819 N.pl3     1 RES1    0.0000
      9 C2         1.0612    0.8781    7.0584 C.ar      1 RES1    0.0000
     10 N3        -0.3209    1.6845    9.0022 N.pl3     1 RES1    0.0000
     11 C3         0.8864    1.0976    8.4463 C.ar      1 RES1    0.0000
     12 N4         0.4068    1.0294    4.7816 N.2       1 RES1    0.0000
     13 C4         2.2953    0.3034    6.6503 C.ar      1 RES1    0.0000
     14 H2         2.4523    0.1459    5.7273 H         1 RES1    0.0000
     15 C5         3.2577   -0.0263    7.5579 C.ar      1 RES1    0.0000
     16 H3         4.0762   -0.4108    7.2661 H         1 RES1    0.0000
     17 C6        -0.6116    1.1865    4.0098 C.2       1 RES1    0.0000
     18 C7         1.8766    0.7632    9.3693 C.ar      1 RES1    0.0000
     19 H4         1.7465    0.9222   10.2976 H         1 RES1    0.0000
     20 C8        -1.3739   -0.0196    2.0656 C.2       1 RES1    0.0000
     21 C9        -2.0308    1.4475    4.4312 C.3       1 RES1    0.0000
     22 H5        -2.0935    2.3209    4.8921 H         1 RES1    0.0000
     23 H6        -2.3361    0.7408    5.0545 H         1 RES1    0.0000
     24 C10       -0.4481    1.0914    2.5168 C.3       1 RES1    0.0000
     25 H7         0.5009    0.9083    2.2606 H         1 RES1    0.0000
     26 C11       -3.7226   -0.8445    2.1610 C.3       1 RES1    0.0000
     27 H8        -4.3160   -0.5050    1.4452 H         1 RES1    0.0000
     28 H9        -4.2703   -0.9639    2.9779 H         1 RES1    0.0000
     29 C12       -2.6581    0.1561    2.4290 C.2       1 RES1    0.0000
     30 C13       -2.9028    1.4520    3.1699 C.3       1 RES1    0.0000
     31 H10       -3.8689    1.5484    3.4070 H         1 RES1    0.0000
     32 C14       -0.9493    2.4377    1.9302 C.3       1 RES1    0.0000
     33 H11       -0.4159    3.1853    2.3004 H         1 RES1    0.0000
     34 H12       -0.8398    2.4372    0.9456 H         1 RES1    0.0000
     35 C15       -0.8783   -1.2109    1.3202 C.3       1 RES1    0.0000
     36 H13       -0.3543   -1.7853    1.9326 H         1 RES1    0.0000
     37 H14       -0.2783   -0.9140    0.5901 H         1 RES1    0.0000
     38 C16       -2.4354    2.6265    2.2906 C.3       1 RES1    0.0000
     39 H15       -2.5565    3.4790    2.7786 H         1 RES1    0.0000
     40 H16       -2.9783    2.6624    1.4636 H         1 RES1    0.0000
     41 C17       -3.1472   -2.1958    1.7410 C.3       1 RES1    0.0000
     42 H17       -2.8011   -2.6694    2.5380 H         1 RES1    0.0000
     43 H18       -3.8636   -2.7498    1.3410 H         1 RES1    0.0000
     44 C18       -2.0249   -2.0170    0.7320 C.3       1 RES1    0.0000
     45 H19       -2.3751   -1.5536   -0.0705 H         1 RES1    0.0000
     46 H20       -1.6918   -2.9053    0.4506 H         1 RES1    0.0000
@<TRIPOS>BOND
     1    1   10 2
     2    2    3 1
     3    4   10 2
     4    5    8 1
     5    6    8 2
     6    7    8 2
     7    9    2 1
     8   10   11 1
     9   11    9 ar
    10   12    2 1
    11   13    9 ar
    12   14   13 1
    13   15    5 ar
    14   16   15 1
    15   17   12 2
    16   18    5 ar
    17   19   18 1
    18   20   24 1
    19   21   17 1
    20   22   21 1
    21   23   21 1
    22   24   17 1
    23   25   24 1
    24   26   27 1
    25   28   26 1
    26   29   20 2
    27   30   21 1
    28   31   30 1
    29   32   24 1
    30   33   32 1
    31   34   32 1
    32   35   20 1
    33   36   35 1
    34   37   35 1
    35   38   30 1
    36   39   38 1
    37   40   38 1
    38   41   26 1
    39   42   41 1
    40   43   41 1
    41   44   35 1
    42   45   44 1
    43   46   44 1
    44   11   18 ar
    45   13   15 ar
    46   26   29 1
    47   29   30 1
    48   32   38 1
    49   41   44 1
@<TRIPOS>SUBSTRUCTURE
     1 RES1 1

@<TRIPOS>CRYSIN
   6.9383    8.0459   15.8440  96.1530 101.6880 101.9790   2 1

