# MOL2 file generated by ConQuest
# Please check atom types

@<TRIPOS>MOLECULE
VECCOV
    55    53     2
SMALL
NO_CHARGES
****
Generated from CSD

@<TRIPOS>ATOM
      1 C1         0.1393    1.0871    7.9320 C.ar      1 RES1    0.0000
      2 C2        -0.2235    0.0318    8.7351 C.ar      1 RES1    0.0000
      3 C3        -1.5513   -0.3914    8.8024 C.ar      1 RES1    0.0000
      4 C4        -2.5276    0.2705    8.0834 C.ar      1 RES1    0.0000
      5 C5        -2.1400    1.3215    7.2908 C.ar      1 RES1    0.0000
      6 N1        -3.1649    2.0862    6.5256 N.pl3     1 RES1    0.0000
      7 O1        -4.3299    1.9557    6.9082 O.2       1 RES1    0.0000
      8 O2        -2.8031    2.7883    5.5859 O.2       1 RES1    0.0000
      9 C6        -0.8235    1.7457    7.1605 C.ar      1 RES1    0.0000
     10 N2         1.4832    1.5623    7.8543 N.am      1 RES1    0.0000
     11 C7         1.7781    2.9198    7.9278 C.2       1 RES1    0.0000
     12 O3         0.9566    3.7959    8.0771 O.2       1 RES1    0.0000
     13 C8         3.2775    3.0906    7.8416 C.3       1 RES1    0.0000
     14 C9         3.8035    1.7235    7.3981 C.3       1 RES1    0.0000
     15 C10        5.2128    1.3703    7.8501 C.ar      1 RES1    0.0000
     16 C11        5.7353    1.8030    9.0652 C.ar      1 RES1    0.0000
     17 C12        7.0042    1.3989    9.4751 C.ar      1 RES1    0.0000
     18 C13        7.7738    0.6056    8.6636 C.ar      1 RES1    0.0000
     19 C14        7.2672    0.1697    7.4401 C.ar      1 RES1    0.0000
     20 C15        5.9850    0.5494    7.0323 C.ar      1 RES1    0.0000
     21 C16        2.6789    0.7138    7.8669 C.3       1 RES1    0.0000
     22 C17        3.0058    0.2291    9.3238 C.2       1 RES1    0.0000
     23 O4         2.5764    0.7658   10.2845 O.2       1 RES1    0.0000
     24 O5         3.8743   -0.7742    9.2838 O.3       1 RES1    0.0000
     25 C18        4.4794   -1.1232   10.5726 C.3       1 RES1    0.0000
     26 C19        5.5738   -2.1053   10.2698 C.3       1 RES1    0.0000
     27 C20        2.5192   -0.4327    6.7989 C.2       1 RES1    0.0000
     28 O6         2.8049   -0.2736    5.6636 O.2       1 RES1    0.0000
     29 O7         2.0025   -1.5103    7.3392 O.3       1 RES1    0.0000
     30 C21        1.7925   -2.6027    6.3532 C.3       1 RES1    0.0000
     31 C22        1.4641   -3.7397    6.9397 Du        2 SUP2    0.0000
     32 C23        0.3769   -2.4563    5.9559 C.3       1 RES1    0.0000
     33 H1         0.4548   -0.5091    9.4394 H         1 RES1    0.0000
     34 H2        -1.7729   -1.2197    9.5445 H         1 RES1    0.0000
     35 H3        -3.5821    0.0000    8.2831 H         1 RES1    0.0000
     36 H4        -0.5384    2.5560    6.4331 H         1 RES1    0.0000
     37 H5         3.5899    3.4151    8.8928 H         1 RES1    0.0000
     38 H6         3.5308    3.9454    7.1479 H         1 RES1    0.0000
     39 H7         3.7559    1.7076    6.3280 H         1 RES1    0.0000
     40 H8         5.1498    2.4288    9.7337 H         1 RES1    0.0000
     41 H9         7.3773    1.7924   10.4359 H         1 RES1    0.0000
     42 H10        8.7932    0.2652    8.9769 H         1 RES1    0.0000
     43 H11        7.9150   -0.4561    6.7484 H         1 RES1    0.0000
     44 H12        5.5748    0.2015    6.0547 H         1 RES1    0.0000
     45 H13        4.8251   -0.2651   10.9320 H         1 RES1    0.0000
     46 H14        3.7161   -1.5379   11.1843 H         1 RES1    0.0000
     47 H15        5.2121   -2.8848    9.8388 H         1 RES1    0.0000
     48 H16        5.9390   -2.3545   11.1213 H         1 RES1    0.0000
     49 H17        6.2506   -1.7500    9.7127 H         1 RES1    0.0000
     50 H18        2.1183   -3.9136    7.6104 Du        2 SUP2    0.0000
     51 H19        1.2862   -4.5394    6.4331 Du        2 SUP2    0.0000
     52 H20        0.6580   -3.4469    7.3581 Du        2 SUP2    0.0000
     53 H21        0.2954   -1.7288    5.3399 H         1 RES1    0.0000
     54 H22       -0.2138   -2.3121    6.6854 H         1 RES1    0.0000
     55 H23        0.1456   -3.2773    5.5081 H         1 RES1    0.0000
@<TRIPOS>BOND
     1    1    2 ar
     2    2    3 ar
     3    3    4 ar
     4    4    5 ar
     5    5    6 1
     6    6    7 2
     7    8    6 2
     8    9    1 ar
     9   10    1 1
    10   11   10 1
    11   12   11 2
    12   13   11 1
    13   14   13 1
    14   15   14 1
    15   16   15 ar
    16   17   16 ar
    17   18   17 ar
    18   19   18 ar
    19   20   15 ar
    20   21   10 1
    21   22   21 1
    22   23   22 2
    23   24   22 1
    24   25   24 1
    25   26   25 1
    26   27   21 1
    27   28   27 2
    28   29   27 1
    29   30   29 1
    30   32   30 1
    31   33    2 1
    32   34    3 1
    33   35    4 1
    34   36    9 1
    35   37   13 1
    36   38   13 1
    37   39   14 1
    38   40   16 1
    39   41   17 1
    40   42   18 1
    41   43   19 1
    42   44   20 1
    43   45   25 1
    44   46   25 1
    45   47   26 1
    46   48   26 1
    47   49   26 1
    48   53   32 1
    49   54   32 1
    50   55   32 1
    51    5    9 ar
    52   14   21 1
    53   19   20 ar
@<TRIPOS>SUBSTRUCTURE
     1 RES1 1
     2 SUP2 31

@<TRIPOS>CRYSIN
  18.6180   10.6060   21.1630  90.0000  96.5900  90.0000  15 1

