# MOL2 file generated by ConQuest
# Please check atom types

@<TRIPOS>MOLECULE
VECGIV
    18    19     1
SMALL
NO_CHARGES
****
Generated from CSD

@<TRIPOS>ATOM
      1 H1         0.6611    1.7410   12.1640 H         1 RES1    0.0000
      2 O1        -0.2168    1.9695    7.5367 O.2       1 RES1    0.0000
      3 O2        -1.9955    3.1725    7.8795 O.2       1 RES1    0.0000
      4 N1        -1.5211    3.2182   10.5722 N.2       1 RES1    0.0000
      5 N2         0.2717    1.8628   10.1791 N.2       1 RES1    0.0000
      6 N3        -1.0070    2.5707    8.2728 N.pl3     1 RES1    0.0000
      7 N4         0.1425    2.1151   11.4988 N.pl3     1 RES1    0.0000
      8 C1        -0.7426    2.5497    9.7018 C.2       1 RES1    0.0000
      9 C2        -0.9182    2.9193   11.7173 C.2       1 RES1    0.0000
     10 H1B       -2.8860    4.5670   12.5898 H         1 RES1    0.0000
     11 O1B       -2.0081    4.3385   17.2171 O.2       1 RES1    0.0000
     12 O2B       -0.2294    3.1355   16.8743 O.2       1 RES1    0.0000
     13 N1B       -0.7038    3.0898   14.1816 N.2       1 RES1    0.0000
     14 N2B       -2.4966    4.4452   14.5747 N.2       1 RES1    0.0000
     15 N3B       -1.2179    3.7373   16.4810 N.pl3     1 RES1    0.0000
     16 N4B       -2.3674    4.1929   13.2550 N.pl3     1 RES1    0.0000
     17 C1B       -1.4823    3.7583   15.0521 C.2       1 RES1    0.0000
     18 C2B       -1.3067    3.3887   13.0365 C.2       1 RES1    0.0000
@<TRIPOS>BOND
     1    1    7 1
     2    2    6 2
     3    3    6 2
     4    4    8 1
     5    5    7 1
     6    6    8 1
     7    7    9 1
     8    8    5 2
     9    9    4 2
    10   10   16 1
    11   11   15 2
    12   12   15 2
    13   13   17 1
    14   14   16 1
    15   15   17 1
    16   16   18 1
    17   17   14 2
    18   18    9 1
    19   13   18 2
@<TRIPOS>SUBSTRUCTURE
     1 RES1 1

@<TRIPOS>CRYSIN
   5.0559    6.3080   12.4268  90.0000  95.1360  90.0000 231 1

