# MOL2 file generated by ConQuest
# Please check atom types

@<TRIPOS>MOLECULE
VECXEI
    28    28     2
SMALL
NO_CHARGES
****
Generated from CSD

@<TRIPOS>ATOM
      1 O1         0.0000    5.8540    2.5229 O.2       1 RES1    0.0000
      2 O2         0.0000    5.6076    0.3143 O.3       1 RES1    0.0000
      3 N1         0.0000    3.5193    5.9653 N.pl3     1 RES1    0.0000
      4 H1         0.0000    4.0527    6.6386 H         1 RES1    0.0000
      5 N2         0.0000    4.5299   -0.6250 N.2       1 RES1    0.0000
      6 C1         0.0000    2.1352    6.0465 C.ar      1 RES1    0.0000
      7 C2         0.0000    1.3181    7.1747 C.ar      1 RES1    0.0000
      8 H2         0.0000    1.6675    8.0357 H         1 RES1    0.0000
      9 C3         0.0000   -0.0284    6.9428 C.ar      1 RES1    0.0000
     10 H3         0.0000   -0.6121    7.6670 H         1 RES1    0.0000
     11 C4         0.0000   -0.5549    5.6577 C.ar      1 RES1    0.0000
     12 H4         0.0000   -1.4756    5.5451 H         1 RES1    0.0000
     13 C5         0.0000    0.2560    4.5498 C.ar      1 RES1    0.0000
     14 H5         0.0000   -0.1075    3.6943 H         1 RES1    0.0000
     15 C6         0.0000    1.6380    4.7421 C.ar      1 RES1    0.0000
     16 C7         0.0000    2.7805    3.8528 C.2       1 RES1    0.0000
     17 C8         0.0000    3.8977    4.6871 C.2       1 RES1    0.0000
     18 H6         0.0000    4.7800    4.3956 H         1 RES1    0.0000
     19 C9         0.0000    2.7010    2.4456 C.2       1 RES1    0.0000
     20 H7         0.0000    1.8306    2.1183 H         1 RES1    0.0000
     21 C10        0.0000    3.6605    1.4709 C.2       1 RES1    0.0000
     22 C11        0.0000    5.0943    1.5896 C.2       1 RES1    0.0000
     23 C12        0.0000    3.4314    0.0575 C.2       1 RES1    0.0000
     24 C13        0.0000    2.1302   -0.6570 C.3       1 RES1    0.0000
     25 H8        -0.8838    1.7558   -0.6416 H         1 RES1    0.0000
     26 H9         0.6097    1.5274   -0.2241 Du        2 SUP2    0.0000
     27 H10        0.2740    2.2643   -1.5670 Du        2 SUP2    0.0000
     28 H8J        0.8838    1.7558   -0.6416 H         1 RES1    0.0000
@<TRIPOS>BOND
     1    1   22 2
     2    2    5 1
     3    3    4 1
     4    5   23 2
     5    6    3 1
     6    7    6 ar
     7    8    7 1
     8    9    7 ar
     9   10    9 1
    10   11    9 ar
    11   12   11 1
    12   13   11 ar
    13   14   13 1
    14   15    6 ar
    15   16   15 1
    16   17    3 1
    17   18   17 1
    18   19   16 1
    19   20   19 1
    20   21   19 2
    21   22    2 1
    22   23   21 1
    23   24   23 1
    24   25   24 1
    25   28   24 1
    26   13   15 ar
    27   16   17 2
    28   21   22 1
@<TRIPOS>SUBSTRUCTURE
     1 RES1 1
     2 SUP2 26

@<TRIPOS>CRYSIN
   6.6348   19.1890   18.0740  90.0000  90.0000  90.0000  64 1

