# MOL2 file generated by ConQuest
# Please check atom types

@<TRIPOS>MOLECULE
VEDVOS
    24    25     1
SMALL
NO_CHARGES
****
Generated from CSD

@<TRIPOS>ATOM
      1 O1         1.1688    6.8072    5.9106 O.2       1 RES1    0.0000
      2 O2         3.2502    6.7975    5.3109 O.2       1 RES1    0.0000
      3 O3         0.0123    2.4810   12.6634 O.2       1 RES1    0.0000
      4 O4         1.8260    2.5836   13.8537 O.2       1 RES1    0.0000
      5 N1         6.0332    4.5493    7.2522 N.2       1 RES1    0.0000
      6 N2         5.5004    4.0874    8.3179 N.2       1 RES1    0.0000
      7 N3         4.1581    4.4615    8.3368 N.pl3     1 RES1    0.0000
      8 N4         2.5576    5.6068    7.1102 N.2       1 RES1    0.0000
      9 N5         2.3362    6.4279    6.0580 N.pl3     1 RES1    0.0000
     10 N6         5.4048    5.7214    5.3364 N.1       1 RES1    0.0000
     11 N7         5.7586    6.0538    4.3469 N.2       1 RES1    0.0000
     12 N8         1.2146    2.7175   12.7994 N.pl3     1 RES1    0.0000
     13 C1         3.8240    5.1874    7.2273 C.2       1 RES1    0.0000
     14 C2         5.0714    5.2432    6.5680 C.2       1 RES1    0.0000
     15 C3         3.3643    4.0666    9.4554 C.ar      1 RES1    0.0000
     16 C4         2.0295    3.7081    9.2927 C.ar      1 RES1    0.0000
     17 H1         1.6149    3.7632    8.4402 H         1 RES1    0.0000
     18 C5         1.3177    3.2708   10.3940 C.ar      1 RES1    0.0000
     19 H2         0.4037    3.0239   10.3103 H         1 RES1    0.0000
     20 C6         1.9592    3.1987   11.6244 C.ar      1 RES1    0.0000
     21 C7         3.2782    3.5713   11.7968 C.ar      1 RES1    0.0000
     22 H3         3.6888    3.5215   12.6511 H         1 RES1    0.0000
     23 C8         3.9866    4.0183   10.6969 C.ar      1 RES1    0.0000
     24 H4         4.8918    4.2897   10.7892 H         1 RES1    0.0000
@<TRIPOS>BOND
     1    1    9 2
     2    2    9 2
     3    3   12 2
     4    4   12 2
     5    5    6 2
     6    6    7 1
     7    7   13 1
     8    8    9 1
     9   10   11 2
    10   12   20 1
    11   13    8 2
    12   14    5 1
    13   15    7 1
    14   16   15 ar
    15   17   16 1
    16   18   16 ar
    17   19   18 1
    18   20   18 ar
    19   21   20 ar
    20   22   21 1
    21   23   15 ar
    22   24   23 1
    23   10   14 2
    24   13   14 1
    25   21   23 ar
@<TRIPOS>SUBSTRUCTURE
     1 RES1 1

@<TRIPOS>CRYSIN
   6.8311    7.4371   20.5508  90.0000  90.0000  90.0000  19 1

