# MOL2 file generated by ConQuest
# Please check atom types

@<TRIPOS>MOLECULE
VEDVUY
    22    24     1
SMALL
NO_CHARGES
****
Generated from CSD

@<TRIPOS>ATOM
      1 O1         0.5407   -1.5019    0.5854 O.2       1 RES1    0.0000
      2 O2         2.7845   -2.5275    4.2345 O.2       1 RES1    0.0000
      3 N1         2.5205    1.8425    2.8683 N.2       1 RES1    0.0000
      4 N2         1.8892    2.2206    1.7371 N.pl3     1 RES1    0.0000
      5 N3         1.2996    1.2645    1.0131 N.2       1 RES1    0.0000
      6 C1         1.5785    0.1864    1.7460 C.2       1 RES1    0.0000
      7 N4         1.2321   -1.1282    1.5494 N.pl3     1 RES1    0.0000
      8 N5         1.6399   -2.0463    2.4255 N.2       1 RES1    0.0000
      9 N6         2.4186   -1.5982    3.5054 N.pl3     1 RES1    0.0000
     10 N7         2.7574   -0.3696    3.8084 N.2       1 RES1    0.0000
     11 C2         2.3150    0.5188    2.8750 C.2       1 RES1    0.0000
     12 C3         1.8490    3.5981    1.3478 C.ar      1 RES1    0.0000
     13 C4         2.4041    4.5470    2.2011 C.ar      1 RES1    0.0000
     14 H1         2.8051    4.2853    3.0215 H         1 RES1    0.0000
     15 C5         2.3592    5.8710    1.8318 C.ar      1 RES1    0.0000
     16 H2         2.7275    6.5324    2.4055 H         1 RES1    0.0000
     17 C6         1.7768    6.2494    0.6232 C.ar      1 RES1    0.0000
     18 H3         1.7519    7.1658    0.3720 H         1 RES1    0.0000
     19 C7         1.2351    5.2859   -0.2094 C.ar      1 RES1    0.0000
     20 H4         0.8393    5.5476   -1.0326 H         1 RES1    0.0000
     21 C8         1.2616    3.9451    0.1387 C.ar      1 RES1    0.0000
     22 H5         0.8891    3.2836   -0.4328 H         1 RES1    0.0000
@<TRIPOS>BOND
     1    1    7 1
     2    2    9 1
     3    3    4 1
     4    4    5 1
     5    5    6 2
     6    6    7 1
     7    7    8 2
     8    8    9 1
     9    9   10 2
    10   10   11 1
    11   11    3 2
    12   12    4 1
    13   13   12 ar
    14   14   13 1
    15   15   13 ar
    16   16   15 1
    17   17   15 ar
    18   18   17 1
    19   19   17 ar
    20   20   19 1
    21   21   12 ar
    22   22   21 1
    23    6   11 1
    24   19   21 ar
@<TRIPOS>SUBSTRUCTURE
     1 RES1 1

@<TRIPOS>CRYSIN
  14.6482   11.2299    5.5695  90.0000  90.0000  90.0000  29 1

