# MOL2 file generated by ConQuest
# Please check atom types

@<TRIPOS>MOLECULE
VEDWEJ
    22    23     1
SMALL
NO_CHARGES
****
Generated from CSD

@<TRIPOS>ATOM
      1 O1         3.9599    5.2743    4.1598 O.2       1 RES1    0.0000
      2 O2         4.4645    3.7275    5.6078 O.2       1 RES1    0.0000
      3 N1         2.0841    0.4598    6.0248 N.2       1 RES1    0.0000
      4 N2         0.8785    0.8977    5.9366 N.2       1 RES1    0.0000
      5 N3         0.9118    2.1903    5.4605 N.pl3     1 RES1    0.0000
      6 N4         2.4017    3.8113    4.6722 N.2       1 RES1    0.0000
      7 N5         3.6605    4.2636    4.8189 N.pl3     1 RES1    0.0000
      8 N6         4.2492    1.2333    5.5614 N.1       1 RES1    0.0000
      9 N7         5.3187    0.9552    5.5261 N.2       1 RES1    0.0000
     10 C1         2.1861    2.6114    5.2355 C.2       1 RES1    0.0000
     11 C2         2.9145    1.4703    5.6183 C.2       1 RES1    0.0000
     12 C3        -0.3107    2.9230    5.2746 C.ar      1 RES1    0.0000
     13 C4        -0.4140    4.2061    5.7938 C.ar      1 RES1    0.0000
     14 H1         0.3126    4.5976    6.2641 H         1 RES1    0.0000
     15 C5        -1.5955    4.9043    5.6148 C.ar      1 RES1    0.0000
     16 H2        -1.6828    5.7837    5.9636 H         1 RES1    0.0000
     17 C6        -2.6539    4.3251    4.9275 C.ar      1 RES1    0.0000
     18 H3        -3.4621    4.8097    4.8080 H         1 RES1    0.0000
     19 C7        -2.5341    3.0407    4.4148 C.ar      1 RES1    0.0000
     20 H4        -3.2612    2.6498    3.9444 H         1 RES1    0.0000
     21 C8        -1.3549    2.3235    4.5862 C.ar      1 RES1    0.0000
     22 H5        -1.2665    1.4430    4.2393 H         1 RES1    0.0000
@<TRIPOS>BOND
     1    1    7 2
     2    2    7 2
     3    3    4 2
     4    4    5 1
     5    5   10 1
     6    6    7 1
     7    8    9 2
     8   10    6 2
     9   11    3 1
    10   12    5 1
    11   13   12 ar
    12   14   13 1
    13   15   13 ar
    14   16   15 1
    15   17   15 ar
    16   18   17 1
    17   19   17 ar
    18   20   19 1
    19   21   12 ar
    20   22   21 1
    21    8   11 2
    22   10   11 1
    23   19   21 ar
@<TRIPOS>SUBSTRUCTURE
     1 RES1 1

@<TRIPOS>CRYSIN
  10.1563    6.5058   14.4551  90.0000 103.7320  90.0000  14 1

