# MOL2 file generated by ConQuest
# Please check atom types

@<TRIPOS>MOLECULE
VEDYEL
    40    41     1
SMALL
NO_CHARGES
****
Generated from CSD

@<TRIPOS>ATOM
      1 O1         1.5490    7.5621    0.4657 O.3       1 RES1    0.0000
      2 C1         6.9034    8.9763   -8.3254 C.ar      1 RES1    0.0000
      3 H1         6.1125    8.5249   -8.1379 H         1 RES1    0.0000
      4 C2         3.7376    8.2086   -3.0024 C.ar      1 RES1    0.0000
      5 C3         8.4865    9.7795   -9.8876 C.ar      1 RES1    0.0000
      6 N1         8.9346    9.9036  -11.2770 N.pl3     1 RES1    0.0000
      7 C4         7.6484    9.5157   -7.2695 C.ar      1 RES1    0.0000
      8 C5         7.3146    9.0976   -9.6280 C.ar      1 RES1    0.0000
      9 H2         6.8143    8.7288  -10.3200 H         1 RES1    0.0000
     10 N2         5.9591    9.0837   -5.7066 N.2       1 RES1    0.0000
     11 N3         5.5456    8.9926   -4.3673 N.2       1 RES1    0.0000
     12 C6         8.8267   10.1890   -7.5882 C.ar      1 RES1    0.0000
     13 H3         9.3428   10.5493   -6.9028 H         1 RES1    0.0000
     14 C7         7.1991    9.3715   -5.8699 C.2       1 RES1    0.0000
     15 O2         8.3641    9.2524  -12.1374 O.2       1 RES1    0.0000
     16 C8         3.5944    8.3878   -0.5968 C.ar      1 RES1    0.0000
     17 H4         3.9727    8.6446    0.2134 H         1 RES1    0.0000
     18 C9         4.2835    8.5787   -1.7682 C.ar      1 RES1    0.0000
     19 H5         5.1294    8.9616   -1.7405 H         1 RES1    0.0000
     20 O3         9.8578   10.6510  -11.5256 O.2       1 RES1    0.0000
     21 C10        1.7674    7.4414   -1.8430 C.ar      1 RES1    0.0000
     22 C11        2.3234    7.8049   -0.6245 C.ar      1 RES1    0.0000
     23 C12        9.2454   10.3323   -8.8899 C.ar      1 RES1    0.0000
     24 H6        10.0274   10.7939   -9.0885 H         1 RES1    0.0000
     25 C13        2.4626    7.6325   -3.0033 C.ar      1 RES1    0.0000
     26 C14        4.4129    8.4187   -4.2708 C.2       1 RES1    0.0000
     27 C15        2.0657    7.8527    1.7710 C.3       1 RES1    0.0000
     28 C16        1.0111    7.4621    2.7502 C.3       1 RES1    0.0000
     29 C17        8.1773    9.5680   -4.7549 C.3       1 RES1    0.0000
     30 H7         9.0409    9.7744   -5.1198 H         1 RES1    0.0000
     31 H8         7.8842   10.2925   -4.1969 H         1 RES1    0.0000
     32 H9         8.2334    8.7647   -4.2329 H         1 RES1    0.0000
     33 H10        0.9089    7.0482   -1.8569 H         1 RES1    0.0000
     34 H11        2.0324    7.4339   -3.9170 H         1 RES1    0.0000
     35 H12        3.9414    8.1236   -5.0995 H         1 RES1    0.0000
     36 H13        2.2712    8.8050    1.8846 H         1 RES1    0.0000
     37 H14        2.8533    7.3043    1.9215 H         1 RES1    0.0000
     38 H15        0.2262    7.9847    2.6329 H         1 RES1    0.0000
     39 H16        1.3634    7.6245    3.6953 H         1 RES1    0.0000
     40 H17        0.7490    6.5063    2.7068 H         1 RES1    0.0000
@<TRIPOS>BOND
     1    1   22 1
     2    2    3 1
     3    4   18 ar
     4    5    6 1
     5    6   15 2
     6    7    2 ar
     7    8    2 ar
     8    9    8 1
     9   10   11 1
    10   11   26 2
    11   12    7 ar
    12   13   12 1
    13   14    7 1
    14   16   17 1
    15   18   16 ar
    16   19   18 1
    17   20    6 2
    18   21   22 ar
    19   22   16 ar
    20   23    5 ar
    21   24   23 1
    22   25    4 ar
    23   26    4 1
    24   27    1 1
    25   28   27 1
    26   29   14 1
    27   30   29 1
    28   31   29 1
    29   32   29 1
    30   33   21 1
    31   34   25 1
    32   35   26 1
    33   36   27 1
    34   37   27 1
    35   38   28 1
    36   39   28 1
    37   40   28 1
    38    5    8 ar
    39   10   14 2
    40   12   23 ar
    41   21   25 ar
@<TRIPOS>SUBSTRUCTURE
     1 RES1 1

@<TRIPOS>CRYSIN
   9.3470    9.9490   10.1940 106.1900 101.6900 110.1000   2 1

