# MOL2 file generated by ConQuest
# Please check atom types

@<TRIPOS>MOLECULE
VEDZAH
    34    36     1
SMALL
NO_CHARGES
****
Generated from CSD

@<TRIPOS>ATOM
      1 C1         4.0342    2.9441    3.6485 C.2       1 RES1    0.0000
      2 C2         5.1253    2.8997    4.5722 C.2       1 RES1    0.0000
      3 C3         5.0180    3.6735    5.7504 C.2       1 RES1    0.0000
      4 C4         3.9056    4.4492    5.9880 C.2       1 RES1    0.0000
      5 H1         3.8505    4.9701    6.7802 H         1 RES1    0.0000
      6 C5         2.8424    4.4712    5.0503 C.2       1 RES1    0.0000
      7 H2         2.0793    5.0084    5.2283 H         1 RES1    0.0000
      8 C6         2.8877    3.7345    3.8890 C.2       1 RES1    0.0000
      9 H3         2.1699    3.7572    3.2680 H         1 RES1    0.0000
     10 N1         4.2638    2.1473    2.5786 N.2       1 RES1    0.0000
     11 N2         5.4715    1.6135    2.8331 N.pl3     1 RES1    0.0000
     12 C7         6.0390    2.0180    3.9892 C.2       1 RES1    0.0000
     13 H4         6.8843    1.7567    4.3345 H         1 RES1    0.0000
     14 N3         6.0878    3.6459    6.7349 N.pl3     1 RES1    0.0000
     15 O1         7.1018    3.0042    6.4559 O.2       1 RES1    0.0000
     16 O2         5.9300    4.2405    7.7990 O.2       1 RES1    0.0000
     17 C8         6.0918    0.7281    1.8347 C.3       1 RES1    0.0000
     18 H5         5.3916    0.1779    1.4024 H         1 RES1    0.0000
     19 H6         6.7272    0.1173    2.2857 H         1 RES1    0.0000
     20 C9         6.8229    1.5259    0.7839 C.ar      1 RES1    0.0000
     21 C10        8.1566    1.8754    0.9787 C.ar      1 RES1    0.0000
     22 H7         8.6085    1.5707    1.7572 H         1 RES1    0.0000
     23 C11        8.8422    2.6638    0.0544 C.ar      1 RES1    0.0000
     24 H8         9.7496    2.9003    0.2042 H         1 RES1    0.0000
     25 C12        8.1789    3.1006   -1.0924 C.ar      1 RES1    0.0000
     26 C13        6.8457    2.7353   -1.3115 C.ar      1 RES1    0.0000
     27 H9         6.3992    3.0202   -2.1004 H         1 RES1    0.0000
     28 C14        6.1755    1.9573   -0.3771 C.ar      1 RES1    0.0000
     29 H10        5.2693    1.7159   -0.5285 H         1 RES1    0.0000
     30 O3         8.7526    3.8627   -2.0708 O.3       1 RES1    0.0000
     31 C15       10.0775    4.3422   -1.8330 C.3       1 RES1    0.0000
     32 H11       10.3759    4.8715   -2.6015 H         1 RES1    0.0000
     33 H12       10.6819    3.5815   -1.7056 H         1 RES1    0.0000
     34 H13       10.0829    4.9017   -1.0286 H         1 RES1    0.0000
@<TRIPOS>BOND
     1    1    2 1
     2    2    3 1
     3    3    4 2
     4    4    5 1
     5    6    4 1
     6    7    6 1
     7    8    1 1
     8    9    8 1
     9   10    1 2
    10   11   10 1
    11   12    2 2
    12   13   12 1
    13   14    3 1
    14   15   14 2
    15   16   14 2
    16   17   11 1
    17   18   17 1
    18   19   17 1
    19   20   17 1
    20   21   20 ar
    21   22   21 1
    22   23   21 ar
    23   24   23 1
    24   25   23 ar
    25   26   25 ar
    26   27   26 1
    27   28   20 ar
    28   29   28 1
    29   30   25 1
    30   31   30 1
    31   32   31 1
    32   33   31 1
    33   34   31 1
    34    6    8 2
    35   11   12 1
    36   26   28 ar
@<TRIPOS>SUBSTRUCTURE
     1 RES1 1

@<TRIPOS>CRYSIN
   6.8994    9.8052   11.1525  71.7290  79.4360  74.3490   2 1

