# MOL2 file generated by ConQuest
# Please check atom types

@<TRIPOS>MOLECULE
VEFDAN
    52    54     1
SMALL
NO_CHARGES
****
Generated from CSD

@<TRIPOS>ATOM
      1 C1         0.4085    5.9213   20.5230 C.2       1 RES1    0.0000
      2 C2        -0.9709    5.8743   21.1830 C.3       1 RES1    0.0000
      3 H1        -1.3572    4.9893   21.0135 H         1 RES1    0.0000
      4 C3        -1.9417    6.9247   20.6261 C.3       1 RES1    0.0000
      5 H2        -1.6082    7.7983   20.9187 H         1 RES1    0.0000
      6 C4        -1.9170    6.9360   19.0779 C.3       1 RES1    0.0000
      7 H3        -2.4911    7.6703   18.7735 H         1 RES1    0.0000
      8 C5        -0.4950    7.1978   18.5576 C.3       1 RES1    0.0000
      9 H4        -0.3107    8.1468   18.7201 H         1 RES1    0.0000
     10 C6        -0.7467    6.0048   22.6801 C.2       1 RES1    0.0000
     11 C7         0.0385    7.4474   24.3777 C.3       1 RES1    0.0000
     12 H5        -0.6174    7.0843   24.9780 H         1 RES1    0.0000
     13 H6         0.1461    8.3851   24.5513 H         1 RES1    0.0000
     14 H7         0.8780    6.9992   24.5118 H         1 RES1    0.0000
     15 C8        -3.3664    6.7982   21.1636 C.ar      1 RES1    0.0000
     16 C9        -3.8756    5.6222   21.6952 C.ar      1 RES1    0.0000
     17 H8        -3.3327    4.8701   21.7444 H         1 RES1    0.0000
     18 C10       -5.1912    5.5501   22.1584 C.ar      1 RES1    0.0000
     19 H9        -5.5262    4.7510   22.4970 H         1 RES1    0.0000
     20 C11       -5.9903    6.6734   22.1096 C.ar      1 RES1    0.0000
     21 H10       -6.8645    6.6288   22.4239 H         1 RES1    0.0000
     22 C12       -5.5059    7.8705   21.5950 C.ar      1 RES1    0.0000
     23 H11       -6.0494    8.6250   21.5725 H         1 RES1    0.0000
     24 C13       -4.2011    7.9304   21.1134 C.ar      1 RES1    0.0000
     25 C14       -4.3701   10.2735   20.6212 C.3       1 RES1    0.0000
     26 H12       -5.1907   10.1730   20.1365 H         1 RES1    0.0000
     27 H13       -3.8517   10.9802   20.2293 H         1 RES1    0.0000
     28 H14       -4.5631   10.4891   21.5370 H         1 RES1    0.0000
     29 C15       -0.3443    6.9806   17.0559 C.ar      1 RES1    0.0000
     30 C16       -0.7455    8.0123   16.1923 C.ar      1 RES1    0.0000
     31 C17       -0.5850    7.8907   14.8139 C.ar      1 RES1    0.0000
     32 H15       -0.8418    8.5804   14.2460 H         1 RES1    0.0000
     33 C18       -0.0324    6.7196   14.2986 C.ar      1 RES1    0.0000
     34 H16        0.0758    6.6296   13.3789 H         1 RES1    0.0000
     35 C19        0.3604    5.6879   15.1328 C.ar      1 RES1    0.0000
     36 H17        0.7293    4.9114   14.7774 H         1 RES1    0.0000
     37 C20        0.2003    5.8208   16.5145 C.ar      1 RES1    0.0000
     38 H18        0.4618    5.1278   17.0767 H         1 RES1    0.0000
     39 C21       -1.5075   10.2841   16.0149 C.3       1 RES1    0.0000
     40 H19       -0.6972   10.5110   15.5557 H         1 RES1    0.0000
     41 H20       -1.7653   11.0119   16.5848 H         1 RES1    0.0000
     42 H21       -2.2005   10.1163   15.3739 H         1 RES1    0.0000
     43 N1         0.5156    6.4447   19.3015 N.am      1 RES1    0.0000
     44 H22        1.3220    6.4919   18.9690 H         1 RES1    0.0000
     45 N2        -2.4890    5.6459   18.5392 N.pl3     1 RES1    0.0000
     46 O1         1.3688    5.4358   21.1344 O.2       1 RES1    0.0000
     47 O2        -0.4009    7.2555   23.0044 O.3       1 RES1    0.0000
     48 O3        -0.8337    5.0945   23.4633 O.2       1 RES1    0.0000
     49 O4        -3.6300    9.0504   20.5657 O.3       1 RES1    0.0000
     50 O5        -1.8600    4.6091   18.6974 O.2       1 RES1    0.0000
     51 O6        -3.5720    5.6953   17.9843 O.2       1 RES1    0.0000
     52 O7        -1.2953    9.1103   16.8063 O.3       1 RES1    0.0000
@<TRIPOS>BOND
     1    1    2 1
     2    2    3 1
     3    4    2 1
     4    5    4 1
     5    6    4 1
     6    7    6 1
     7    8    6 1
     8    9    8 1
     9   10    2 1
    10   11   12 1
    11   13   11 1
    12   14   11 1
    13   15    4 1
    14   16   15 ar
    15   17   16 1
    16   18   16 ar
    17   19   18 1
    18   20   18 ar
    19   21   20 1
    20   22   20 ar
    21   23   22 1
    22   24   15 ar
    23   25   26 1
    24   27   25 1
    25   28   25 1
    26   29    8 1
    27   30   29 ar
    28   31   30 ar
    29   32   31 1
    30   33   31 ar
    31   34   33 1
    32   35   33 ar
    33   36   35 1
    34   37   29 ar
    35   38   37 1
    36   39   40 1
    37   41   39 1
    38   42   39 1
    39   43    1 1
    40   44   43 1
    41   45    6 1
    42   46    1 2
    43   47   10 1
    44   48   10 2
    45   49   24 1
    46   50   45 2
    47   51   45 2
    48   52   30 1
    49    8   43 1
    50   11   47 1
    51   22   24 ar
    52   25   49 1
    53   35   37 ar
    54   39   52 1
@<TRIPOS>SUBSTRUCTURE
     1 RES1 1

@<TRIPOS>CRYSIN
  31.6090    8.1047   20.5420  90.0000 105.9290  90.0000  15 1

