# MOL2 file generated by ConQuest
# Please check atom types

@<TRIPOS>MOLECULE
VEGBEO
    14    14     1
SMALL
NO_CHARGES
****
Generated from CSD

@<TRIPOS>ATOM
      1 C1         2.5762   10.2567   -0.4376 C.ar      1 RES1    0.0000
      2 C2         2.2101   11.5278   -0.8116 C.ar      1 RES1    0.0000
      3 C3         3.0693   12.3096   -1.5363 C.ar      1 RES1    0.0000
      4 C4         4.2965   11.7928   -1.8862 C.ar      1 RES1    0.0000
      5 C5         4.6829   10.5372   -1.5073 C.ar      1 RES1    0.0000
      6 C6         3.8111    9.7532   -0.7917 C.ar      1 RES1    0.0000
      7 C7         1.6061    9.4131    0.3764 C.2       1 RES1    0.0000
      8 N1         1.1417    9.6792    1.5040 N.2       1 RES1    0.0000
      9 C8         1.5647   10.8950    2.2279 C.3       1 RES1    0.0000
     10 N2         1.2064    8.3088   -0.3028 N.3       1 RES1    0.0000
     11 C9         0.2928    7.3613    0.2639 C.3       1 RES1    0.0000
     12 N3         5.2079   12.6354   -2.6614 N.pl3     1 RES1    0.0000
     13 O1         6.2964   12.2268   -2.8922 O.2       1 RES1    0.0000
     14 O2         4.8462   13.7110   -3.0121 O.2       1 RES1    0.0000
@<TRIPOS>BOND
     1    1    2 ar
     2    2    3 ar
     3    3    4 ar
     4    4    5 ar
     5    5    6 ar
     6    6    1 ar
     7    7    1 1
     8    8    7 2
     9    9    8 1
    10   10    7 1
    11   11   10 1
    12   12    4 1
    13   13   12 2
    14   14   12 2
@<TRIPOS>SUBSTRUCTURE
     1 RES1 1

@<TRIPOS>CRYSIN
  10.8550   11.0430    8.5930  90.0000 105.6900  90.0000  14 1

