# MOL2 file generated by ConQuest
# Please check atom types

@<TRIPOS>MOLECULE
VEHTOR
    57    59     1
SMALL
NO_CHARGES
****
Generated from CSD

@<TRIPOS>ATOM
      1 C1         0.8953    3.0405    2.3275 C.3       1 RES1    0.0000
      2 C2         1.3849    4.4118    2.7080 C.2       1 RES1    0.0000
      3 N1         1.5898    5.4455    1.9617 N.2       1 RES1    0.0000
      4 C3         1.7155    4.4776    4.1829 C.3       1 RES1    0.0000
      5 C4         1.8079    2.9788    4.5222 C.3       1 RES1    0.0000
      6 C5         1.7898    2.5555    6.0030 C.3       1 RES1    0.0000
      7 C6         1.7975    1.0044    6.0561 C.3       1 RES1    0.0000
      8 C7         0.6800    0.3846    5.2066 C.3       1 RES1    0.0000
      9 C8         0.7300    0.8592    3.7818 C.2       1 RES1    0.0000
     10 C9         0.7008    2.3538    3.6756 C.3       1 RES1    0.0000
     11 C10        0.8064    0.0345    2.7316 C.2       1 RES1    0.0000
     12 C11        2.9455    3.2046    6.8290 C.3       1 RES1    0.0000
     13 C12        4.3291    2.7207    6.4337 C.3       1 RES1    0.0000
     14 C13        2.7198    3.0436    8.3364 C.3       1 RES1    0.0000
     15 C14        0.7744    5.2908    5.0060 C.3       1 RES1    0.0000
     16 C15        0.7883    6.7959    4.7080 C.3       1 RES1    0.0000
     17 C16        1.3085    6.3318   -0.2153 C.ar      1 RES1    0.0000
     18 N2         1.2766    5.2417    0.5988 N.3       1 RES1    0.0000
     19 C17        1.1078    6.2304   -1.6254 C.ar      1 RES1    0.0000
     20 N3         0.9036    4.9511   -2.2980 N.pl3     1 RES1    0.0000
     21 O1         0.8598    4.9239   -3.5251 O.2       1 RES1    0.0000
     22 O2         0.7737    3.9341   -1.6077 O.2       1 RES1    0.0000
     23 C18        1.1182    7.3603   -2.4396 C.ar      1 RES1    0.0000
     24 C19        1.3155    8.5780   -1.8643 C.ar      1 RES1    0.0000
     25 N4         1.3210    9.7893   -2.7080 N.pl3     1 RES1    0.0000
     26 O3         1.1300    9.6326   -3.9145 O.2       1 RES1    0.0000
     27 O4         1.4787   10.8711   -2.1564 O.2       1 RES1    0.0000
     28 C20        1.5273    8.7316   -0.4838 C.ar      1 RES1    0.0000
     29 C21        1.5051    7.6038    0.3127 C.ar      1 RES1    0.0000
     30 H1        -0.0451    3.1011    1.7817 H         1 RES1    0.0000
     31 H2         1.6336    2.5137    1.7227 H         1 RES1    0.0000
     32 H3         2.6288    5.0243    4.4189 H         1 RES1    0.0000
     33 H4         2.8094    2.6182    4.2862 H         1 RES1    0.0000
     34 H5         0.8828    2.9255    6.4809 H         1 RES1    0.0000
     35 H6         1.6669    0.6877    7.0886 H         1 RES1    0.0000
     36 H7         2.7580    0.6459    5.6844 H         1 RES1    0.0000
     37 H8        -0.2827    0.6606    5.6372 H         1 RES1    0.0000
     38 H9         0.7862   -0.7003    5.2184 H         1 RES1    0.0000
     39 H10       -0.3327    2.5137    3.9824 H         1 RES1    0.0000
     40 H11        0.8369   -1.0442    2.8879 H         1 RES1    0.0000
     41 H12        0.8390    0.4400    1.7198 H         1 RES1    0.0000
     42 H13        2.9164    4.2676    6.5871 H         1 RES1    0.0000
     43 H14        4.4610    2.8398    5.3570 H         1 RES1    0.0000
     44 H15        4.4346    1.6692    6.6963 H         1 RES1    0.0000
     45 H16        5.0833    3.3060    6.9588 H         1 RES1    0.0000
     46 H17        1.7162    3.3833    8.5901 H         1 RES1    0.0000
     47 H18        3.4539    3.6373    8.8792 H         1 RES1    0.0000
     48 H19        2.8275    1.9932    8.6078 H         1 RES1    0.0000
     49 H20       -0.2361    4.9218    4.8319 H         1 RES1    0.0000
     50 H21        1.0356    5.1518    6.0561 H         1 RES1    0.0000
     51 H22        0.0396    7.2965    5.3216 H         1 RES1    0.0000
     52 H23        0.5633    6.9589    3.6520 H         1 RES1    0.0000
     53 H24        1.7745    7.2014    4.9352 H         1 RES1    0.0000
     54 H25        1.3162    4.3752    0.1858 H         1 RES1    0.0000
     55 H26        0.9731    7.2704   -3.5163 H         1 RES1    0.0000
     56 H27        1.7079    9.7162   -0.0531 H         1 RES1    0.0000
     57 H28        1.6419    7.7146    1.3894 H         1 RES1    0.0000
@<TRIPOS>BOND
     1    1    2 1
     2    2    3 2
     3    3   18 1
     4    4    2 1
     5    5    4 1
     6    6    5 1
     7    7    6 1
     8    8    7 1
     9    9    8 1
    10   10    1 1
    11   11    9 2
    12   12    6 1
    13   13   12 1
    14   14   12 1
    15   15    4 1
    16   16   15 1
    17   17   18 1
    18   18   54 1
    19   19   17 ar
    20   20   19 1
    21   21   20 2
    22   22   20 2
    23   23   19 ar
    24   24   23 ar
    25   25   24 1
    26   26   25 2
    27   27   25 2
    28   28   24 ar
    29   29   17 ar
    30   30    1 1
    31   31    1 1
    32   32    4 1
    33   33    5 1
    34   34    6 1
    35   35    7 1
    36   36    7 1
    37   37    8 1
    38   38    8 1
    39   39   10 1
    40   40   11 1
    41   41   11 1
    42   42   12 1
    43   43   13 1
    44   44   13 1
    45   45   13 1
    46   46   14 1
    47   47   14 1
    48   48   14 1
    49   49   15 1
    50   50   15 1
    51   51   16 1
    52   52   16 1
    53   53   16 1
    54   55   23 1
    55   56   28 1
    56   57   29 1
    57    5   10 1
    58    9   10 1
    59   28   29 ar
@<TRIPOS>SUBSTRUCTURE
     1 RES1 1

@<TRIPOS>CRYSIN
   6.9454   10.4520   29.4989  90.0000  90.0000  90.0000  19 1

