# MOL2 file generated by ConQuest
# Please check atom types

@<TRIPOS>MOLECULE
VEJTUA
    26    26     1
SMALL
USER_CHARGES
****
Generated from CSD

@<TRIPOS>ATOM
      1 O1         1.6600    5.6515    2.3582 O.2       1 RES1   -1.0000
      2 N1         1.1126    4.5319    2.1769 N.pl3     1 RES1    1.0000
      3 C1         1.7249    3.2457    2.6028 C.3       1 RES1    0.0000
      4 C2         1.5698    3.2279    4.1291 C.3       1 RES1    0.0000
      5 H1         2.0341    4.0451    4.4301 H         1 RES1    0.0000
      6 H2         1.9788    2.3850    4.3530 H         1 RES1    0.0000
      7 H3         0.5749    3.0981    4.3530 H         1 RES1    0.0000
      8 C3         3.1872    3.2150    2.2058 C.3       1 RES1    0.0000
      9 H4         3.2502    3.2267    1.1577 H         1 RES1    0.0000
     10 H5         3.4602    2.3382    2.4235 H         1 RES1    0.0000
     11 H6         3.6150    3.9516    2.7167 H         1 RES1    0.0000
     12 C4         0.8176    2.2167    1.8812 C.3       1 RES1    0.0000
     13 C5         1.3122    1.8320    0.4940 C.3       1 RES1    0.0000
     14 H7         2.0341    1.2276    0.7255 H         1 RES1    0.0000
     15 H8         1.4040    2.7123   -0.0154 H         1 RES1    0.0000
     16 H9         0.6080    1.2509    0.1081 H         1 RES1    0.0000
     17 C6         0.4709    0.9949    2.6890 C.3       1 RES1    0.0000
     18 H10        1.2492    0.4443    2.8865 H         1 RES1    0.0000
     19 H11       -0.0774    0.3741    2.2073 H         1 RES1    0.0000
     20 H12       -0.0111    1.2743    3.5040 H         1 RES1    0.0000
     21 N2        -0.4069    3.0459    1.6635 N.pl3     1 RES1    0.0000
     22 O2        -1.5101    2.5305    1.2903 O.2       1 RES1    0.0000
     23 C7        -0.1584    4.3378    1.7562 C.2       1 RES1    0.0000
     24 C8        -1.1011    5.3673    1.4970 C.1       1 RES1    0.0000
     25 C9        -1.8849    6.1308    1.3306 C.1       1 RES1    0.0000
     26 H13       -2.4542    6.7925    1.2503 H         1 RES1    0.0000
@<TRIPOS>BOND
     1    1    2 1
     2    2    3 1
     3    3    4 1
     4    4    5 1
     5    6    4 1
     6    7    4 1
     7    8    3 1
     8    9    8 1
     9   10    8 1
    10   11    8 1
    11   12    3 1
    12   13   12 1
    13   14   13 1
    14   15   13 1
    15   16   13 1
    16   17   12 1
    17   18   17 1
    18   19   17 1
    19   20   17 1
    20   21   12 1
    21   22   21 1
    22   23    2 2
    23   24   23 1
    24   25   24 3
    25   26   25 1
    26   21   23 1
@<TRIPOS>SUBSTRUCTURE
     1 RES1 1

@<TRIPOS>CRYSIN
  11.0550   11.6910   15.4360  90.0000  90.0000  90.0000  61 1

