# MOL2 file generated by ConQuest
# Please check atom types

@<TRIPOS>MOLECULE
VELTIQ
    31    32     1
SMALL
NO_CHARGES
****
Generated from CSD

@<TRIPOS>ATOM
      1 O1         0.9317    9.4431    4.2509 O.3       1 RES1    0.0000
      2 C1        -0.0244    9.3817    3.2621 C.2       1 RES1    0.0000
      3 O2        -0.8273   10.2277    3.0508 O.2       1 RES1    0.0000
      4 C2         0.1424    8.1485    2.4448 C.ar      1 RES1    0.0000
      5 C3         1.3960    7.7452    2.0155 C.ar      1 RES1    0.0000
      6 H1         2.1560    8.1687    2.3442 H         1 RES1    0.0000
      7 C4         1.5243    6.7129    1.0968 C.ar      1 RES1    0.0000
      8 H2         2.3696    6.4493    0.8120 H         1 RES1    0.0000
      9 C5         0.4067    6.0780    0.6061 C.ar      1 RES1    0.0000
     10 H3         0.5021    5.3930   -0.0150 H         1 RES1    0.0000
     11 C6        -0.8563    6.4497    1.0277 C.ar      1 RES1    0.0000
     12 H4        -1.6129    6.0190    0.7020 H         1 RES1    0.0000
     13 C7        -0.9658    7.4741    1.9409 C.ar      1 RES1    0.0000
     14 N1        -2.3110    7.8004    2.4259 N.pl3     1 RES1    0.0000
     15 O3        -2.4664    7.9334    3.6217 O.2       1 RES1    0.0000
     16 O4        -3.2007    7.8776    1.5981 O.2       1 RES1    0.0000
     17 C8         0.9134   10.4691    5.1853 C.2       1 RES1    0.0000
     18 O5        -0.0675   11.0587    5.4996 O.2       1 RES1    0.0000
     19 C9         2.2680   10.7014    5.7390 C.ar      1 RES1    0.0000
     20 C10        3.4076   10.1014    5.2070 C.ar      1 RES1    0.0000
     21 H5         3.3223    9.4757    4.5239 H         1 RES1    0.0000
     22 C11        4.6668   10.4273    5.6873 C.ar      1 RES1    0.0000
     23 H6         5.4194   10.0192    5.3242 H         1 RES1    0.0000
     24 C12        4.8111   11.3545    6.7007 C.ar      1 RES1    0.0000
     25 H7         5.6601   11.5737    7.0103 H         1 RES1    0.0000
     26 C13        3.6968   11.9576    7.2559 C.ar      1 RES1    0.0000
     27 H8         3.7871   12.5798    7.9409 H         1 RES1    0.0000
     28 C14        2.4522   11.6188    6.7769 C.ar      1 RES1    0.0000
     29 N2         1.3009   12.2633    7.4446 N.pl3     1 RES1    0.0000
     30 O6         1.0510   13.4106    7.1413 O.2       1 RES1    0.0000
     31 O7         0.7188   11.6405    8.2998 O.2       1 RES1    0.0000
@<TRIPOS>BOND
     1    1    2 1
     2    2    3 2
     3    4    2 1
     4    5    4 ar
     5    6    5 1
     6    7    5 ar
     7    8    7 1
     8    9    7 ar
     9   10    9 1
    10   11    9 ar
    11   12   11 1
    12   13    4 ar
    13   14   13 1
    14   15   14 2
    15   16   14 2
    16   17    1 1
    17   18   17 2
    18   19   17 1
    19   20   19 ar
    20   21   20 1
    21   22   20 ar
    22   23   22 1
    23   24   22 ar
    24   25   24 1
    25   26   24 ar
    26   27   26 1
    27   28   19 ar
    28   29   28 1
    29   30   29 2
    30   31   29 2
    31   11   13 ar
    32   26   28 ar
@<TRIPOS>SUBSTRUCTURE
     1 RES1 1

@<TRIPOS>CRYSIN
   7.9365   16.1757   11.0023  90.0000 103.7980  90.0000  14 1

