# MOL2 file generated by ConQuest
# Please check atom types

@<TRIPOS>MOLECULE
VEMBOG
    44    47     1
SMALL
NO_CHARGES
****
Generated from CSD

@<TRIPOS>ATOM
      1 O1         5.0056    3.3675   -2.6187 O.2       1 RES1    0.0000
      2 O2         3.3208    4.3336   -3.5790 O.2       1 RES1    0.0000
      3 O3         5.3578    3.2376    2.2792 O.2       1 RES1    0.0000
      4 O4         0.0064    6.2974    1.2613 O.2       1 RES1    0.0000
      5 O5        -0.1539    6.3184   -0.9090 O.2       1 RES1    0.0000
      6 N1         0.4133    5.9907    0.1447 N.pl3     1 RES1    0.0000
      7 N2         3.9242    3.9304   -2.5928 N.pl3     1 RES1    0.0000
      8 C1         3.3079    4.1855   -1.2718 C.ar      1 RES1    0.0000
      9 C2         1.6411    5.1813    0.0302 C.ar      1 RES1    0.0000
     10 C3         3.4700    4.1081    1.1106 C.ar      1 RES1    0.0000
     11 C4         4.3002    3.8119    2.3177 C.2       1 RES1    0.0000
     12 C5         3.9883    3.7756   -0.1472 C.ar      1 RES1    0.0000
     13 H1         4.7765    3.2882   -0.2209 H         1 RES1    0.0000
     14 C6         2.2795    4.8172    1.2052 C.ar      1 RES1    0.0000
     15 H2         1.9204    5.0417    2.0321 H         1 RES1    0.0000
     16 C7         2.1390    4.8793   -1.2180 C.ar      1 RES1    0.0000
     17 H3         1.6942    5.1383   -1.9916 H         1 RES1    0.0000
     18 O6         3.7260    4.3107    3.4172 O.3       1 RES1    0.0000
     19 C8         4.2431    3.0359    5.4237 C.2       1 RES1    0.0000
     20 H4         3.3773    2.6977    5.4645 H         1 RES1    0.0000
     21 C9         4.4774    4.2935    4.6868 C.3       1 RES1    0.0000
     22 H5         5.4347    4.3824    4.4967 H         1 RES1    0.0000
     23 C10        5.1992    2.3794    6.0215 C.2       1 RES1    0.0000
     24 H6         6.0719    2.6996    5.9935 H         1 RES1    0.0000
     25 H7         5.0086    1.5901    6.4759 H         1 RES1    0.0000
     26 O7         1.6825    4.8258    5.7315 O.2       1 RES1    0.0000
     27 O8         2.0562    6.8000    4.7870 O.3       1 RES1    0.0000
     28 C11        4.5853    5.9008    6.7696 C.3       1 RES1    0.0000
     29 H8         5.4219    5.4450    6.9551 H         1 RES1    0.0000
     30 H9         3.9615    5.7928    7.5059 H         1 RES1    0.0000
     31 C12        3.1709    7.6993    4.4634 C.3       1 RES1    0.0000
     32 H10        3.1779    7.9487    3.5164 H         1 RES1    0.0000
     33 C13        4.4314    6.9405    4.8639 C.3       1 RES1    0.0000
     34 H11        5.1718    6.9472    4.2228 H         1 RES1    0.0000
     35 C14        4.7637    7.3763    6.3112 C.3       1 RES1    0.0000
     36 H12        5.6732    7.7241    6.4261 H         1 RES1    0.0000
     37 C15        3.1266    8.9148    5.3693 C.3       1 RES1    0.0000
     38 H13        2.2206    9.2483    5.4645 H         1 RES1    0.0000
     39 H14        3.6921    9.6258    5.0288 H         1 RES1    0.0000
     40 C16        3.6601    8.3691    6.7005 C.3       1 RES1    0.0000
     41 H15        2.9552    7.9219    7.1947 H         1 RES1    0.0000
     42 H16        4.0192    9.0858    7.2476 H         1 RES1    0.0000
     43 C17        3.9813    5.5625    5.3817 C.3       1 RES1    0.0000
     44 C18        2.4725    5.6304    5.3388 C.2       1 RES1    0.0000
@<TRIPOS>BOND
     1    1    7 2
     2    2    7 2
     3    3   11 2
     4    4    6 2
     5    5    6 2
     6    6    9 1
     7    7    8 1
     8    8   12 ar
     9    9   14 ar
    10   10   11 1
    11   11   18 1
    12   12   10 ar
    13   13   12 1
    14   14   10 ar
    15   15   14 1
    16   16    8 ar
    17   17   16 1
    18   18   21 1
    19   19   20 1
    20   21   19 1
    21   22   21 1
    22   23   19 2
    23   24   23 1
    24   25   23 1
    25   26   44 2
    26   27   31 1
    27   28   29 1
    28   30   28 1
    29   31   32 1
    30   33   31 1
    31   34   33 1
    32   35   28 1
    33   36   35 1
    34   37   31 1
    35   38   37 1
    36   39   37 1
    37   40   35 1
    38   41   40 1
    39   42   40 1
    40   43   21 1
    41   44   27 1
    42    9   16 ar
    43   28   43 1
    44   33   35 1
    45   33   43 1
    46   37   40 1
    47   43   44 1
@<TRIPOS>SUBSTRUCTURE
     1 RES1 1

@<TRIPOS>CRYSIN
   5.8300    9.5560   31.1190  90.0000  90.0000  90.0000  19 1

