# MOL2 file generated by ConQuest
# Please check atom types

@<TRIPOS>MOLECULE
VEMTUC
    34    35     1
SMALL
NO_CHARGES
****
Generated from CSD

@<TRIPOS>ATOM
      1 N1         3.6963   10.0569   -2.0101 N.pl3     1 RES1    0.0000
      2 N2         5.5291    5.9659   -3.9097 N.pl3     1 RES1    0.0000
      3 N3         0.0259    8.6248    2.6344 N.pl3     1 RES1    0.0000
      4 N4        -1.9874   12.9941    3.4375 N.pl3     1 RES1    0.0000
      5 O1         1.4534    9.0982   -0.0480 O.2       1 RES1    0.0000
      6 O2         3.5733    8.6214    0.6007 O.3       1 RES1    0.0000
      7 O3         3.6209   10.7662   -1.0185 O.2       1 RES1    0.0000
      8 O4         3.5376   10.4574   -3.1538 O.2       1 RES1    0.0000
      9 O5         5.4304    6.4886   -5.0160 O.2       1 RES1    0.0000
     10 O6         6.0960    4.9054   -3.6927 O.2       1 RES1    0.0000
     11 O7         2.4555   10.0535    1.7443 O.3       1 RES1    0.0000
     12 O8         1.0623    7.9682    2.6710 O.2       1 RES1    0.0000
     13 O9        -1.0961    8.1446    2.7441 O.2       1 RES1    0.0000
     14 O10       -2.9622   12.3951    3.8715 O.2       1 RES1    0.0000
     15 O11       -1.8737   14.2124    3.4659 O.2       1 RES1    0.0000
     16 C1         2.3732    9.2408    0.6738 C.2       1 RES1    0.0000
     17 C2         3.9164    7.9868   -0.5917 C.ar      1 RES1    0.0000
     18 C3         4.0289    8.6367   -1.8224 C.ar      1 RES1    0.0000
     19 C4         4.5159    7.9665   -2.9246 C.ar      1 RES1    0.0000
     20 C5         4.9265    6.6565   -2.7620 C.ar      1 RES1    0.0000
     21 C6         4.8129    5.9914   -1.5623 C.ar      1 RES1    0.0000
     22 C7         4.2806    6.6582   -0.4771 C.ar      1 RES1    0.0000
     23 C8         1.2857   10.7272    2.0808 C.ar      1 RES1    0.0000
     24 C9         0.1269   10.0892    2.5165 C.ar      1 RES1    0.0000
     25 C10       -0.9693   10.8239    2.9359 C.ar      1 RES1    0.0000
     26 C11       -0.8612   12.2034    2.9156 C.ar      1 RES1    0.0000
     27 C12        0.2693   12.8651    2.4767 C.ar      1 RES1    0.0000
     28 C13        1.3516   12.1084    2.0443 C.ar      1 RES1    0.0000
     29 H1         4.5733    8.3992   -3.7780 H         1 RES1    0.0000
     30 H2         5.1073    5.0802   -1.4842 H         1 RES1    0.0000
     31 H3         4.1575    6.1967    0.3544 H         1 RES1    0.0000
     32 H4        -1.7734   10.3929    3.2326 H         1 RES1    0.0000
     33 H5         0.3045   13.8238    2.4767 H         1 RES1    0.0000
     34 H6         2.1438   12.5394    1.7175 H         1 RES1    0.0000
@<TRIPOS>BOND
     1    1    7 2
     2    2    9 2
     3    3   12 2
     4    4   14 2
     5    5   16 2
     6    6   16 1
     7    8    1 2
     8   10    2 2
     9   11   16 1
    10   13    3 2
    11   15    4 2
    12   17    6 1
    13   18    1 1
    14   19   18 ar
    15   20    2 1
    16   21   20 ar
    17   22   17 ar
    18   23   11 1
    19   24    3 1
    20   25   24 ar
    21   26    4 1
    22   27   26 ar
    23   28   23 ar
    24   29   19 1
    25   30   21 1
    26   31   22 1
    27   32   25 1
    28   33   27 1
    29   34   28 1
    30   17   18 ar
    31   19   20 ar
    32   21   22 ar
    33   23   24 ar
    34   25   26 ar
    35   27   28 ar
@<TRIPOS>SUBSTRUCTURE
     1 RES1 1

@<TRIPOS>CRYSIN
  10.6820   16.9680    8.2430  90.0000  99.5700  90.0000  14 1

