# MOL2 file generated by ConQuest
# Please check atom types

@<TRIPOS>MOLECULE
VEMTOW01
    30    31     1
SMALL
NO_CHARGES
****
Generated from CSD

@<TRIPOS>ATOM
      1 O1         3.3303    2.0361    3.9242 O.2       1 RES1    0.0000
      2 O2         2.3945    0.6482    5.4537 O.3       1 RES1    0.0000
      3 O3         1.7858    2.7090    5.4418 O.3       1 RES1    0.0000
      4 O4         5.7662   -0.0741    7.6209 O.2       1 RES1    0.0000
      5 O5         4.5198    1.4892    6.8137 O.2       1 RES1    0.0000
      6 O6        -0.9459    3.5461    2.5275 O.2       1 RES1    0.0000
      7 O7         0.3165    2.0108    3.3543 O.2       1 RES1    0.0000
      8 C1         2.5975    1.8235    4.8293 C.2       1 RES1    0.0000
      9 C2         3.2717   -0.3766    5.0997 C.ar      1 RES1    0.0000
     10 C3         4.4556   -0.5990    5.8012 C.ar      1 RES1    0.0000
     11 C4         5.2347   -1.7098    5.5209 C.ar      1 RES1    0.0000
     12 H1         6.0244   -1.8778    6.0217 H         1 RES1    0.0000
     13 C5         4.8575   -2.5729    4.5099 C.ar      1 RES1    0.0000
     14 H2         5.3934   -3.3306    4.3064 H         1 RES1    0.0000
     15 C6         3.6960   -2.3321    3.7932 C.ar      1 RES1    0.0000
     16 H3         3.4491   -2.9138    3.0840 H         1 RES1    0.0000
     17 C7         2.8933   -1.2470    4.1068 C.ar      1 RES1    0.0000
     18 H4         2.0810   -1.1050    3.6344 H         1 RES1    0.0000
     19 C8         1.7425    3.9645    4.8253 C.ar      1 RES1    0.0000
     20 C9         0.8718    4.2324    3.7699 C.ar      1 RES1    0.0000
     21 C10        0.7835    5.5113    3.2429 C.ar      1 RES1    0.0000
     22 H5         0.1814    5.6954    2.5317 H         1 RES1    0.0000
     23 C11        1.5800    6.5164    3.7615 C.ar      1 RES1    0.0000
     24 H6         1.5328    7.3934    3.3994 H         1 RES1    0.0000
     25 C12        2.4484    6.2457    4.8091 C.ar      1 RES1    0.0000
     26 H7         2.9971    6.9386    5.1586 H         1 RES1    0.0000
     27 C13        2.5210    4.9704    5.3501 C.ar      1 RES1    0.0000
     28 H8         3.1043    4.7928    6.0784 H         1 RES1    0.0000
     29 N1         4.9395    0.3442    6.8196 N.pl3     1 RES1    0.0000
     30 N2         0.0254    3.1886    3.1847 N.pl3     1 RES1    0.0000
@<TRIPOS>BOND
     1    1    8 2
     2    2    8 1
     3    3    8 1
     4    4   29 2
     5    5   29 2
     6    6   30 2
     7    7   30 2
     8    9    2 1
     9   10    9 ar
    10   11   10 ar
    11   12   11 1
    12   13   11 ar
    13   14   13 1
    14   15   13 ar
    15   16   15 1
    16   17    9 ar
    17   18   17 1
    18   19    3 1
    19   20   19 ar
    20   21   20 ar
    21   22   21 1
    22   23   21 ar
    23   24   23 1
    24   25   23 ar
    25   26   25 1
    26   27   19 ar
    27   28   27 1
    28   29   10 1
    29   30   20 1
    30   15   17 ar
    31   25   27 ar
@<TRIPOS>SUBSTRUCTURE
     1 RES1 1

@<TRIPOS>CRYSIN
  11.9789   11.9076    9.1495  90.0000  92.1280  90.0000  14 1

