# MOL2 file generated by ConQuest
# Please check atom types

@<TRIPOS>MOLECULE
VENBIC
    40    41     1
SMALL
NO_CHARGES
****
Generated from CSD

@<TRIPOS>ATOM
      1 C1        -2.4434    8.0626    4.3879 C.ar      1 RES1    0.0000
      2 C2        -2.3099    6.9468    5.2502 C.ar      1 RES1    0.0000
      3 C3        -2.9876    6.9591    6.4958 C.ar      1 RES1    0.0000
      4 H1        -2.8995    6.2139    7.0774 H         1 RES1    0.0000
      5 C4        -3.7674    8.0191    6.8824 C.ar      1 RES1    0.0000
      6 C5        -3.8867    9.1198    6.0167 C.ar      1 RES1    0.0000
      7 H2        -4.4234    9.8596    6.2765 H         1 RES1    0.0000
      8 C6        -3.2467    9.1495    4.8087 C.ar      1 RES1    0.0000
      9 H3        -3.3421    9.9082    4.2452 H         1 RES1    0.0000
     10 C7        -1.7743    8.0551    3.1281 C.ar      1 RES1    0.0000
     11 C8        -1.0077    6.9608    2.8322 C.ar      1 RES1    0.0000
     12 C9        -0.8022    5.8326    3.6688 C.ar      1 RES1    0.0000
     13 C10       -1.4889    5.8494    4.8618 C.ar      1 RES1    0.0000
     14 C11       -1.4006    4.6877    5.8290 C.2       1 RES1    0.0000
     15 C12        0.1294    4.6670    3.3457 C.3       1 RES1    0.0000
     16 H4        -0.0834    3.9537    4.0126 H         1 RES1    0.0000
     17 C13       -0.0805    4.0321    1.9744 C.3       1 RES1    0.0000
     18 H5        -1.0372    3.8769    1.8299 H         1 RES1    0.0000
     19 H6         0.3991    3.1782    1.9329 H         1 RES1    0.0000
     20 H7         0.2622    4.6329    1.2803 H         1 RES1    0.0000
     21 C14        1.6018    5.0313    3.5768 C.3       1 RES1    0.0000
     22 H8         1.8634    5.7446    2.9571 H         1 RES1    0.0000
     23 H9         2.1625    4.2421    3.4208 H         1 RES1    0.0000
     24 H10        1.7204    5.3402    4.4997 H         1 RES1    0.0000
     25 C15       -0.3368    4.7472    6.8530 C.3       1 RES1    0.0000
     26 H11       -0.6307    5.3120    7.5973 H         1 RES1    0.0000
     27 H12        0.4764    5.1243    6.4576 H         1 RES1    0.0000
     28 H13       -0.1503    3.8428    7.1836 H         1 RES1    0.0000
     29 C16       -4.4842    7.9996    8.2059 C.3       1 RES1    0.0000
     30 H14       -5.2673    7.4143    8.1438 H         1 RES1    0.0000
     31 H15       -4.7720    8.9083    8.4357 H         1 RES1    0.0000
     32 H16       -3.8796    7.6634    8.8994 H         1 RES1    0.0000
     33 C17       -1.9013    9.2374    2.2096 C.3       1 RES1    0.0000
     34 H17       -1.3038    9.1199    1.4411 H         1 RES1    0.0000
     35 H18       -1.6551   10.0541    2.6917 H         1 RES1    0.0000
     36 H19       -2.8263    9.3093    1.8954 H         1 RES1    0.0000
     37 O1         0.8159    7.2745    1.4344 O.2       1 RES1    0.0000
     38 O2        -1.0629    6.7126    0.5377 O.2       1 RES1    0.0000
     39 O3        -2.2192    3.7905    5.7898 O.2       1 RES1    0.0000
     40 N1        -0.3640    6.9803    1.5023 N.pl3     1 RES1    0.0000
@<TRIPOS>BOND
     1    1    2 ar
     2    2    3 ar
     3    3    4 1
     4    5    3 ar
     5    6    5 ar
     6    7    6 1
     7    8    1 ar
     8    9    8 1
     9   10    1 ar
    10   11   10 ar
    11   12   11 ar
    12   13    2 ar
    13   14   13 1
    14   15   12 1
    15   16   15 1
    16   17   15 1
    17   18   17 1
    18   19   17 1
    19   20   17 1
    20   21   15 1
    21   22   21 1
    22   23   21 1
    23   24   21 1
    24   25   14 1
    25   26   25 1
    26   27   25 1
    27   28   25 1
    28   29    5 1
    29   30   29 1
    30   31   29 1
    31   32   29 1
    32   33   10 1
    33   34   33 1
    34   35   33 1
    35   36   33 1
    36   37   40 2
    37   38   40 2
    38   39   14 2
    39   40   11 1
    40    6    8 ar
    41   12   13 ar
@<TRIPOS>SUBSTRUCTURE
     1 RES1 1

@<TRIPOS>CRYSIN
  11.1720    8.5320   16.2870  90.0000 106.5400  90.0000 231 1

