# MOL2 file generated by ConQuest
# Please check atom types

@<TRIPOS>MOLECULE
VENLOQ
    34    35     1
SMALL
NO_CHARGES
****
Generated from CSD

@<TRIPOS>ATOM
      1 O1        -0.1154   -1.7375   -7.3716 O.2       1 RES1    0.0000
      2 O2         1.0381   -3.5443   -7.1290 O.2       1 RES1    0.0000
      3 O3         1.0440    1.0415   -1.1299 O.2       1 RES1    0.0000
      4 N1         0.5851   -2.4854   -6.6970 N.pl3     1 RES1    0.0000
      5 N2         1.8194   -1.0894   -1.4061 N.am      1 RES1    0.0000
      6 H1         2.2211   -1.7135   -0.9730 H         1 RES1    0.0000
      7 C1         1.7509   -2.6850   -3.1851 C.ar      1 RES1    0.0000
      8 H2         2.1244   -3.3070   -2.6026 H         1 RES1    0.0000
      9 C2         1.4694   -3.0460   -4.4815 C.ar      1 RES1    0.0000
     10 H3         1.6578   -3.9038   -4.7884 H         1 RES1    0.0000
     11 C3         0.8985   -2.1050   -5.3206 C.ar      1 RES1    0.0000
     12 C4         0.6081   -0.8309   -4.9010 C.ar      1 RES1    0.0000
     13 H4         0.2164   -0.2217   -5.4853 H         1 RES1    0.0000
     14 C5         0.9055   -0.4615   -3.6035 C.ar      1 RES1    0.0000
     15 H5         0.7250    0.4015   -3.3089 H         1 RES1    0.0000
     16 C6         1.4781   -1.3935   -2.7403 C.ar      1 RES1    0.0000
     17 C7         1.5976    0.0417   -0.7217 C.2       1 RES1    0.0000
     18 O1B        3.8339    1.7375    7.3716 O.2       1 RES1    0.0000
     19 O2B        2.6804    3.5443    7.1290 O.2       1 RES1    0.0000
     20 O3B        2.6745   -1.0415    1.1299 O.2       1 RES1    0.0000
     21 N1B        3.1334    2.4854    6.6970 N.pl3     1 RES1    0.0000
     22 N2B        1.8991    1.0894    1.4061 N.am      1 RES1    0.0000
     23 H1B        1.4974    1.7135    0.9730 H         1 RES1    0.0000
     24 C1B        1.9676    2.6850    3.1851 C.ar      1 RES1    0.0000
     25 H2B        1.5941    3.3070    2.6026 H         1 RES1    0.0000
     26 C2B        2.2491    3.0460    4.4815 C.ar      1 RES1    0.0000
     27 H3B        2.0607    3.9038    4.7884 H         1 RES1    0.0000
     28 C3B        2.8200    2.1050    5.3206 C.ar      1 RES1    0.0000
     29 C4B        3.1104    0.8309    4.9010 C.ar      1 RES1    0.0000
     30 H4B        3.5021    0.2217    5.4853 H         1 RES1    0.0000
     31 C5B        2.8130    0.4615    3.6035 C.ar      1 RES1    0.0000
     32 H5B        2.9935   -0.4015    3.3089 H         1 RES1    0.0000
     33 C6B        2.2404    1.3935    2.7403 C.ar      1 RES1    0.0000
     34 C7B        2.1209   -0.0417    0.7217 C.2       1 RES1    0.0000
@<TRIPOS>BOND
     1    1    4 2
     2    2    4 2
     3    3   17 2
     4    4   11 1
     5    5    6 1
     6    7    8 1
     7    9    7 ar
     8   10    9 1
     9   11    9 ar
    10   12   11 ar
    11   13   12 1
    12   14   12 ar
    13   15   14 1
    14   16    5 1
    15   17    5 1
    16   18   21 2
    17   19   21 2
    18   20   34 2
    19   21   28 1
    20   22   23 1
    21   24   25 1
    22   26   24 ar
    23   27   26 1
    24   28   26 ar
    25   29   28 ar
    26   30   29 1
    27   31   29 ar
    28   32   31 1
    29   33   22 1
    30   34   17 1
    31    7   16 ar
    32   14   16 ar
    33   22   34 1
    34   24   33 ar
    35   31   33 ar
@<TRIPOS>SUBSTRUCTURE
     1 RES1 1

@<TRIPOS>CRYSIN
   3.7185   13.9420   13.5710  90.0000  99.0590  90.0000  14 1

