# MOL2 file generated by ConQuest
# Please check atom types

@<TRIPOS>MOLECULE
VENPEK
    44    46     1
SMALL
NO_CHARGES
****
Generated from CSD

@<TRIPOS>ATOM
      1 N1         8.2655    6.2784    5.4445 N.pl3     1 RES1    0.0000
      2 O1         8.8257    5.2596   10.6316 O.3       1 RES1    0.0000
      3 O2         8.6943    7.1619    9.4261 O.3       1 RES1    0.0000
      4 O3         6.8310    7.5019    7.5880 O.3       1 RES1    0.0000
      5 O4         7.3184    4.3035    9.1409 O.3       1 RES1    0.0000
      6 O5         4.6180    3.9118    9.1738 O.3       1 RES1    0.0000
      7 O6         3.2663    2.9568    7.6831 O.2       1 RES1    0.0000
      8 O7         7.8572    7.0497    4.6737 O.2       1 RES1    0.0000
      9 O8         9.4382    6.0039    5.4838 O.2       1 RES1    0.0000
     10 C1         8.6151    4.8377    9.2892 C.3       1 RES1    0.0000
     11 H1         9.3016    4.1995    9.0027 H         1 RES1    0.0000
     12 C2         8.6656    6.1211    8.4639 C.3       1 RES1    0.0000
     13 H2         9.4262    6.1497    7.8466 H         1 RES1    0.0000
     14 C3         7.3129    6.1942    7.7515 C.3       1 RES1    0.0000
     15 C4         6.4355    5.3344    8.6883 C.3       1 RES1    0.0000
     16 H3         6.1856    5.8829    9.4616 H         1 RES1    0.0000
     17 C5         5.2011    4.7172    8.1407 C.3       1 RES1    0.0000
     18 H4         4.5773    5.4065    7.8631 H         1 RES1    0.0000
     19 H5         5.4155    4.1682    7.3700 H         1 RES1    0.0000
     20 C6         7.3478    5.5440    6.3432 C.3       1 RES1    0.0000
     21 H6         7.6404    4.6226    6.4205 H         1 RES1    0.0000
     22 H7         6.4546    5.5451    5.9655 H         1 RES1    0.0000
     23 C7         9.2319    6.6365   10.6392 C.3       1 RES1    0.0000
     24 C8         8.5658    7.3473   11.7864 C.3       1 RES1    0.0000
     25 H8         8.9118    7.0090   12.6154 H         1 RES1    0.0000
     26 H9         7.6182    7.1971   11.7496 H         1 RES1    0.0000
     27 H10        8.7439    8.2885   11.7255 H         1 RES1    0.0000
     28 C9        10.7401    6.7421   10.6164 C.3       1 RES1    0.0000
     29 H11       11.0976    6.3884   11.4340 H         1 RES1    0.0000
     30 H12       10.9952    7.6636   10.5276 H         1 RES1    0.0000
     31 H13       11.0850    6.2421    9.8735 H         1 RES1    0.0000
     32 C10        3.7018    3.0179    8.8049 C.2       1 RES1    0.0000
     33 C11        3.3305    2.0833    9.8799 C.ar      1 RES1    0.0000
     34 C12        3.9559    2.1207   11.1361 C.ar      1 RES1    0.0000
     35 H14        4.6072    2.7605   11.3161 H         1 RES1    0.0000
     36 C13        3.5954    1.1932   12.1084 C.ar      1 RES1    0.0000
     37 H15        4.0336    1.2020   12.9285 H         1 RES1    0.0000
     38 C14        2.6236    0.2800   11.8865 C.ar      1 RES1    0.0000
     39 H16        2.3859   -0.3229   12.5533 H         1 RES1    0.0000
     40 C15        1.9923    0.2514   10.6696 C.ar      1 RES1    0.0000
     41 H17        1.3208   -0.3746   10.5175 H         1 RES1    0.0000
     42 C16        2.3364    1.1409    9.6580 C.ar      1 RES1    0.0000
     43 H18        1.9024    1.1052    8.8366 H         1 RES1    0.0000
     44 H19        7.1023    8.3012    8.3283 H         1 RES1    0.0000
@<TRIPOS>BOND
     1    1    8 2
     2    2   10 1
     3    3   12 1
     4    4   14 1
     5    5   10 1
     6    6   17 1
     7    7   32 2
     8    9    1 2
     9   10   11 1
    10   12   10 1
    11   13   12 1
    12   14   12 1
    13   15    5 1
    14   16   15 1
    15   17   15 1
    16   18   17 1
    17   19   17 1
    18   20    1 1
    19   21   20 1
    20   22   20 1
    21   23    2 1
    22   24   23 1
    23   25   24 1
    24   26   24 1
    25   27   24 1
    26   28   23 1
    27   29   28 1
    28   30   28 1
    29   31   28 1
    30   32    6 1
    31   33   32 1
    32   34   33 ar
    33   35   34 1
    34   36   34 ar
    35   37   36 1
    36   38   36 ar
    37   39   38 1
    38   40   38 ar
    39   41   40 1
    40   42   33 ar
    41   43   42 1
    42   44    4 1
    43    3   23 1
    44   14   15 1
    45   14   20 1
    46   40   42 ar
@<TRIPOS>SUBSTRUCTURE
     1 RES1 1

@<TRIPOS>CRYSIN
  12.3540    5.5011   13.5140  90.0000 110.2800  90.0000   4 1

