# MOL2 file generated by ConQuest
# Please check atom types

@<TRIPOS>MOLECULE
VENREL
    37    39     1
SMALL
NO_CHARGES
****
Generated from CSD

@<TRIPOS>ATOM
      1 O1        -1.4978    3.4516    1.7645 O.2       1 RES1    0.0000
      2 O2        -4.1711   10.9357    4.4757 O.2       1 RES1    0.0000
      3 O3        -4.9989    9.0824    3.7693 O.2       1 RES1    0.0000
      4 N1        -4.0482    9.8017    4.0359 N.pl3     1 RES1    0.0000
      5 C1        -0.3802    3.9555    1.7858 C.2       1 RES1    0.0000
      6 C2        -0.1888    5.4168    2.0929 C.2       1 RES1    0.0000
      7 C3         1.0587    6.0626    1.5385 C.3       1 RES1    0.0000
      8 C4         2.3142    5.8326    2.3950 C.3       1 RES1    0.0000
      9 C5         2.3378    4.4329    3.0081 C.3       1 RES1    0.0000
     10 C6         2.0874    3.3460    2.0027 C.ar      1 RES1    0.0000
     11 C7         3.1318    2.5002    1.6348 C.ar      1 RES1    0.0000
     12 C8         2.9243    1.4398    0.7835 C.ar      1 RES1    0.0000
     13 C9         1.6572    1.1838    0.2676 C.ar      1 RES1    0.0000
     14 C10        0.6174    2.0162    0.6122 C.ar      1 RES1    0.0000
     15 C11        0.8153    3.1072    1.4595 C.ar      1 RES1    0.0000
     16 C12       -1.1796    6.0239    2.7598 C.2       1 RES1    0.0000
     17 C13       -1.2851    7.4168    3.2190 C.ar      1 RES1    0.0000
     18 C14       -0.1853    8.2108    3.5838 C.ar      1 RES1    0.0000
     19 C15       -0.3490    9.5029    4.0571 C.ar      1 RES1    0.0000
     20 C16       -1.6143   10.0527    4.1940 C.ar      1 RES1    0.0000
     21 C17       -2.6895    9.2612    3.8423 C.ar      1 RES1    0.0000
     22 C18       -2.5581    7.9704    3.3750 C.ar      1 RES1    0.0000
     23 H1         0.9033    7.0371    1.4564 H         1 RES1    0.0000
     24 H2         1.2244    5.7069    0.6294 H         1 RES1    0.0000
     25 H3         3.1196    5.9559    1.8325 H         1 RES1    0.0000
     26 H4         2.3431    6.5073    3.1186 H         1 RES1    0.0000
     27 H5         3.2199    4.2826    3.4318 H         1 RES1    0.0000
     28 H6         1.6490    4.3805    3.7166 H         1 RES1    0.0000
     29 H7         4.0034    2.6594    1.9774 H         1 RES1    0.0000
     30 H8         3.6522    0.8768    0.5463 H         1 RES1    0.0000
     31 H9         1.5134    0.4463   -0.3142 H         1 RES1    0.0000
     32 H10       -0.2508    1.8443    0.2676 H         1 RES1    0.0000
     33 H11       -1.9254    5.4724    2.9666 H         1 RES1    0.0000
     34 H12        0.6911    7.8545    3.5038 H         1 RES1    0.0000
     35 H13        0.4146   10.0178    4.2902 H         1 RES1    0.0000
     36 H14       -1.7359   10.9377    4.5163 H         1 RES1    0.0000
     37 H15       -3.3294    7.4607    3.1592 H         1 RES1    0.0000
@<TRIPOS>BOND
     1    1    5 2
     2    2    4 2
     3    3    4 2
     4    4   21 1
     5    5    6 1
     6    6    7 1
     7    7    8 1
     8    8    9 1
     9    9   10 1
    10   10   11 ar
    11   11   12 ar
    12   12   13 ar
    13   13   14 ar
    14   14   15 ar
    15   15    5 1
    16   16    6 2
    17   17   16 1
    18   18   17 ar
    19   19   18 ar
    20   20   19 ar
    21   21   20 ar
    22   22   17 ar
    23   23    7 1
    24   24    7 1
    25   25    8 1
    26   26    8 1
    27   27    9 1
    28   28    9 1
    29   29   11 1
    30   30   12 1
    31   31   13 1
    32   32   14 1
    33   33   16 1
    34   34   18 1
    35   35   19 1
    36   36   20 1
    37   37   22 1
    38   10   15 ar
    39   21   22 ar
@<TRIPOS>SUBSTRUCTURE
     1 RES1 1

@<TRIPOS>CRYSIN
   7.9520    8.8740   10.4280 100.2700  96.8800 100.1300   2 1

