# MOL2 file generated by ConQuest
# Please check atom types

@<TRIPOS>MOLECULE
VENRIP
    37    39     1
SMALL
NO_CHARGES
****
Generated from CSD

@<TRIPOS>ATOM
      1 N1         2.1176    1.5045    6.2048 N.pl3     1 RES1    0.0000
      2 O1        -4.8317   -1.4348    2.4549 O.2       1 RES1    0.0000
      3 O2         3.2677    1.2785    5.8320 O.2       1 RES1    0.0000
      4 O3         1.8401    2.1651    7.2025 O.2       1 RES1    0.0000
      5 C1        -3.8553   -1.6248    1.7423 C.2       1 RES1    0.0000
      6 C2        -2.4642   -1.4932    2.2793 C.2       1 RES1    0.0000
      7 C3        -1.4624   -2.4420    1.6627 C.3       1 RES1    0.0000
      8 C4        -0.8225   -1.8690    0.3863 C.3       1 RES1    0.0000
      9 C5        -1.8075   -1.0284   -0.4265 C.3       1 RES1    0.0000
     10 C6        -3.1163   -1.7259   -0.7054 C.ar      1 RES1    0.0000
     11 C7        -3.4540   -2.0564   -2.0201 C.ar      1 RES1    0.0000
     12 C8        -4.6613   -2.6608   -2.3299 C.ar      1 RES1    0.0000
     13 C9        -5.5737   -2.9425   -1.3343 C.ar      1 RES1    0.0000
     14 C10       -5.2667   -2.6166   -0.0217 C.ar      1 RES1    0.0000
     15 C11       -4.0503   -2.0134    0.3036 C.ar      1 RES1    0.0000
     16 C12       -2.2865   -0.5501    3.2170 C.2       1 RES1    0.0000
     17 C13       -1.0988   -0.0789    3.9389 C.ar      1 RES1    0.0000
     18 C14        0.2262   -0.4845    3.6921 C.ar      1 RES1    0.0000
     19 C15        1.2791    0.0271    4.4316 C.ar      1 RES1    0.0000
     20 C16        1.0112    0.9572    5.4137 C.ar      1 RES1    0.0000
     21 C17       -0.2732    1.3894    5.6905 C.ar      1 RES1    0.0000
     22 C18       -1.3128    0.8762    4.9469 C.ar      1 RES1    0.0000
     23 H1        -1.9146   -3.2951    1.4438 H         1 RES1    0.0000
     24 H2        -0.7506   -2.6365    2.3227 H         1 RES1    0.0000
     25 H3        -0.0453   -1.3090    0.6351 H         1 RES1    0.0000
     26 H4        -0.4920   -2.6148   -0.1745 H         1 RES1    0.0000
     27 H5        -1.9910   -0.1885    0.0640 H         1 RES1    0.0000
     28 H6        -1.3848   -0.7866   -1.2889 H         1 RES1    0.0000
     29 H7        -2.8397   -1.8629   -2.7182 H         1 RES1    0.0000
     30 H8        -4.8616   -2.8813   -3.2325 H         1 RES1    0.0000
     31 H9        -6.4031   -3.3560   -1.5450 H         1 RES1    0.0000
     32 H10       -5.8938   -2.8060    0.6661 H         1 RES1    0.0000
     33 H11       -3.0861   -0.0982    3.4608 H         1 RES1    0.0000
     34 H12        0.4012   -1.1194    3.0074 H         1 RES1    0.0000
     35 H13        2.1696   -0.2581    4.2653 H         1 RES1    0.0000
     36 H14       -0.4339    2.0257    6.3763 H         1 RES1    0.0000
     37 H15       -2.1984    1.1755    5.1215 H         1 RES1    0.0000
@<TRIPOS>BOND
     1    1    3 2
     2    2    5 2
     3    4    1 2
     4    5    6 1
     5    6    7 1
     6    7    8 1
     7    8    9 1
     8    9   10 1
     9   10   11 ar
    10   11   12 ar
    11   12   13 ar
    12   13   14 ar
    13   14   15 ar
    14   15    5 1
    15   16    6 2
    16   17   16 1
    17   18   17 ar
    18   19   18 ar
    19   20    1 1
    20   21   20 ar
    21   22   17 ar
    22   23    7 1
    23   24    7 1
    24   25    8 1
    25   26    8 1
    26   27    9 1
    27   28    9 1
    28   29   11 1
    29   30   12 1
    30   31   13 1
    31   32   14 1
    32   33   16 1
    33   34   18 1
    34   35   19 1
    35   36   21 1
    36   37   22 1
    37   10   15 ar
    38   19   20 ar
    39   21   22 ar
@<TRIPOS>SUBSTRUCTURE
     1 RES1 1

@<TRIPOS>CRYSIN
   8.0320    8.9180   11.0190  96.9300 105.5700 109.4100   2 1

