# MOL2 file generated by ConQuest
# Please check atom types

@<TRIPOS>MOLECULE
VENVUG
    61    62     1
SMALL
NO_CHARGES
****
Generated from CSD

@<TRIPOS>ATOM
      1 O1         3.6713    8.4344    9.2648 O.3       1 RES1    0.0000
      2 O2         1.7905    7.9067   11.0710 O.2       1 RES1    0.0000
      3 O3         5.1751    6.5446   14.0181 O.2       1 RES1    0.0000
      4 O4         4.2744    9.9927   11.3881 O.3       1 RES1    0.0000
      5 O5         5.7967   11.3272   10.4096 O.2       1 RES1    0.0000
      6 O6         5.0984   16.1564   11.3727 O.2       1 RES1    0.0000
      7 O7         3.2707   16.8557   12.1346 O.2       1 RES1    0.0000
      8 O8        -0.2243   13.7244   13.2214 O.2       1 RES1    0.0000
      9 O9         0.0169   11.6456   12.7457 O.2       1 RES1    0.0000
     10 N1         3.9766   15.9718   11.7478 N.pl3     1 RES1    0.0000
     11 N2         0.4048   12.7853   12.7844 N.pl3     1 RES1    0.0000
     12 C1         4.0837    7.8485   10.4715 C.3       1 RES1    0.0000
     13 C2         2.9215    7.6770   11.4191 C.2       1 RES1    0.0000
     14 C3         3.2252    7.2554   12.8501 C.3       1 RES1    0.0000
     15 C4         4.7399    7.2787   13.1711 C.2       1 RES1    0.0000
     16 C5         5.6626    8.2919   12.4943 C.3       1 RES1    0.0000
     17 C6         5.0756    8.7992   11.1600 C.3       1 RES1    0.0000
     18 C7         4.7146    6.4850   10.1563 C.3       1 RES1    0.0000
     19 C8         3.8189    5.5938    9.2958 C.3       1 RES1    0.0000
     20 C9         4.4793    4.2593    9.0076 C.3       1 RES1    0.0000
     21 C10        3.6865    3.3595    8.0755 C.3       1 RES1    0.0000
     22 C11        3.6435    3.8101    6.6523 C.3       1 RES1    0.0000
     23 C12        2.5251    8.2178   13.8247 C.3       1 RES1    0.0000
     24 C13        2.6719    5.8308   13.0706 C.3       1 RES1    0.0000
     25 C14        5.8852    9.4461   13.5018 C.3       1 RES1    0.0000
     26 C15        7.0314    7.6377   12.2352 C.3       1 RES1    0.0000
     27 C16        4.7424   11.1775   10.9859 C.2       1 RES1    0.0000
     28 C17        3.8257   12.2736   11.3765 C.ar      1 RES1    0.0000
     29 C18        4.2937   13.5776   11.3166 C.ar      1 RES1    0.0000
     30 C19        3.4664   14.5835   11.7536 C.ar      1 RES1    0.0000
     31 C20        2.1886   14.3727   12.2294 C.ar      1 RES1    0.0000
     32 C21        1.7652   13.0600   12.2487 C.ar      1 RES1    0.0000
     33 C22        2.5412   12.0061   11.8484 C.ar      1 RES1    0.0000
     34 H1         2.9612    9.1292    9.1507 H         1 RES1    0.0000
     35 H2         5.8220    9.0158   10.5295 H         1 RES1    0.0000
     36 H3         4.8993    6.0125   11.0169 H         1 RES1    0.0000
     37 H4         5.5740    6.6361    9.6671 H         1 RES1    0.0000
     38 H5         3.6317    6.0590    8.4314 H         1 RES1    0.0000
     39 H6         2.9586    5.4339    9.7812 H         1 RES1    0.0000
     40 H7         4.6067    3.7782    9.8759 H         1 RES1    0.0000
     41 H8         5.3716    4.4352    8.5899 H         1 RES1    0.0000
     42 H9         2.7478    3.3115    8.4159 H         1 RES1    0.0000
     43 H10        4.0972    2.4480    8.1007 H         1 RES1    0.0000
     44 H11        3.1037    3.1618    6.1147 H         1 RES1    0.0000
     45 H12        3.2235    4.7158    6.6020 H         1 RES1    0.0000
     46 H13        4.5738    3.8523    6.2868 H         1 RES1    0.0000
     47 H14        2.8777    9.1438   13.6874 H         1 RES1    0.0000
     48 H15        1.5400    8.2076   13.6526 H         1 RES1    0.0000
     49 H16        2.7023    7.9285   14.7646 H         1 RES1    0.0000
     50 H17        3.1214    5.1970   12.4421 H         1 RES1    0.0000
     51 H18        2.8482    5.5473   14.0123 H         1 RES1    0.0000
     52 H19        1.6860    5.8264   12.9004 H         1 RES1    0.0000
     53 H20        5.0115    9.8953   13.6932 H         1 RES1    0.0000
     54 H21        6.2639    9.0798   14.3507 H         1 RES1    0.0000
     55 H22        6.5229   10.1105   13.1112 H         1 RES1    0.0000
     56 H23        6.9226    6.8847   11.5873 H         1 RES1    0.0000
     57 H24        7.6589    8.3166   11.8561 H         1 RES1    0.0000
     58 H25        7.4000    7.2859   13.0957 H         1 RES1    0.0000
     59 H26        5.2080   13.7796   10.9666 H         1 RES1    0.0000
     60 H27        1.6067   15.1243   12.5388 H         1 RES1    0.0000
     61 H28        2.1962   11.0685   11.8929 H         1 RES1    0.0000
@<TRIPOS>BOND
     1    1   12 1
     2    2   13 2
     3    3   15 2
     4    4   17 1
     5    5   27 2
     6    6   10 2
     7    7   10 2
     8    8   11 2
     9    9   11 2
    10   10   30 1
    11   11   32 1
    12   12   13 1
    13   13   14 1
    14   14   15 1
    15   15   16 1
    16   16   17 1
    17   17   12 1
    18   18   12 1
    19   19   18 1
    20   20   19 1
    21   21   20 1
    22   22   21 1
    23   23   14 1
    24   24   14 1
    25   25   16 1
    26   26   16 1
    27   27    4 1
    28   28   27 1
    29   29   28 ar
    30   30   29 ar
    31   31   30 ar
    32   32   31 ar
    33   33   28 ar
    34   34    1 1
    35   35   17 1
    36   36   18 1
    37   37   18 1
    38   38   19 1
    39   39   19 1
    40   40   20 1
    41   41   20 1
    42   42   21 1
    43   43   21 1
    44   44   22 1
    45   45   22 1
    46   46   22 1
    47   47   23 1
    48   48   23 1
    49   49   23 1
    50   50   24 1
    51   51   24 1
    52   52   24 1
    53   53   25 1
    54   54   25 1
    55   55   25 1
    56   56   26 1
    57   57   26 1
    58   58   26 1
    59   59   29 1
    60   60   31 1
    61   61   33 1
    62   32   33 ar
@<TRIPOS>SUBSTRUCTURE
     1 RES1 1

@<TRIPOS>CRYSIN
   8.4340   14.5370   19.3380  90.0000  90.0000  90.0000  19 1

