# MOL2 file generated by ConQuest
# Please check atom types

@<TRIPOS>MOLECULE
VEPXUL
    56    59     1
SMALL
NO_CHARGES
****
Generated from CSD

@<TRIPOS>ATOM
      1 O1         2.9441    8.6800    6.5166 O.3       1 RES1    0.0000
      2 N1         1.5251    5.3668    1.4115 N.2       1 RES1    0.0000
      3 C1         2.0013    6.5896    1.4211 C.2       1 RES1    0.0000
      4 O2         1.3118    3.4702   -1.4796 O.3       1 RES1    0.0000
      5 N2         2.3391    6.7451   -1.0136 N.2       1 RES1    0.0000
      6 C2         2.3641    7.3084    0.1644 C.2       1 RES1    0.0000
      7 C3         1.9280    5.4427   -0.9868 C.2       1 RES1    0.0000
      8 N3         1.8303    4.6431   -2.0215 N.2       1 RES1    0.0000
      9 C4         1.4842    4.7952    0.1759 C.2       1 RES1    0.0000
     10 N4         1.0882    3.5691   -0.1029 N.2       1 RES1    0.0000
     11 C5         2.2126    7.1992    2.7486 C.ar      1 RES1    0.0000
     12 C6         1.3188    6.9087    3.7747 C.ar      1 RES1    0.0000
     13 H1         0.5776    6.3786    3.5892 H         1 RES1    0.0000
     14 C7         1.4964    7.3837    5.0657 C.ar      1 RES1    0.0000
     15 C8         2.6500    8.1559    5.2904 C.ar      1 RES1    0.0000
     16 C9         3.6080    8.4423    4.3009 C.ar      1 RES1    0.0000
     17 C10        3.3387    7.9508    3.0360 C.ar      1 RES1    0.0000
     18 H2         3.9386    8.1326    2.3491 H         1 RES1    0.0000
     19 C11        0.4871    7.0397    6.1720 C.3       1 RES1    0.0000
     20 C12        4.8620    9.2840    4.5840 C.3       1 RES1    0.0000
     21 C13        2.7198    8.7520    0.1609 C.ar      1 RES1    0.0000
     22 C14        1.9459    9.6915    0.8052 C.ar      1 RES1    0.0000
     23 H3         1.2211    9.4215    1.3201 H         1 RES1    0.0000
     24 C15        2.2467   11.0420    0.6863 C.ar      1 RES1    0.0000
     25 H4         1.7154   11.6735    1.1151 H         1 RES1    0.0000
     26 C16        3.3184   11.4461   -0.0578 C.ar      1 RES1    0.0000
     27 H5         3.5180   12.3514   -0.1271 H         1 RES1    0.0000
     28 C17        4.1022   10.5258   -0.7037 C.ar      1 RES1    0.0000
     29 H6         4.8361   10.8037   -1.2012 H         1 RES1    0.0000
     30 C18        3.7929    9.1787   -0.6096 C.ar      1 RES1    0.0000
     31 H7         4.3088    8.5539   -1.0659 H         1 RES1    0.0000
     32 C19       -0.6809    6.1974    5.6440 C.3       1 RES1    0.0000
     33 H8        -0.3470    5.3618    5.3090 H         1 RES1    0.0000
     34 H9        -1.1242    6.6726    4.9380 H         1 RES1    0.0000
     35 H10       -1.3025    6.0309    6.3565 H         1 RES1    0.0000
     36 C20       -0.1427    8.3085    6.7712 C.3       1 RES1    0.0000
     37 H11       -0.6028    8.7941    6.0818 H         1 RES1    0.0000
     38 H12        0.5466    8.8610    7.1477 H         1 RES1    0.0000
     39 H13       -0.7656    8.0624    7.4593 H         1 RES1    0.0000
     40 C21        1.1810    6.2024    7.2662 C.3       1 RES1    0.0000
     41 H14        1.4828    5.3717    6.8915 H         1 RES1    0.0000
     42 H15        0.5602    6.0254    7.9758 H         1 RES1    0.0000
     43 H16        1.9325    6.6891    7.6130 H         1 RES1    0.0000
     44 C22        5.7678    9.3734    3.3385 C.3       1 RES1    0.0000
     45 H17        6.0533    8.4924    3.0870 H         1 RES1    0.0000
     46 H18        6.5359    9.9141    3.5400 H         1 RES1    0.0000
     47 H19        5.2780    9.7693    2.6135 H         1 RES1    0.0000
     48 C23        5.7176    8.7040    5.7157 C.3       1 RES1    0.0000
     49 H20        5.2005    8.6734    6.5246 H         1 RES1    0.0000
     50 H21        6.4894    9.2592    5.8502 H         1 RES1    0.0000
     51 H22        5.9990    7.8167    5.4812 H         1 RES1    0.0000
     52 C24        4.4428   10.7197    4.9343 C.3       1 RES1    0.0000
     53 H23        3.9173   10.7126    5.7374 H         1 RES1    0.0000
     54 H24        3.9231   11.0856    4.2144 H         1 RES1    0.0000
     55 H25        5.2257   11.2578    5.0692 H         1 RES1    0.0000
     56 H26        2.4306    8.5977    7.0575 H         1 RES1    0.0000
@<TRIPOS>BOND
     1    1   15 1
     2    2    3 2
     3    3    6 1
     4    4    8 1
     5    5    6 2
     6    6   21 1
     7    7    5 1
     8    8    7 2
     9    9    2 1
    10   10    4 1
    11   11    3 1
    12   12   11 ar
    13   13   12 1
    14   14   12 ar
    15   15   14 ar
    16   16   15 ar
    17   17   11 ar
    18   18   17 1
    19   19   14 1
    20   20   16 1
    21   21   22 ar
    22   22   23 1
    23   24   22 ar
    24   25   24 1
    25   26   24 ar
    26   27   26 1
    27   28   26 ar
    28   29   28 1
    29   30   21 ar
    30   31   30 1
    31   32   19 1
    32   33   32 1
    33   34   32 1
    34   35   32 1
    35   36   19 1
    36   37   36 1
    37   38   36 1
    38   39   36 1
    39   40   19 1
    40   41   40 1
    41   42   40 1
    42   43   40 1
    43   44   20 1
    44   45   44 1
    45   46   44 1
    46   47   44 1
    47   48   20 1
    48   49   48 1
    49   50   48 1
    50   51   48 1
    51   52   20 1
    52   53   52 1
    53   54   52 1
    54   55   52 1
    55   56    1 1
    56    7    9 1
    57    9   10 2
    58   16   17 ar
    59   28   30 ar
@<TRIPOS>SUBSTRUCTURE
     1 RES1 1

@<TRIPOS>CRYSIN
  19.3830   10.9693   20.4982  90.0000  90.0000  90.0000  61 1

