# MOL2 file generated by ConQuest
# Please check atom types

@<TRIPOS>MOLECULE
VEPXIY
    34    35     1
SMALL
NO_CHARGES
****
Generated from CSD

@<TRIPOS>ATOM
      1 O1         1.6551    2.6334    3.8278 O.2       1 RES1    0.0000
      2 O2         1.7765    2.9154    6.3771 O.3       1 RES1    0.0000
      3 O3         0.1617    1.4006    5.9325 O.2       1 RES1    0.0000
      4 O4         3.9816   -3.3221    9.1692 O.2       1 RES1    0.0000
      5 O5         5.5995   -1.9158    9.3508 O.2       1 RES1    0.0000
      6 N1         1.0288    3.5886    4.1469 N.2       1 RES1    0.0000
      7 N2         4.4701   -2.2287    8.9906 N.pl3     1 RES1    0.0000
      8 C1         1.2276    1.6874    6.4044 C.2       1 RES1    0.0000
      9 C2         1.1426    3.9513    5.6098 C.3       1 RES1    0.0000
     10 C3         2.1031    5.1359    5.6766 C.3       1 RES1    0.0000
     11 H1         3.0065    4.8434    5.3981 H         1 RES1    0.0000
     12 H2         1.8018    5.8398    5.0499 H         1 RES1    0.0000
     13 C4         2.1686    5.7058    7.0794 C.3       1 RES1    0.0000
     14 H3         2.7635    6.4973    7.0852 H         1 RES1    0.0000
     15 H4         2.5546    5.0290    7.6896 H         1 RES1    0.0000
     16 C5         0.7899    6.1088    7.5797 C.3       1 RES1    0.0000
     17 H5         0.8576    6.4224    8.5160 H         1 RES1    0.0000
     18 H6         0.4447    6.8563    7.0297 H         1 RES1    0.0000
     19 C6        -0.1773    4.9384    7.5066 C.3       1 RES1    0.0000
     20 H7        -1.0799    5.2426    7.7757 H         1 RES1    0.0000
     21 H8         0.1109    4.2361    8.1411 H         1 RES1    0.0000
     22 C7        -0.2409    4.3516    6.1022 C.3       1 RES1    0.0000
     23 H9        -0.8322    3.5573    6.1039 H         1 RES1    0.0000
     24 H10       -0.6293    5.0200    5.4841 H         1 RES1    0.0000
     25 C8         2.1157    0.7021    7.0905 C.ar      1 RES1    0.0000
     26 C9         1.6173   -0.5880    7.2698 C.ar      1 RES1    0.0000
     27 H11        0.7462   -0.8063    6.9589 H         1 RES1    0.0000
     28 C10        2.3844   -1.5476    7.8953 C.ar      1 RES1    0.0000
     29 H12        2.0511   -2.4267    8.0301 H         1 RES1    0.0000
     30 C11        3.6526   -1.1950    8.3224 C.ar      1 RES1    0.0000
     31 C12        4.1789    0.0658    8.1537 C.ar      1 RES1    0.0000
     32 H13        5.0563    0.2717    8.4548 H         1 RES1    0.0000
     33 C13        3.3950    1.0295    7.5324 C.ar      1 RES1    0.0000
     34 H14        3.7300    1.9101    7.4085 H         1 RES1    0.0000
@<TRIPOS>BOND
     1    1    6 2
     2    2    8 1
     3    3    8 2
     4    4    7 2
     5    5    7 2
     6    6    9 1
     7    7   30 1
     8    8   25 1
     9    9    2 1
    10   10    9 1
    11   11   10 1
    12   12   10 1
    13   13   10 1
    14   14   13 1
    15   15   13 1
    16   16   13 1
    17   17   16 1
    18   18   16 1
    19   19   16 1
    20   20   19 1
    21   21   19 1
    22   22    9 1
    23   23   22 1
    24   24   22 1
    25   25   26 ar
    26   26   27 1
    27   28   26 ar
    28   29   28 1
    29   30   28 ar
    30   31   30 ar
    31   32   31 1
    32   33   25 ar
    33   34   33 1
    34   19   22 1
    35   31   33 ar
@<TRIPOS>SUBSTRUCTURE
     1 RES1 1

@<TRIPOS>CRYSIN
   6.2100   11.1830   19.1300  90.0000  90.7230  90.0000  14 1

