# MOL2 file generated by ConQuest
# Please check atom types

@<TRIPOS>MOLECULE
VEPYEW
    40    44     1
SMALL
NO_CHARGES
****
Generated from CSD

@<TRIPOS>ATOM
      1 O1        16.3964    0.8394    0.3352 O.3       1 RES1    0.0000
      2 N1        13.1545    1.7787   -0.8836 N.3       1 RES1    0.0000
      3 C1        15.6096   -0.0948    0.9719 C.ar      1 RES1    0.0000
      4 O2        11.7875   -0.3409   -3.2693 O.3       1 RES1    0.0000
      5 N2        10.5381    2.6562   -2.0947 N.pl3     1 RES1    0.0000
      6 H1         9.7847    2.8244   -2.4710 H         1 RES1    0.0000
      7 H2        10.8639    3.2046   -1.5158 H         1 RES1    0.0000
      8 C2        16.1092   -1.0626    1.8068 C.ar      1 RES1    0.0000
      9 H3        17.0155   -1.1148    2.0048 H         1 RES1    0.0000
     10 N3        12.8050   -0.0269   -2.3552 N.2       1 RES1    0.0000
     11 C3        15.2167   -1.9368    2.3263 C.ar      1 RES1    0.0000
     12 H4        15.5140   -2.5973    2.9098 H         1 RES1    0.0000
     13 N4        10.8068    0.6460   -3.2662 N.2       1 RES1    0.0000
     14 C4        13.8389   -1.8718    2.0064 C.ar      1 RES1    0.0000
     15 C5        12.9131   -2.8502    2.4878 C.ar      1 RES1    0.0000
     16 H5        13.2207   -3.5265    3.0469 H         1 RES1    0.0000
     17 C6        11.6020   -2.8183    2.1511 C.ar      1 RES1    0.0000
     18 H6        11.0244   -3.4777    2.4649 H         1 RES1    0.0000
     19 C7        11.1173   -1.8033    1.3391 C.ar      1 RES1    0.0000
     20 H7        10.2160   -1.7820    1.1182 H         1 RES1    0.0000
     21 C8        11.9614   -0.8265    0.8577 C.ar      1 RES1    0.0000
     22 H8        11.6176   -0.1447    0.3260 H         1 RES1    0.0000
     23 C9        13.3474   -0.8490    1.1609 C.ar      1 RES1    0.0000
     24 C10       14.2973    0.0505    0.6414 C.ar      1 RES1    0.0000
     25 C11       14.2849    1.1787   -0.2636 C.2       1 RES1    0.0000
     26 C12       15.5620    1.5992   -0.4342 C.2       1 RES1    0.0000
     27 C13       16.2104    2.6276   -1.2325 C.ar      1 RES1    0.0000
     28 C14       17.6083    2.6428   -1.3680 C.ar      1 RES1    0.0000
     29 H9        18.1148    1.9906   -0.9415 H         1 RES1    0.0000
     30 C15       18.2321    3.5882   -2.1100 C.ar      1 RES1    0.0000
     31 H10       19.1570    3.5585   -2.2120 H         1 RES1    0.0000
     32 C16       17.5207    4.5807   -2.7071 C.ar      1 RES1    0.0000
     33 H11       17.9608    5.2345   -3.2023 H         1 RES1    0.0000
     34 C17       16.1592    4.6166   -2.5807 C.ar      1 RES1    0.0000
     35 H12       15.6726    5.2917   -2.9951 H         1 RES1    0.0000
     36 C18       15.5061    3.6543   -1.8388 C.ar      1 RES1    0.0000
     37 H13       14.5836    3.6953   -1.7459 H         1 RES1    0.0000
     38 C19       12.4428    1.1007   -1.8373 C.2       1 RES1    0.0000
     39 C20       11.2090    1.5381   -2.4070 C.2       1 RES1    0.0000
     40 H14       12.6295    2.3495   -0.2590 H         1 RES1    0.0000
@<TRIPOS>BOND
     1    1    3 1
     2    2   25 1
     3    3    8 ar
     4    4   10 1
     5    5    6 1
     6    7    5 1
     7    8    9 1
     8   10   38 2
     9   11    8 ar
    10   12   11 1
    11   13    4 1
    12   14   11 ar
    13   15   14 ar
    14   16   15 1
    15   17   15 ar
    16   18   17 1
    17   19   17 ar
    18   20   19 1
    19   21   19 ar
    20   22   21 1
    21   23   14 ar
    22   24    3 ar
    23   25   24 1
    24   26    1 1
    25   27   26 1
    26   28   27 ar
    27   29   28 1
    28   30   28 ar
    29   31   30 1
    30   32   30 ar
    31   33   32 1
    32   34   32 ar
    33   35   34 1
    34   36   27 ar
    35   37   36 1
    36   38    2 1
    37   39    5 1
    38   40    2 1
    39   13   39 2
    40   21   23 ar
    41   23   24 ar
    42   25   26 2
    43   34   36 ar
    44   38   39 1
@<TRIPOS>SUBSTRUCTURE
     1 RES1 1

@<TRIPOS>CRYSIN
  37.5200    5.6074   15.2930  90.0000  95.0210  90.0000  15 1

