# MOL2 file generated by ConQuest
# Please check atom types

@<TRIPOS>MOLECULE
VEQBIF
    45    48     1
SMALL
NO_CHARGES
****
Generated from CSD

@<TRIPOS>ATOM
      1 O1        -3.2251    9.9002    8.0215 O.3       1 RES1    0.0000
      2 H1        -4.0485    9.8621    8.1840 H         1 RES1    0.0000
      3 O2         0.8783   17.3219    7.8030 O.2       1 RES1    0.0000
      4 O3        -3.0505    9.3663   10.1724 O.2       1 RES1    0.0000
      5 O4         3.0316   17.0913    7.8425 O.2       1 RES1    0.0000
      6 O5         2.9844   10.1534    8.4251 O.2       1 RES1    0.0000
      7 C1        -1.1038   12.5312   10.3474 C.3       1 RES1    0.0000
      8 H2        -1.9082   12.0317   10.5985 H         1 RES1    0.0000
      9 H3        -1.1758   13.4521   10.6761 H         1 RES1    0.0000
     10 H4        -0.3159   12.1027   10.7432 H         1 RES1    0.0000
     11 N1         0.9590   11.1753    8.4588 N.am      1 RES1    0.0000
     12 C2        -2.5471    9.7162    9.1386 C.2       1 RES1    0.0000
     13 N2         1.8830   16.6389    7.9315 N.pl3     1 RES1    0.0000
     14 C3        -0.5398   11.1424    8.2398 C.3       1 RES1    0.0000
     15 C4        -0.7732   11.0488    6.7250 C.3       1 RES1    0.0000
     16 H5        -0.3721   11.8274    6.2841 H         1 RES1    0.0000
     17 H6        -1.7357   11.0299    6.5433 H         1 RES1    0.0000
     18 H7        -0.3604   10.2296    6.3814 H         1 RES1    0.0000
     19 C5        -2.2386   13.1218    8.1948 C.3       1 RES1    0.0000
     20 H8        -2.9985   12.5411    8.4103 H         1 RES1    0.0000
     21 H9        -2.1351   13.1768    7.2222 H         1 RES1    0.0000
     22 H10       -2.3992   14.0183    8.5577 H         1 RES1    0.0000
     23 C6        -0.9643   12.5434    8.8115 C.3       1 RES1    0.0000
     24 C7        -0.9547    7.4357    8.3592 C.ar      1 RES1    0.0000
     25 H11       -1.8933    7.3604    8.4867 H         1 RES1    0.0000
     26 C8        -1.0428    9.9181    9.0274 C.3       1 RES1    0.0000
     27 H12       -0.7200   10.0508    9.9643 H         1 RES1    0.0000
     28 C9        -0.2161    6.3119    8.0093 C.ar      1 RES1    0.0000
     29 H13       -0.6537    5.4773    7.8932 H         1 RES1    0.0000
     30 C10        1.1568    6.4013    7.8288 C.ar      1 RES1    0.0000
     31 H14        1.6620    5.6263    7.6090 H         1 RES1    0.0000
     32 C11        0.4253   14.7194    8.3649 C.ar      1 RES1    0.0000
     33 H15       -0.3228   15.3039    8.4038 H         1 RES1    0.0000
     34 C12        1.7201   15.2008    8.1742 C.ar      1 RES1    0.0000
     35 C13        1.7867    7.6285    7.9705 C.ar      1 RES1    0.0000
     36 H16        2.7255    7.6952    7.8446 H         1 RES1    0.0000
     37 C14        1.3964   12.5125    8.4167 C.ar      1 RES1    0.0000
     38 C15        2.6933   13.0131    8.2982 C.ar      1 RES1    0.0000
     39 H17        3.4467   12.4347    8.3038 H         1 RES1    0.0000
     40 C16        2.8409   14.3908    8.1721 C.ar      1 RES1    0.0000
     41 H18        3.7064   14.7732    8.0853 H         1 RES1    0.0000
     42 C17        0.2826   13.3512    8.4943 C.ar      1 RES1    0.0000
     43 C18       -0.3330    8.6691    8.5243 C.ar      1 RES1    0.0000
     44 C19        1.0482    8.7650    8.2971 C.ar      1 RES1    0.0000
     45 C20        1.7558   10.0696    8.3981 C.2       1 RES1    0.0000
@<TRIPOS>BOND
     1    1    2 1
     2    3   13 2
     3    4   12 2
     4    5   13 2
     5    6   45 2
     6    7    8 1
     7    9    7 1
     8   10    7 1
     9   11   14 1
    10   12    1 1
    11   13   34 1
    12   14   15 1
    13   15   16 1
    14   17   15 1
    15   18   15 1
    16   19   20 1
    17   21   19 1
    18   22   19 1
    19   23    7 1
    20   24   25 1
    21   26   12 1
    22   27   26 1
    23   28   24 ar
    24   29   28 1
    25   30   28 ar
    26   31   30 1
    27   32   33 1
    28   34   32 ar
    29   35   30 ar
    30   36   35 1
    31   37   11 1
    32   38   37 ar
    33   39   38 1
    34   40   34 ar
    35   41   40 1
    36   42   23 1
    37   43   24 ar
    38   44   35 ar
    39   45   11 1
    40   14   23 1
    41   14   26 1
    42   19   23 1
    43   26   43 1
    44   32   42 ar
    45   37   42 ar
    46   38   40 ar
    47   43   44 ar
    48   44   45 1
@<TRIPOS>SUBSTRUCTURE
     1 RES1 1

@<TRIPOS>CRYSIN
   8.8454   14.1900   13.5995  90.0000 104.6460  90.0000  14 1

