# MOL2 file generated by ConQuest
# Please check atom types

@<TRIPOS>MOLECULE
VEQJAD
    51    54     1
SMALL
NO_CHARGES
****
Generated from CSD

@<TRIPOS>ATOM
      1 O1        -0.8852   -1.5238    6.0748 O.2       1 RES1    0.0000
      2 O2        -3.3420    1.6630    0.3233 O.2       1 RES1    0.0000
      3 O3        -1.6511    0.4275   -0.0092 O.2       1 RES1    0.0000
      4 N1        -2.2910    1.1991    0.6743 N.pl3     1 RES1    0.0000
      5 C1         0.3154    1.7446    6.8183 C.2       1 RES1    0.0000
      6 C2        -0.2820    2.6489    5.8152 C.2       1 RES1    0.0000
      7 C3        -0.1179    3.9447    6.2041 C.2       1 RES1    0.0000
      8 C4         0.6637    3.9609    7.4445 C.ar      1 RES1    0.0000
      9 C5         0.1611    0.3908    6.9319 C.2       1 RES1    0.0000
     10 C6        -0.5506    1.1215    2.3793 C.ar      1 RES1    0.0000
     11 C7         1.1540    5.0331    8.1807 C.ar      1 RES1    0.0000
     12 C8         1.9941    4.7760    9.2484 C.ar      1 RES1    0.0000
     13 C9        -2.0878    2.6671    4.0705 C.ar      1 RES1    0.0000
     14 C10       -0.2384    5.3904    4.1647 C.ar      1 RES1    0.0000
     15 C11        2.3517    3.4888    9.6105 C.ar      1 RES1    0.0000
     16 C12       -1.7862    1.5696    1.9978 C.ar      1 RES1    0.0000
     17 C13       -0.0660    1.4751    3.6271 C.ar      1 RES1    0.0000
     18 C14       -1.3098    6.1259    6.1477 C.ar      1 RES1    0.0000
     19 C15       -0.8431    2.2503    4.4944 C.ar      1 RES1    0.0000
     20 C16       -2.5730    2.3319    2.8319 C.ar      1 RES1    0.0000
     21 C17        1.8458    2.4096    8.8614 C.ar      1 RES1    0.0000
     22 C18        1.0068    2.6382    7.7826 C.ar      1 RES1    0.0000
     23 C19       -1.7771    7.2419    5.4929 C.ar      1 RES1    0.0000
     24 C20       -0.5474    5.1607    5.4966 C.ar      1 RES1    0.0000
     25 C21       -0.6757    6.5354    3.5228 C.ar      1 RES1    0.0000
     26 C22       -0.8311   -0.3352    6.0923 C.2       1 RES1    0.0000
     27 C23        0.8737   -0.4511    7.9267 C.3       1 RES1    0.0000
     28 C24       -1.4452    7.4821    4.1610 C.ar      1 RES1    0.0000
     29 C25       -1.9458    8.7209    3.4590 C.3       1 RES1    0.0000
     30 C26        3.2752    3.2330   10.7567 C.3       1 RES1    0.0000
     31 H1        -0.0343    0.6085    1.7697 H         1 RES1    0.0000
     32 H2         0.9412    5.9308    7.9525 H         1 RES1    0.0000
     33 H3         2.3332    5.4992    9.7619 H         1 RES1    0.0000
     34 H4        -2.6125    3.2064    4.6496 H         1 RES1    0.0000
     35 H5         0.2888    4.7547    3.6964 H         1 RES1    0.0000
     36 H6         0.7921    1.1832    3.9098 H         1 RES1    0.0000
     37 H7        -1.5471    5.9931    7.0575 H         1 RES1    0.0000
     38 H8        -3.4351    2.6056    2.5428 H         1 RES1    0.0000
     39 H9         2.0658    1.5171    9.1015 H         1 RES1    0.0000
     40 H10       -2.3074    7.8791    5.9556 H         1 RES1    0.0000
     41 H11       -0.4283    6.6838    2.6176 H         1 RES1    0.0000
     42 H12       -1.4655    0.1742    5.6009 H         1 RES1    0.0000
     43 H13        1.7067   -0.7455    7.5766 H         1 RES1    0.0000
     44 H14        0.3312   -1.2042    8.1280 H         1 RES1    0.0000
     45 H15        1.0235    0.0519    8.7192 H         1 RES1    0.0000
     46 H16       -2.7924    8.5440    3.0656 H         1 RES1    0.0000
     47 H17       -1.3333    8.9906    2.7838 H         1 RES1    0.0000
     48 H18       -2.0346    9.4153    4.1019 H         1 RES1    0.0000
     49 H19        4.1713    3.2100   10.4427 H         1 RES1    0.0000
     50 H20        3.0578    2.3969   11.1529 H         1 RES1    0.0000
     51 H21        3.1839    3.9232   11.4032 H         1 RES1    0.0000
@<TRIPOS>BOND
     1    1   26 2
     2    2    4 2
     3    3    4 2
     4    4   16 1
     5    5    6 1
     6    6    7 2
     7    7    8 1
     8    8   11 ar
     9    9    5 2
    10   10   16 ar
    11   11   12 ar
    12   12   15 ar
    13   13   19 ar
    14   14   24 ar
    15   15   21 ar
    16   16   20 ar
    17   17   10 ar
    18   18   23 ar
    19   19    6 1
    20   20   13 ar
    21   21   22 ar
    22   22    5 1
    23   23   28 ar
    24   24    7 1
    25   25   14 ar
    26   26    9 1
    27   27    9 1
    28   28   25 ar
    29   29   28 1
    30   30   15 1
    31   31   10 1
    32   32   11 1
    33   33   12 1
    34   34   13 1
    35   35   14 1
    36   36   17 1
    37   37   18 1
    38   38   20 1
    39   39   21 1
    40   40   23 1
    41   41   25 1
    42   42   26 1
    43   43   27 1
    44   44   27 1
    45   45   27 1
    46   46   29 1
    47   47   29 1
    48   48   29 1
    49   49   30 1
    50   50   30 1
    51   51   30 1
    52    8   22 ar
    53   17   19 ar
    54   18   24 ar
@<TRIPOS>SUBSTRUCTURE
     1 RES1 1

@<TRIPOS>CRYSIN
  10.7108   11.2338   10.2696  96.4440 110.9630 110.1970   2 1

