# MOL2 file generated by ConQuest
# Please check atom types

@<TRIPOS>MOLECULE
VEQMUA
    21    20     1
SMALL
NO_CHARGES
****
Generated from CSD

@<TRIPOS>ATOM
      1 O1        -1.1800   -2.8220   -5.5342 O.3       1 RES1    0.0000
      2 O2        -0.5241   -1.0480   -4.3000 O.2       1 RES1    0.0000
      3 O3        -3.0960   -0.9932   -5.8342 O.2       1 RES1    0.0000
      4 O4        -2.0606   -3.3060   -3.4742 O.3       1 RES1    0.0000
      5 N1        -2.3788   -2.8693   -4.7633 N.am      1 RES1    0.0000
      6 N2        -3.7495   -1.3403   -3.6803 N.am      1 RES1    0.0000
      7 H1        -3.6076   -1.7540   -2.9088 H         1 RES1    0.0000
      8 H2        -4.2440   -0.6513   -3.7638 H         1 RES1    0.0000
      9 C1        -0.2887   -1.8406   -5.1622 C.2       1 RES1    0.0000
     10 C2        -3.0665   -1.6208   -4.7858 C.2       1 RES1    0.0000
     11 C3        -2.4708   -4.6892   -3.3422 C.3       1 RES1    0.0000
     12 H3        -2.0641   -5.2354   -4.0606 H         1 RES1    0.0000
     13 H4        -3.4558   -4.7610   -3.4120 H         1 RES1    0.0000
     14 C4         0.9342   -1.9546   -5.9936 C.3       1 RES1    0.0000
     15 H5         1.4205   -1.1035   -5.9788 H         1 RES1    0.0000
     16 H6         0.6831   -2.1707   -6.9163 H         1 RES1    0.0000
     17 H7         1.5083   -2.6643   -5.6368 H         1 RES1    0.0000
     18 C5        -2.0150   -5.1688   -2.0136 C.3       1 RES1    0.0000
     19 H8        -2.3090   -6.0946   -1.8829 H         1 RES1    0.0000
     20 H9        -2.3972   -4.6019   -1.3129 H         1 RES1    0.0000
     21 H10       -1.0371   -5.1281   -1.9694 H         1 RES1    0.0000
@<TRIPOS>BOND
     1    1    5 1
     2    2    9 2
     3    3   10 2
     4    4    5 1
     5    5   10 1
     6    6    7 1
     7    8    6 1
     8    9    1 1
     9   10    6 1
    10   11    4 1
    11   12   11 1
    12   13   11 1
    13   14    9 1
    14   15   14 1
    15   16   14 1
    16   17   14 1
    17   18   11 1
    18   19   18 1
    19   20   18 1
    20   21   18 1
@<TRIPOS>SUBSTRUCTURE
     1 RES1 1

@<TRIPOS>CRYSIN
  10.7600    7.4009   10.0720  90.0000 102.6600  90.0000  14 1

