# MOL2 file generated by ConQuest
# Please check atom types

@<TRIPOS>MOLECULE
VERXOG
    24    23     2
SMALL
NO_CHARGES
****
Generated from CSD

@<TRIPOS>ATOM
      1 N1         1.2528    2.1430    2.1647 N.pl3     1 RES1    0.0000
      2 O1         1.6801    1.0566    2.5243 O.2       1 RES1    0.0000
      3 O2         0.1884    2.2847    1.5798 O.2       1 RES1    0.0000
      4 C1         2.0520    3.3349    2.4580 C.ar      1 RES1    0.0000
      5 C2         1.5017    4.5743    2.2190 C.ar      1 RES1    0.0000
      6 C3         2.2424    5.7059    2.5368 C.ar      1 RES1    0.0000
      7 C4         3.5217    5.5601    3.0725 C.ar      1 RES1    0.0000
      8 C5         4.0452    4.3025    3.2879 C.ar      1 RES1    0.0000
      9 C6         3.3166    3.1731    2.9895 C.ar      1 RES1    0.0000
     10 C7         1.6526    7.0291    2.3356 C.2       1 RES1    0.0000
     11 N2         0.5158    7.1609    1.7082 N.2       1 RES1    0.0000
     12 O3         0.5158    7.1609    1.7082 Du        2 SUP2    0.0000
     13 C8         0.1757    8.5797    1.7787 C.3       1 RES1    0.0000
     14 C9         1.3817    9.2171    2.4207 C.3       1 RES1    0.0000
     15 O4         2.2405    8.0958    2.8034 O.3       1 RES1    0.0000
     16 N3         2.2405    8.0958    2.8034 Du        2 SUP2    0.0000
     17 H1         0.6321    4.6924    1.8828 H         1 RES1    0.0000
     18 H2         4.0293    6.3245    3.2701 H         1 RES1    0.0000
     19 H3         4.9123    4.2077    3.6452 H         1 RES1    0.0000
     20 H4         3.6633    2.2987    3.1505 H         1 RES1    0.0000
     21 H5        -0.0073    8.9219    0.8848 H         1 RES1    0.0000
     22 H6        -0.6473    8.6687    2.3223 H         1 RES1    0.0000
     23 H7         1.8680    9.7369    1.8262 H         1 RES1    0.0000
     24 H8         1.1693    9.7112    3.2418 H         1 RES1    0.0000
@<TRIPOS>BOND
     1    1    2 2
     2    3    1 2
     3    4    1 1
     4    5    4 ar
     5    6    5 ar
     6    7    6 ar
     7    8    7 ar
     8    9    4 ar
     9   10    6 1
    10   11   10 2
    11   13   11 1
    12   14   13 1
    13   15   10 1
    14   17    5 1
    15   18    7 1
    16   19    8 1
    17   20    9 1
    18   21   13 1
    19   22   13 1
    20   23   14 1
    21   24   14 1
    22    8    9 ar
    23   14   15 1
@<TRIPOS>SUBSTRUCTURE
     1 RES1 1
     2 SUP2 12

@<TRIPOS>CRYSIN
   6.0910   19.7825    7.1119  90.0000  95.5840  90.0000  14 1

