# MOL2 file generated by ConQuest
# Please check atom types

@<TRIPOS>MOLECULE
VERXIC
    52    55     1
SMALL
NO_CHARGES
****
Generated from CSD

@<TRIPOS>ATOM
      1 O1         5.7753    3.3277    6.2794 O.3       1 RES1    0.0000
      2 O2         5.3734    1.9038    7.9991 O.2       1 RES1    0.0000
      3 O3         2.1773    3.1649    8.5089 O.2       1 RES1    0.0000
      4 O4         1.3079    1.1074    8.7827 O.3       1 RES1    0.0000
      5 H1         0.7451    1.5250    9.3686 H         1 RES1    0.0000
      6 O5         2.9770   -1.4062    0.4557 O.2       1 RES1    0.0000
      7 O6         5.1320   -1.1773    0.6057 O.2       1 RES1    0.0000
      8 N1         3.7953    2.2662    6.4169 N.am      1 RES1    0.0000
      9 N2         3.9807   -0.8661    0.9126 N.pl3     1 RES1    0.0000
     10 C1         7.8655    4.4501    5.8887 C.3       1 RES1    0.0000
     11 H2         8.7870    4.4024    6.2004 H         1 RES1    0.0000
     12 C2         7.3820    5.8828    5.9486 C.ar      1 RES1    0.0000
     13 C3         7.2612    6.7211    7.0479 C.ar      1 RES1    0.0000
     14 H3         7.5174    6.3758    7.8984 H         1 RES1    0.0000
     15 C4         6.8094    8.0303    6.8484 C.ar      1 RES1    0.0000
     16 H4         6.6778    8.5623    7.6301 H         1 RES1    0.0000
     17 C5         6.5208    8.4898    5.5745 C.ar      1 RES1    0.0000
     18 H5         6.1944    9.4259    5.4359 H         1 RES1    0.0000
     19 C6         6.6607    7.6651    4.4638 C.ar      1 RES1    0.0000
     20 H6         6.4597    8.0101    3.5357 H         1 RES1    0.0000
     21 C7         7.0822    6.3531    4.6604 C.ar      1 RES1    0.0000
     22 C8         7.3235    5.2633    3.7022 C.ar      1 RES1    0.0000
     23 C9         7.1825    5.2161    2.3126 C.ar      1 RES1    0.0000
     24 H7         6.8874    5.9899    1.8267 H         1 RES1    0.0000
     25 C10        7.5073    4.0248    1.6587 C.ar      1 RES1    0.0000
     26 H8         7.4362    3.9504    0.6689 H         1 RES1    0.0000
     27 C11        7.9582    2.9201    2.3607 C.ar      1 RES1    0.0000
     28 H9         8.1994    2.0854    1.8892 H         1 RES1    0.0000
     29 C12        8.0942    2.9655    3.7449 C.ar      1 RES1    0.0000
     30 H10        8.4284    2.1498    4.2341 H         1 RES1    0.0000
     31 C13        7.7787    4.1415    4.4097 C.ar      1 RES1    0.0000
     32 C14        7.1305    3.4750    6.7903 C.3       1 RES1    0.0000
     33 H11        7.5525    2.6256    6.7480 H         1 RES1    0.0000
     34 H12        7.0776    3.7942    7.7183 H         1 RES1    0.0000
     35 C15        5.0075    2.4687    6.9733 C.2       1 RES1    0.0000
     36 C16        2.8871    1.3502    7.0799 C.3       1 RES1    0.0000
     37 H13        3.4104    0.6137    7.4500 H         1 RES1    0.0000
     38 H14        2.1880    1.0289    6.3989 H         1 RES1    0.0000
     39 C17        2.1036    2.0046    8.1998 C.2       1 RES1    0.0000
     40 C18        3.3498    2.9171    5.1761 C.3       1 RES1    0.0000
     41 H15        2.3891    3.2035    5.3110 H         1 RES1    0.0000
     42 H16        3.9144    3.7373    5.0206 H         1 RES1    0.0000
     43 C19        3.4865    1.9988    3.9797 C.ar      1 RES1    0.0000
     44 C20        4.7440    1.7980    3.4023 C.ar      1 RES1    0.0000
     45 H17        5.5244    2.2968    3.7195 H         1 RES1    0.0000
     46 C21        4.9094    0.8887    2.3692 C.ar      1 RES1    0.0000
     47 H18        5.7607    0.7533    1.9553 H         1 RES1    0.0000
     48 C22        3.8001    0.1864    1.9270 C.ar      1 RES1    0.0000
     49 C23        2.5280    0.4101    2.4225 C.ar      1 RES1    0.0000
     50 H19        1.7312   -0.0652    2.0766 H         1 RES1    0.0000
     51 C24        2.3817    1.3289    3.4586 C.ar      1 RES1    0.0000
     52 H20        1.5095    1.4782    3.8445 H         1 RES1    0.0000
@<TRIPOS>BOND
     1    1   32 1
     2    2   35 2
     3    3   39 2
     4    4    5 1
     5    6    9 2
     6    7    9 2
     7    8   35 1
     8    9   48 1
     9   10   11 1
    10   12   10 1
    11   13   12 ar
    12   14   13 1
    13   15   13 ar
    14   16   15 1
    15   17   15 ar
    16   18   17 1
    17   19   17 ar
    18   20   19 1
    19   21   12 ar
    20   22   21 1
    21   23   22 ar
    22   24   23 1
    23   25   23 ar
    24   26   25 1
    25   27   25 ar
    26   28   27 1
    27   29   27 ar
    28   30   29 1
    29   31   10 1
    30   32   10 1
    31   33   32 1
    32   34   32 1
    33   35    1 1
    34   36    8 1
    35   37   36 1
    36   38   36 1
    37   39    4 1
    38   40    8 1
    39   41   40 1
    40   42   40 1
    41   43   40 1
    42   44   43 ar
    43   45   44 1
    44   46   44 ar
    45   47   46 1
    46   48   46 ar
    47   49   48 ar
    48   50   49 1
    49   51   43 ar
    50   52   51 1
    51   19   21 ar
    52   22   31 ar
    53   29   31 ar
    54   36   39 1
    55   49   51 ar
@<TRIPOS>SUBSTRUCTURE
     1 RES1 1

@<TRIPOS>CRYSIN
  12.1150    9.1870   36.7540  90.0000  90.0000  90.0000  61 1

