# MOL2 file generated by ConQuest
# Please check atom types

@<TRIPOS>MOLECULE
VESRAP
    36    37     1
SMALL
NO_CHARGES
****
Generated from CSD

@<TRIPOS>ATOM
      1 O1         1.0668   -2.3396    3.8348 O.3       1 RES1    0.0000
      2 O2         0.7710    0.9648    5.1630 O.2       1 RES1    0.0000
      3 O3         1.7190    0.2312    3.2561 O.3       1 RES1    0.0000
      4 O4        -0.9904   -1.3647    5.9077 O.3       1 RES1    0.0000
      5 O5        -3.1221   -0.1263    8.3643 O.2       1 RES1    0.0000
      6 N1        -1.6611   -1.3274    7.1554 N.am      1 RES1    0.0000
      7 H1        -1.6890   -2.0230    7.6922 H         1 RES1    0.0000
      8 N2        -1.8274    0.9491    6.8459 N.am      1 RES1    0.0000
      9 H2        -2.1488    1.7402    7.0570 H         1 RES1    0.0000
     10 H3        -1.2144    0.8765    6.2188 H         1 RES1    0.0000
     11 C1         2.2854   -2.2125    4.5473 C.3       1 RES1    0.0000
     12 H4         3.0490   -1.7861    4.0830 H         1 RES1    0.0000
     13 H5         2.5293   -2.9347    5.1775 H         1 RES1    0.0000
     14 C2         1.1315   -1.3705    4.8825 C.3       1 RES1    0.0000
     15 C3         1.1877    0.0811    4.4538 C.2       1 RES1    0.0000
     16 C4         0.3873   -1.6461    6.1528 C.3       1 RES1    0.0000
     17 H6         0.5013   -2.5930    6.4171 H         1 RES1    0.0000
     18 H7         0.7298   -1.0718    6.8813 H         1 RES1    0.0000
     19 C5        -2.2661   -0.1335    7.4729 C.2       1 RES1    0.0000
     20 C6         2.0522    1.6138    2.8451 C.3       1 RES1    0.0000
     21 H8         1.4385    2.2499    3.3125 H         1 RES1    0.0000
     22 C7         3.4686    1.8773    3.2948 C.3       1 RES1    0.0000
     23 H9         3.7404    2.7754    3.0111 H         1 RES1    0.0000
     24 H10        4.0676    1.2132    2.8934 H         1 RES1    0.0000
     25 H11        3.5183    1.8148    4.2716 H         1 RES1    0.0000
     26 C8         1.8026    1.6949    1.3637 C.ar      1 RES1    0.0000
     27 C9         0.6057    2.2391    0.8801 C.ar      1 RES1    0.0000
     28 H12       -0.0417    2.5578    1.4991 H         1 RES1    0.0000
     29 C10        0.3447    2.3238   -0.4691 C.ar      1 RES1    0.0000
     30 H13       -0.4751    2.6950   -0.7737 H         1 RES1    0.0000
     31 C11        1.2717    1.8708   -1.3685 C.ar      1 RES1    0.0000
     32 H14        1.0863    1.9132   -2.3002 H         1 RES1    0.0000
     33 C12        2.4658    1.3568   -0.9349 C.ar      1 RES1    0.0000
     34 H15        3.1092    1.0618   -1.5684 H         1 RES1    0.0000
     35 C13        2.7443    1.2613    0.4336 C.ar      1 RES1    0.0000
     36 H16        3.5738    0.9024    0.7270 H         1 RES1    0.0000
@<TRIPOS>BOND
     1    1   11 1
     2    2   15 2
     3    3   15 1
     4    4    6 1
     5    5   19 2
     6    6    7 1
     7    8    9 1
     8   10    8 1
     9   11   12 1
    10   13   11 1
    11   14    1 1
    12   15   14 1
    13   16    4 1
    14   17   16 1
    15   18   16 1
    16   19    6 1
    17   20    3 1
    18   21   20 1
    19   22   20 1
    20   23   22 1
    21   24   22 1
    22   25   22 1
    23   26   20 1
    24   27   26 ar
    25   28   27 1
    26   29   27 ar
    27   30   29 1
    28   31   29 ar
    29   32   31 1
    30   33   31 ar
    31   34   33 1
    32   35   26 ar
    33   36   35 1
    34    8   19 1
    35   11   14 1
    36   14   16 1
    37   33   35 ar
@<TRIPOS>SUBSTRUCTURE
     1 RES1 1

@<TRIPOS>CRYSIN
   5.9509    7.1789   16.1210  90.0000  90.8210  90.0000   4 1

