# MOL2 file generated by ConQuest
# Please check atom types

@<TRIPOS>MOLECULE
VESYOH01
    21    21     1
SMALL
NO_CHARGES
****
Generated from CSD

@<TRIPOS>ATOM
      1 C1         8.4405    6.6022    8.8368 C.2       1 RES1    0.0000
      2 C2         9.8532    6.3147    8.4585 C.3       1 RES1    0.0000
      3 C3         7.3169    6.5203    8.1170 C.2       1 RES1    0.0000
      4 C4         7.1810    6.1963    6.6940 C.ar      1 RES1    0.0000
      5 C5         6.0013    5.5648    6.2745 C.ar      1 RES1    0.0000
      6 C6         5.8208    5.2167    4.9479 C.ar      1 RES1    0.0000
      7 C7         6.7889    5.5303    4.0092 C.ar      1 RES1    0.0000
      8 C8         7.9389    6.2017    4.3987 C.ar      1 RES1    0.0000
      9 C9         8.1426    6.5271    5.7300 C.ar      1 RES1    0.0000
     10 N1         8.2704    7.0317   10.2396 N.pl3     1 RES1    0.0000
     11 O1         7.1477    7.2673   10.6850 O.2       1 RES1    0.0000
     12 O2         9.2830    7.1585   10.9157 O.2       1 RES1    0.0000
     13 H1        10.2717    5.7526    9.1590 H         1 RES1    0.0000
     14 H2        10.3287    7.1665    8.3506 H         1 RES1    0.0000
     15 H3         9.8435    5.8318    7.6157 H         1 RES1    0.0000
     16 H4         6.5109    6.6683    8.5788 H         1 RES1    0.0000
     17 H5         5.3360    5.3696    6.9311 H         1 RES1    0.0000
     18 H6         5.0397    4.7430    4.6665 H         1 RES1    0.0000
     19 H7         6.6809    5.2874    3.0807 H         1 RES1    0.0000
     20 H8         8.5881    6.4504    3.7344 H         1 RES1    0.0000
     21 H9         8.9302    7.0073    5.9932 H         1 RES1    0.0000
@<TRIPOS>BOND
     1    1    2 1
     2    2   13 1
     3    3    1 2
     4    4    3 1
     5    5    4 ar
     6    6    5 ar
     7    7    6 ar
     8    8    7 ar
     9    9    4 ar
    10   10    1 1
    11   11   10 2
    12   12   10 2
    13   14    2 1
    14   15    2 1
    15   16    3 1
    16   17    5 1
    17   18    6 1
    18   19    7 1
    19   20    8 1
    20   21    9 1
    21    8    9 ar
@<TRIPOS>SUBSTRUCTURE
     1 RES1 1

@<TRIPOS>CRYSIN
  11.1795    7.3375   19.3390  90.0000  90.0000  90.0000  61 1

