# MOL2 file generated by ConQuest
# Please check atom types

@<TRIPOS>MOLECULE
VETMUD
    30    31     1
SMALL
NO_CHARGES
****
Generated from CSD

@<TRIPOS>ATOM
      1 C1         2.0989    8.0072    1.8004 C.ar      1 RES1    0.0000
      2 C2         3.2398    7.6344    2.5243 C.ar      1 RES1    0.0000
      3 C3         3.9533    8.6955    3.1306 C.ar      1 RES1    0.0000
      4 H1         4.7264    8.4993    3.6094 H         1 RES1    0.0000
      5 C4         3.5493    9.9865    3.0363 C.ar      1 RES1    0.0000
      6 H2         4.0370   10.6523    3.4663 H         1 RES1    0.0000
      7 C5         2.4050   10.3341    2.2977 C.ar      1 RES1    0.0000
      8 C6         1.6858    9.3487    1.6867 C.ar      1 RES1    0.0000
      9 H3         0.9248    9.5627    1.1964 H         1 RES1    0.0000
     10 C7         0.9025   12.0247    1.5854 C.3       1 RES1    0.0000
     11 H4         0.1459   11.5742    1.9922 H         1 RES1    0.0000
     12 H5         0.9626   11.7419    0.6597 H         1 RES1    0.0000
     13 C8         0.7025   13.5127    1.6496 C.ar      1 RES1    0.0000
     14 C9        -0.4174   14.0476    2.2598 C.ar      1 RES1    0.0000
     15 H6        -1.0231   13.4863    2.6875 H         1 RES1    0.0000
     16 C10       -0.6413   15.4111    2.2382 C.ar      1 RES1    0.0000
     17 H7        -1.3967   15.7597    2.6527 H         1 RES1    0.0000
     18 C11        0.2397   16.2508    1.6125 C.ar      1 RES1    0.0000
     19 H8         0.0814   17.1662    1.5970 H         1 RES1    0.0000
     20 C12        1.3572   15.7333    1.0069 C.ar      1 RES1    0.0000
     21 H9         1.9595   16.2993    0.5800 H         1 RES1    0.0000
     22 C13        1.5863   14.3736    1.0325 C.ar      1 RES1    0.0000
     23 H10        2.3503   14.0311    0.6272 H         1 RES1    0.0000
     24 N1         1.2733    7.0271    1.1547 N.pl3     1 RES1    0.0000
     25 N2         3.6810    6.3644    2.6960 N.3       1 RES1    0.0000
     26 H11        4.4247    6.2442    3.1554 H         1 RES1    0.0000
     27 H12        3.2240    5.7230    2.2119 H         1 RES1    0.0000
     28 O1         0.3043    7.4136    0.5058 O.2       1 RES1    0.0000
     29 O2         1.5408    5.8267    1.2529 O.2       1 RES1    0.0000
     30 O3         2.0993   11.6735    2.2748 O.3       1 RES1    0.0000
@<TRIPOS>BOND
     1    1    2 ar
     2    2    3 ar
     3    3    4 1
     4    5    3 ar
     5    6    5 1
     6    7    5 ar
     7    8    1 ar
     8    9    8 1
     9   10   11 1
    10   12   10 1
    11   13   10 1
    12   14   13 ar
    13   15   14 1
    14   16   14 ar
    15   17   16 1
    16   18   16 ar
    17   19   18 1
    18   20   18 ar
    19   21   20 1
    20   22   13 ar
    21   23   22 1
    22   24    1 1
    23   25    2 1
    24   26   25 1
    25   27   25 1
    26   28   24 2
    27   29   24 2
    28   30    7 1
    29    7    8 ar
    30   10   30 1
    31   20   22 ar
@<TRIPOS>SUBSTRUCTURE
     1 RES1 1

@<TRIPOS>CRYSIN
   5.7578   26.1920    7.7338  90.0000  90.1590  90.0000  14 1

