# MOL2 file generated by ConQuest
# Please check atom types

@<TRIPOS>MOLECULE
VETVEY
    54    57     1
SMALL
NO_CHARGES
****
Generated from CSD

@<TRIPOS>ATOM
      1 O1         3.4398    2.9136    6.7802 O.3       1 RES1    0.0000
      2 O2         9.2743    7.8378   -0.2350 O.3       1 RES1    0.0000
      3 O3         3.3046    7.5425    7.8578 O.3       1 RES1    0.0000
      4 H1         3.7064    7.5727    7.1432 H         1 RES1    0.0000
      5 N1         4.6104    6.6791    5.8475 N.2       1 RES1    0.0000
      6 N2         8.4188    7.3527    0.7826 N.2       1 RES1    0.0000
      7 O4         3.4809    0.7998    6.1480 O.2       1 RES1    0.0000
      8 C1         7.7472    8.3045    1.3423 C.2       1 RES1    0.0000
      9 C2         4.2622    5.4656    6.1378 C.2       1 RES1    0.0000
     10 H2         4.5393    4.7599    5.5985 H         1 RES1    0.0000
     11 C3         6.8998    7.8663    2.4912 C.ar      1 RES1    0.0000
     12 C4         3.4398    5.2079    7.3085 C.ar      1 RES1    0.0000
     13 C5        11.1624    7.1836   -1.5626 C.ar      1 RES1    0.0000
     14 C6         5.8568    8.3224    4.6238 C.ar      1 RES1    0.0000
     15 H3         5.6768    8.9180    5.3155 H         1 RES1    0.0000
     16 C7         6.5902    8.7446    3.5326 C.ar      1 RES1    0.0000
     17 H4         6.8821    9.6267    3.4903 H         1 RES1    0.0000
     18 C8         5.3813    7.0085    4.6994 C.ar      1 RES1    0.0000
     19 C9         6.4045    6.5502    2.5655 C.ar      1 RES1    0.0000
     20 H5         6.5822    5.9556    1.8739 H         1 RES1    0.0000
     21 C10        2.2528    3.6049    8.7661 C.ar      1 RES1    0.0000
     22 C11        5.6619    6.1305    3.6491 C.ar      1 RES1    0.0000
     23 H6         5.3457    5.2567    3.6798 H         1 RES1    0.0000
     24 C12        2.9954    6.2751    8.1423 C.ar      1 RES1    0.0000
     25 C13       11.0106    7.5866   -2.8947 C.ar      1 RES1    0.0000
     26 H7        10.1671    7.5605   -3.2854 H         1 RES1    0.0000
     27 C14        7.8166    9.7536    0.9670 C.3       1 RES1    0.0000
     28 H8         8.4133   10.2111    1.5626 H         1 RES1    0.0000
     29 H9         6.9416   10.1428    1.0298 H         1 RES1    0.0000
     30 H10        8.1387    9.8356    0.0653 H         1 RES1    0.0000
     31 C15        3.0251    3.9009    7.6376 C.ar      1 RES1    0.0000
     32 C16        1.8722    4.7038    9.5730 C.ar      1 RES1    0.0000
     33 H11        1.3720    4.5433   10.3402 H         1 RES1    0.0000
     34 C17       12.0988    8.0257   -3.6465 C.ar      1 RES1    0.0000
     35 H12       11.9819    8.2952   -4.5290 H         1 RES1    0.0000
     36 C18       12.4368    7.2311   -1.0080 C.ar      1 RES1    0.0000
     37 H13       12.5605    6.9721   -0.1230 H         1 RES1    0.0000
     38 C19        1.8976    2.2281    9.0184 C.2       1 RES1    0.0000
     39 C20       13.3565    8.0567   -3.0663 C.ar      1 RES1    0.0000
     40 H14       14.0896    8.3449   -3.5607 H         1 RES1    0.0000
     41 C21        9.9877    6.6940   -0.7749 C.3       1 RES1    0.0000
     42 H15        9.3989    6.1768   -1.3462 H         1 RES1    0.0000
     43 H16       10.2895    6.1221   -0.0525 H         1 RES1    0.0000
     44 C22        3.0797    1.5827    6.9729 C.2       1 RES1    0.0000
     45 C23        2.2164    6.0011    9.2643 C.ar      1 RES1    0.0000
     46 H17        1.9267    6.6979    9.8074 H         1 RES1    0.0000
     47 C24        2.2913    1.2842    8.1474 C.2       1 RES1    0.0000
     48 H18        2.0463    0.4012    8.3062 H         1 RES1    0.0000
     49 C25       13.5229    7.6587   -1.7496 C.ar      1 RES1    0.0000
     50 H19       14.3687    7.6783   -1.3628 H         1 RES1    0.0000
     51 C26        1.1042    1.8707   10.2531 C.3       1 RES1    0.0000
     52 H20        1.0310    0.9168   10.3223 H         1 RES1    0.0000
     53 H21        0.2277    2.2562   10.1929 H         1 RES1    0.0000
     54 H22        1.5518    2.2143   11.0306 H         1 RES1    0.0000
@<TRIPOS>BOND
     1    1   31 1
     2    2    6 1
     3    3    4 1
     4    5    9 2
     5    6    8 2
     6    7   44 2
     7    8   11 1
     8    9   10 1
     9   11   16 ar
    10   12    9 1
    11   13   25 ar
    12   14   15 1
    13   16   14 ar
    14   17   16 1
    15   18    5 1
    16   19   11 ar
    17   20   19 1
    18   21   31 ar
    19   22   18 ar
    20   23   22 1
    21   24    3 1
    22   25   26 1
    23   27    8 1
    24   28   27 1
    25   29   27 1
    26   30   27 1
    27   31   12 ar
    28   32   21 ar
    29   33   32 1
    30   34   25 ar
    31   35   34 1
    32   36   13 ar
    33   37   36 1
    34   38   21 1
    35   39   34 ar
    36   40   39 1
    37   41    2 1
    38   42   41 1
    39   43   41 1
    40   44    1 1
    41   45   24 ar
    42   46   45 1
    43   47   38 2
    44   48   47 1
    45   49   36 ar
    46   50   49 1
    47   51   38 1
    48   52   51 1
    49   53   51 1
    50   54   51 1
    51   12   24 ar
    52   13   41 1
    53   14   18 ar
    54   19   22 ar
    55   32   45 ar
    56   39   49 ar
    57   44   47 1
@<TRIPOS>SUBSTRUCTURE
     1 RES1 1

@<TRIPOS>CRYSIN
   8.0350   10.3870   13.1260  83.8310  78.2140  81.4700   2 1

