# MOL2 file generated by ConQuest
# Please check atom types

@<TRIPOS>MOLECULE
VEVLEP
    33    34     1
SMALL
NO_CHARGES
****
Generated from CSD

@<TRIPOS>ATOM
      1 C1        -8.9225    9.1593    1.4670 C.ar      1 RES1    0.0000
      2 C2        -8.4435    7.9984    2.0349 C.ar      1 RES1    0.0000
      3 H1        -8.9336    7.2103    1.9724 H         1 RES1    0.0000
      4 C3        -7.2341    8.0088    2.6956 C.ar      1 RES1    0.0000
      5 H2        -6.9111    7.2298    3.0897 H         1 RES1    0.0000
      6 C4        -6.4885    9.1969    2.7733 C.ar      1 RES1    0.0000
      7 C5        -6.9939   10.3427    2.1968 C.ar      1 RES1    0.0000
      8 H3        -6.5096   11.1345    2.2490 H         1 RES1    0.0000
      9 C6        -8.2057   10.3283    1.5455 C.ar      1 RES1    0.0000
     10 H4        -8.5387   11.1068    1.1604 H         1 RES1    0.0000
     11 C7        -4.7123    8.1619    4.1581 C.3       1 RES1    0.0000
     12 H5        -5.4568    7.7212    4.6845 H         1 RES1    0.0000
     13 O1       -10.7776    8.0673    0.6595 O.2       1 RES1    0.0000
     14 O2       -10.5895   10.1404    0.2141 O.2       1 RES1    0.0000
     15 N1       -10.1727    9.1136    0.7573 N.pl3     1 RES1    0.0000
     16 N2        -5.2737    9.2346    3.3860 N.3       1 RES1    0.0000
     17 H6        -4.8075    9.9527    3.3046 H         1 RES1    0.0000
     18 C1C       -0.5021    7.1646    1.4670 C.ar      1 RES1    0.0000
     19 C2C       -0.9811    8.3255    2.0349 C.ar      1 RES1    0.0000
     20 H1C       -0.4910    9.1136    1.9724 H         1 RES1    0.0000
     21 C3C       -2.1905    8.3151    2.6956 C.ar      1 RES1    0.0000
     22 H2C       -2.5135    9.0940    3.0897 H         1 RES1    0.0000
     23 C4C       -2.9361    7.1270    2.7733 C.ar      1 RES1    0.0000
     24 C5C       -2.4307    5.9812    2.1968 C.ar      1 RES1    0.0000
     25 H3C       -2.9150    5.1894    2.2490 H         1 RES1    0.0000
     26 C6C       -1.2189    5.9956    1.5455 C.ar      1 RES1    0.0000
     27 H4C       -0.8859    5.2171    1.1604 H         1 RES1    0.0000
     28 H5C       -3.9678    8.6027    4.6845 H         1 RES1    0.0000
     29 O1C        1.3530    8.2566    0.6595 O.2       1 RES1    0.0000
     30 O2C        1.1649    6.1835    0.2141 O.2       1 RES1    0.0000
     31 N1C        0.7481    7.2103    0.7573 N.pl3     1 RES1    0.0000
     32 N2C       -4.1509    7.0893    3.3860 N.pl3     1 RES1    0.0000
     33 H6C       -4.6171    6.3712    3.3046 H         1 RES1    0.0000
@<TRIPOS>BOND
     1    1    2 ar
     2    2    3 1
     3    4    2 ar
     4    5    4 1
     5    6    4 ar
     6    7    6 ar
     7    8    7 1
     8    9    1 ar
     9   10    9 1
    10   11   12 1
    11   13   15 2
    12   14   15 2
    13   15    1 1
    14   16    6 1
    15   17   16 1
    16   18   19 ar
    17   19   20 1
    18   21   19 ar
    19   22   21 1
    20   23   21 ar
    21   24   23 ar
    22   25   24 1
    23   26   18 ar
    24   27   26 1
    25   28   11 1
    26   29   31 2
    27   30   31 2
    28   31   18 1
    29   32   11 1
    30   33   32 1
    31    7    9 ar
    32   11   16 1
    33   23   32 1
    34   24   26 ar
@<TRIPOS>SUBSTRUCTURE
     1 RES1 1

@<TRIPOS>CRYSIN
  18.8492   18.8492    4.1092  90.0000  90.0000 120.0000 168 1

