# MOL2 file generated by ConQuest
# Please check atom types

@<TRIPOS>MOLECULE
VEVLOZ
    31    32     1
SMALL
NO_CHARGES
****
Generated from CSD

@<TRIPOS>ATOM
      1 O1         3.6214   -2.7108    7.7613 O.2       1 RES1    0.0000
      2 O2         1.5525   -2.3348    7.3586 O.2       1 RES1    0.0000
      3 O3         9.3789    2.8356    4.7571 O.2       1 RES1    0.0000
      4 O4         8.4164    1.1543    3.8710 O.2       1 RES1    0.0000
      5 N1         5.4839   -1.9483    6.0769 N.3       1 RES1    0.0000
      6 N2         2.7277   -2.2446    7.0448 N.pl3     1 RES1    0.0000
      7 N3         8.8313    1.7461    4.8616 N.pl3     1 RES1    0.0000
      8 N4         7.5264   -0.8234    5.3130 N.3       1 RES1    0.0000
      9 C1         3.5285   -0.3572    3.3994 C.ar      1 RES1    0.0000
     10 H1         3.6855    0.0707    2.5892 H         1 RES1    0.0000
     11 C2         2.2343   -0.4940    3.8513 C.ar      1 RES1    0.0000
     12 H2         1.5203   -0.1677    3.3514 H         1 RES1    0.0000
     13 C3         2.0185   -1.1174    5.0446 C.ar      1 RES1    0.0000
     14 H3         1.1481   -1.2189    5.3562 H         1 RES1    0.0000
     15 C4         3.0722   -1.6024    5.7990 C.ar      1 RES1    0.0000
     16 C5         4.4199   -1.4791    5.3562 C.ar      1 RES1    0.0000
     17 C6         4.5871   -0.8377    4.1214 C.ar      1 RES1    0.0000
     18 H4         5.4466   -0.7354    3.7799 H         1 RES1    0.0000
     19 C7         9.2241    1.8558    7.2364 C.ar      1 RES1    0.0000
     20 H5         9.6494    2.6687    7.0819 H         1 RES1    0.0000
     21 C8         9.1323    1.3768    8.5037 C.ar      1 RES1    0.0000
     22 H6         9.4932    1.8513    9.2166 H         1 RES1    0.0000
     23 C9         8.4898    0.1662    8.7115 C.ar      1 RES1    0.0000
     24 H7         8.4135   -0.1662    9.5763 H         1 RES1    0.0000
     25 C10        7.9696   -0.5437    7.6766 C.ar      1 RES1    0.0000
     26 H8         7.5471   -1.3528    7.8558 H         1 RES1    0.0000
     27 C11        8.0448   -0.0970    6.3402 C.ar      1 RES1    0.0000
     28 C12        8.6914    1.1452    6.1666 C.ar      1 RES1    0.0000
     29 C13        6.8153   -2.0754    5.5030 C.3       1 RES1    0.0000
     30 H9         7.3465   -2.6461    6.0808 H         1 RES1    0.0000
     31 H10        6.7393   -2.5191    4.6434 H         1 RES1    0.0000
@<TRIPOS>BOND
     1    1    6 2
     2    2    6 2
     3    3    7 2
     4    4    7 2
     5    5   16 1
     6    6   15 1
     7    7   28 1
     8    8   27 1
     9    9   10 1
    10   11    9 ar
    11   12   11 1
    12   13   11 ar
    13   14   13 1
    14   15   13 ar
    15   16   15 ar
    16   17    9 ar
    17   18   17 1
    18   19   20 1
    19   21   19 ar
    20   22   21 1
    21   23   21 ar
    22   24   23 1
    23   25   23 ar
    24   26   25 1
    25   27   25 ar
    26   28   19 ar
    27   29    5 1
    28   30   29 1
    29   31   29 1
    30    8   29 1
    31   16   17 ar
    32   27   28 ar
@<TRIPOS>SUBSTRUCTURE
     1 RES1 1

@<TRIPOS>CRYSIN
  13.1450    7.5196   14.3630  90.0000 115.3050  90.0000 231 1

