# MOL2 file generated by ConQuest
# Please check atom types

@<TRIPOS>MOLECULE
VEWBAA
    54    56     1
SMALL
NO_CHARGES
****
Generated from CSD

@<TRIPOS>ATOM
      1 O1         4.8832    6.9052    1.1767 O.3       1 RES1    0.0000
      2 O2         4.0986    6.7907   -1.0249 O.3       1 RES1    0.0000
      3 O3         2.2808    4.9439    2.5872 O.2       1 RES1    0.0000
      4 O4         4.3684    6.8298    4.0494 O.3       1 RES1    0.0000
      5 O5         4.4226    8.6430    5.3416 O.2       1 RES1    0.0000
      6 O6         6.8448    4.1423    0.0195 O.3       1 RES1    0.0000
      7 O7         3.9266    3.0054    1.5652 O.3       1 RES1    0.0000
      8 O8         4.5793    2.8949    3.7082 O.2       1 RES1    0.0000
      9 N1         5.5571    3.8231   -0.5737 N.3       1 RES1    0.0000
     10 C1         4.9645    6.2209   -0.0835 C.3       1 RES1    0.0000
     11 C2         4.5887    4.7243    0.0251 C.3       1 RES1    0.0000
     12 C3         4.3578    4.3673    1.5081 C.3       1 RES1    0.0000
     13 C4         3.3046    5.3035    2.0470 C.2       1 RES1    0.0000
     14 C5         3.6203    6.7826    1.7824 C.3       1 RES1    0.0000
     15 C6         3.6121    7.5855    3.0718 C.3       1 RES1    0.0000
     16 C7         4.6606    7.4710    5.1801 C.2       1 RES1    0.0000
     17 C8         5.2508    6.5604    6.2035 C.ar      1 RES1    0.0000
     18 C9         5.2202    5.1688    6.0128 C.ar      1 RES1    0.0000
     19 C10        5.7256    4.3727    7.0363 C.ar      1 RES1    0.0000
     20 C11        6.2569    4.9034    8.1433 C.ar      1 RES1    0.0000
     21 C12        6.2651    6.2761    8.3299 C.ar      1 RES1    0.0000
     22 C13        5.7574    7.1033    7.3704 C.ar      1 RES1    0.0000
     23 C14        4.4226    8.1446   -1.3131 C.3       1 RES1    0.0000
     24 C15        5.7232    4.0467   -2.0066 C.3       1 RES1    0.0000
     25 C16        4.1092    2.3655    2.7460 C.2       1 RES1    0.0000
     26 C17        3.6662    0.9470    2.6819 C.ar      1 RES1    0.0000
     27 C18        3.0654    0.4082    1.5693 C.ar      1 RES1    0.0000
     28 C19        2.7285   -0.9416    1.5276 C.ar      1 RES1    0.0000
     29 C20        2.9900   -1.7229    2.6499 C.ar      1 RES1    0.0000
     30 C21        3.5638   -1.1787    3.7500 C.ar      1 RES1    0.0000
     31 C22        3.9219    0.1455    3.7848 C.ar      1 RES1    0.0000
     32 H1         6.0060    6.3152   -0.3899 H         1 RES1    0.0000
     33 H2         3.6757    4.5640   -0.5514 H         1 RES1    0.0000
     34 H3         5.2567    4.4791    2.1054 H         1 RES1    0.0000
     35 H4         2.8522    7.1760    1.1196 H         1 RES1    0.0000
     36 H5         4.0739    8.5541    2.9145 H         1 RES1    0.0000
     37 H6         2.5895    7.7148    3.4227 H         1 RES1    0.0000
     38 H7         4.8066    4.7337    5.1049 H         1 RES1    0.0000
     39 H8         5.6737    3.2856    6.9290 H         1 RES1    0.0000
     40 H9         6.7116    4.2474    8.8897 H         1 RES1    0.0000
     41 H10        6.6480    6.6884    9.2573 H         1 RES1    0.0000
     42 H11        5.7562    8.1755    7.5153 H         1 RES1    0.0000
     43 H12        4.3660    8.7184   -0.3829 H         1 RES1    0.0000
     44 H13        5.4428    8.1850   -1.6933 H         1 RES1    0.0000
     45 H14        3.7558    8.5891   -2.0414 H         1 RES1    0.0000
     46 H15        4.7772    3.8972   -2.4898 H         1 RES1    0.0000
     47 H16        6.0625    5.0799   -2.1472 H         1 RES1    0.0000
     48 H17        6.4713    3.3799   -2.4410 H         1 RES1    0.0000
     49 H18        2.8298    1.0480    0.7171 H         1 RES1    0.0000
     50 H19        2.2761   -1.3740    0.6294 H         1 RES1    0.0000
     51 H20        2.7815   -2.7831    2.6346 H         1 RES1    0.0000
     52 H21        3.7193   -1.8078    4.6286 H         1 RES1    0.0000
     53 H22        4.4226    0.5604    4.6746 H         1 RES1    0.0000
     54 H23        7.0109    3.3704    0.4303 H         1 RES1    0.0000
@<TRIPOS>BOND
     1    1   10 1
     2    2   10 1
     3    3   13 2
     4    4   15 1
     5    5   16 2
     6    6    9 1
     7    7   12 1
     8    8   25 2
     9    9   11 1
    10   10   11 1
    11   11   12 1
    12   12   13 1
    13   13   14 1
    14   14    1 1
    15   15   14 1
    16   16    4 1
    17   17   16 1
    18   18   17 ar
    19   19   18 ar
    20   20   19 ar
    21   21   20 ar
    22   22   17 ar
    23   23    2 1
    24   24    9 1
    25   25    7 1
    26   26   25 1
    27   27   26 ar
    28   28   27 ar
    29   29   28 ar
    30   30   29 ar
    31   31   26 ar
    32   32   10 1
    33   33   11 1
    34   34   12 1
    35   35   14 1
    36   36   15 1
    37   37   15 1
    38   38   18 1
    39   39   19 1
    40   40   20 1
    41   41   21 1
    42   42   22 1
    43   43   23 1
    44   44   23 1
    45   45   23 1
    46   46   24 1
    47   47   24 1
    48   48   24 1
    49   49   27 1
    50   50   28 1
    51   51   29 1
    52   52   30 1
    53   53   31 1
    54   54    6 1
    55   21   22 ar
    56   30   31 ar
@<TRIPOS>SUBSTRUCTURE
     1 RES1 1

@<TRIPOS>CRYSIN
  11.7810   13.4710   13.9249  90.0000  90.0000  90.0000  19 1

