# MOL2 file generated by ConQuest
# Please check atom types

@<TRIPOS>MOLECULE
VEWMES
    37    38     1
SMALL
NO_CHARGES
****
Generated from CSD

@<TRIPOS>ATOM
      1 O1         4.6932    4.7818    2.4436 O.3       1 RES1    0.0000
      2 O2        -0.4992    4.7369   -6.9130 O.2       1 RES1    0.0000
      3 O3        -2.4383    4.8191   -6.0174 O.2       1 RES1    0.0000
      4 N1         5.6485    4.7113    5.7428 N.1       1 RES1    0.0000
      5 N2         1.3397    5.3147    5.7836 N.1       1 RES1    0.0000
      6 N3        -0.0338    5.2406    2.5545 N.1       1 RES1    0.0000
      7 N4        -1.2274    4.7962   -5.9467 N.pl3     1 RES1    0.0000
      8 C1         3.5181    4.9329    3.0420 C.2       1 RES1    0.0000
      9 C2         2.4692    5.0184    2.0550 C.2       1 RES1    0.0000
     10 C3         3.0329    4.9241    0.8187 C.2       1 RES1    0.0000
     11 C4         4.5224    4.7726    0.9818 C.3       1 RES1    0.0000
     12 C5         2.4512    4.9147   -0.4954 C.2       1 RES1    0.0000
     13 H1         3.0408    4.8942   -1.2143 H         1 RES1    0.0000
     14 C6         1.1568    4.9315   -0.7846 C.2       1 RES1    0.0000
     15 H2         0.5649    4.9699   -0.0682 H         1 RES1    0.0000
     16 C7         0.5734    4.8958   -2.1267 C.ar      1 RES1    0.0000
     17 C8        -0.8121    4.9443   -2.2636 C.ar      1 RES1    0.0000
     18 H3        -1.3436    4.9977   -1.5023 H         1 RES1    0.0000
     19 C9        -1.4097    4.9154   -3.5018 C.ar      1 RES1    0.0000
     20 H4        -2.3353    4.9505   -3.5846 H         1 RES1    0.0000
     21 C10       -0.6076    4.8325   -4.6127 C.ar      1 RES1    0.0000
     22 C11        0.7614    4.7807   -4.5300 C.ar      1 RES1    0.0000
     23 H5         1.2831    4.7253   -5.2978 H         1 RES1    0.0000
     24 C12        1.3455    4.8130   -3.2784 C.ar      1 RES1    0.0000
     25 H6         2.2721    4.7792   -3.2058 H         1 RES1    0.0000
     26 C13        4.6807    4.8312    5.1494 C.1       1 RES1    0.0000
     27 C14        2.2733    5.1639    5.1459 C.1       1 RES1    0.0000
     28 C15        1.0834    5.1464    2.3571 C.1       1 RES1    0.0000
     29 C16        5.3165    5.9343    0.4349 C.3       1 RES1    0.0000
     30 H7         4.9700    6.7552    0.7920 H         1 RES1    0.0000
     31 H8         5.2466    5.9471   -0.5226 H         1 RES1    0.0000
     32 H9         6.2379    5.8392    0.6871 H         1 RES1    0.0000
     33 C17        5.0291    3.4325    0.4861 C.3       1 RES1    0.0000
     34 H10        5.9386    3.3098    0.7677 H         1 RES1    0.0000
     35 H11        4.9849    3.4081   -0.4726 H         1 RES1    0.0000
     36 H12        4.4844    2.7300    0.8492 H         1 RES1    0.0000
     37 C18        3.4742    4.9713    4.4094 C.2       1 RES1    0.0000
@<TRIPOS>BOND
     1    1    8 1
     2    2    7 2
     3    3    7 2
     4    4   26 3
     5    5   27 3
     6    6   28 3
     7    7   21 1
     8    8    9 1
     9    9   10 2
    10   10   11 1
    11   11    1 1
    12   12   10 1
    13   13   12 1
    14   14   12 2
    15   15   14 1
    16   16   14 1
    17   17   16 ar
    18   18   17 1
    19   19   17 ar
    20   20   19 1
    21   21   19 ar
    22   22   21 ar
    23   23   22 1
    24   24   16 ar
    25   25   24 1
    26   26   37 1
    27   27   37 1
    28   28    9 1
    29   29   11 1
    30   30   29 1
    31   31   29 1
    32   32   29 1
    33   33   11 1
    34   34   33 1
    35   35   33 1
    36   36   33 1
    37   37    8 2
    38   22   24 ar
@<TRIPOS>SUBSTRUCTURE
     1 RES1 1

@<TRIPOS>CRYSIN
  13.9590    6.7343   19.2390  90.0000 111.9480  90.0000  14 1

