# MOL2 file generated by ConQuest
# Please check atom types

@<TRIPOS>MOLECULE
VEWXUT
    48    49     1
SMALL
NO_CHARGES
****
Generated from CSD

@<TRIPOS>ATOM
      1 O1         1.5445    8.8521    1.7327 O.2       1 RES1    0.0000
      2 O2         3.0004    9.0300    3.4563 O.3       1 RES1    0.0000
      3 O3         3.1974   14.2193   -3.2724 O.2       1 RES1    0.0000
      4 O4         1.5211   12.9327   -3.7680 O.2       1 RES1    0.0000
      5 O5         0.6605    8.2320    7.2550 O.3       1 RES1    0.0000
      6 N1         3.1275   10.5244    1.8304 N.am      1 RES1    0.0000
      7 N2         2.4197   13.3016   -3.0038 N.pl3     1 RES1    0.0000
      8 C1         2.4657    9.4174    2.2759 C.2       1 RES1    0.0000
      9 C2         2.8880   11.2053    0.6331 C.ar      1 RES1    0.0000
     10 C3         1.7680   10.9690   -0.1791 C.ar      1 RES1    0.0000
     11 C4         1.6115   11.6714   -1.3546 C.ar      1 RES1    0.0000
     12 C5         2.5568   12.6029   -1.7272 C.ar      1 RES1    0.0000
     13 C6         3.6646   12.8737   -0.9343 C.ar      1 RES1    0.0000
     14 C7         3.8236   12.1702    0.2449 C.ar      1 RES1    0.0000
     15 C8         2.2867    7.9424    4.1123 C.3       1 RES1    0.0000
     16 C9         2.8992    7.7936    5.4840 C.3       1 RES1    0.0000
     17 C10        2.2294    6.6976    6.3161 C.3       1 RES1    0.0000
     18 C11        0.7572    6.9416    6.6268 C.3       1 RES1    0.0000
     19 C12        0.1383    5.8293    7.4852 C.3       1 RES1    0.0000
     20 C13       -1.0706    6.2891    8.3003 C.3       1 RES1    0.0000
     21 C14       -2.0827    7.1401    7.5494 C.3       1 RES1    0.0000
     22 C15       -1.7474    8.6287    7.5440 C.3       1 RES1    0.0000
     23 C16       -0.4708    8.9996    6.8188 C.3       1 RES1    0.0000
     24 C17       -0.2285    4.6351    6.6103 C.3       1 RES1    0.0000
     25 H1         3.7611   10.8404    2.3072 H         1 RES1    0.0000
     26 H2         1.1194   10.3265    0.0813 H         1 RES1    0.0000
     27 H3         0.8535   11.5143   -1.9061 H         1 RES1    0.0000
     28 H4         4.3000   13.5280   -1.1969 H         1 RES1    0.0000
     29 H5         4.5765   12.3441    0.7979 H         1 RES1    0.0000
     30 H6         2.3856    7.1029    3.5961 H         1 RES1    0.0000
     31 H7         1.3231    8.1568    4.1854 H         1 RES1    0.0000
     32 H8         2.8257    8.6547    5.9653 H         1 RES1    0.0000
     33 H9         3.8613    7.5829    5.3866 H         1 RES1    0.0000
     34 H10        2.3110    5.8391    5.8305 H         1 RES1    0.0000
     35 H11        2.7205    6.6050    7.1707 H         1 RES1    0.0000
     36 H12        0.2587    6.9790    5.7610 H         1 RES1    0.0000
     37 H13        0.8380    5.5252    8.1313 H         1 RES1    0.0000
     38 H14       -1.5350    5.4872    8.6490 H         1 RES1    0.0000
     39 H15       -0.7446    6.8050    9.0790 H         1 RES1    0.0000
     40 H16       -2.9736    7.0149    7.9623 H         1 RES1    0.0000
     41 H17       -2.1367    6.8210    6.6135 H         1 RES1    0.0000
     42 H18       -2.4991    9.1186    7.1248 H         1 RES1    0.0000
     43 H19       -1.6768    8.9387    8.4810 H         1 RES1    0.0000
     44 H20       -0.5995    8.8607    5.8476 H         1 RES1    0.0000
     45 H21       -0.2839    9.9605    6.9654 H         1 RES1    0.0000
     46 H22       -1.0110    4.8593    6.0648 H         1 RES1    0.0000
     47 H23       -0.4366    3.8654    7.1793 H         1 RES1    0.0000
     48 H24        0.5262    4.4153    6.0252 H         1 RES1    0.0000
@<TRIPOS>BOND
     1    1    8 2
     2    2    8 1
     3    3    7 2
     4    4    7 2
     5    5   18 1
     6    6    8 1
     7    7   12 1
     8    9    6 1
     9   10    9 ar
    10   11   10 ar
    11   12   11 ar
    12   13   12 ar
    13   14    9 ar
    14   15    2 1
    15   16   15 1
    16   17   16 1
    17   18   17 1
    18   19   18 1
    19   20   19 1
    20   21   20 1
    21   22   21 1
    22   23    5 1
    23   24   19 1
    24   25    6 1
    25   26   10 1
    26   27   11 1
    27   28   13 1
    28   29   14 1
    29   30   15 1
    30   31   15 1
    31   32   16 1
    32   33   16 1
    33   34   17 1
    34   35   17 1
    35   36   18 1
    36   37   19 1
    37   38   20 1
    38   39   20 1
    39   40   21 1
    40   41   21 1
    41   42   22 1
    42   43   22 1
    43   44   23 1
    44   45   23 1
    45   46   24 1
    46   47   24 1
    47   48   24 1
    48   13   14 ar
    49   22   23 1
@<TRIPOS>SUBSTRUCTURE
     1 RES1 1

@<TRIPOS>CRYSIN
   8.0149   19.9970   10.9100  90.0000 101.3610  90.0000  14 1

