# MOL2 file generated by ConQuest
# Please check atom types

@<TRIPOS>MOLECULE
VEWXIH
   103    61     2
SMALL
NO_CHARGES
****
Generated from CSD

@<TRIPOS>ATOM
      1 O1        10.2388   -4.2500    7.6163 O.2       1 RES1    0.0000
      2 O2        10.5778   -4.3047    5.4818 O.2       1 RES1    0.0000
      3 N1         8.3421    1.5526    6.0201 N.am      1 RES1    0.0000
      4 N2        10.2319   -3.7226    6.5030 N.pl3     1 RES1    0.0000
      5 C1         8.8347    0.2540    6.2062 C.ar      1 RES1    0.0000
      6 C2         8.9638   -0.3543    7.4596 C.ar      1 RES1    0.0000
      7 C3         9.4336   -1.6563    7.5463 C.ar      1 RES1    0.0000
      8 C4         9.7756   -2.3363    6.4035 C.ar      1 RES1    0.0000
      9 C5         9.6823   -1.7497    5.1427 C.ar      1 RES1    0.0000
     10 C6         9.2158   -0.4545    5.0597 C.ar      1 RES1    0.0000
     11 O3         7.6668    3.6315    6.4588 O.3       1 RES1    0.0000
     12 O4         8.0545    2.2589    8.2098 O.2       1 RES1    0.0000
     13 C7         5.9688    8.2483    6.7389 C.3       1 RES1    0.0000
     14 C8         6.8390    5.8630    6.6173 C.3       1 RES1    0.0000
     15 C9         7.3722    4.7011    7.4062 C.3       1 RES1    0.0000
     16 C10        8.0224    2.4593    7.0228 C.2       1 RES1    0.0000
     17 O5         4.8500    7.4737    6.1307 O.3       1 RES1    0.0000
     18 O6         3.7752   11.7009    6.9491 O.3       1 RES1    0.0000
     19 C11        3.9664   10.2953    7.2311 C.3       1 RES1    0.0000
     20 C12        3.3528    9.3840    6.1712 C.3       1 RES1    0.0000
     21 C13        3.5065    7.8883    6.4422 C.3       1 RES1    0.0000
     22 C14        2.4268   12.1270    7.0302 C.3       1 RES1    0.0000
     23 C15        2.4035   13.5987    7.2034 C.ar      1 RES1    0.0000
     24 C16        1.2787   14.3209    6.8237 C.ar      1 RES1    0.0000
     25 C17        1.2201   15.6901    7.0560 C.ar      1 RES1    0.0000
     26 C18        2.2869   16.3360    7.6698 C.ar      1 RES1    0.0000
     27 C19        3.4117   15.6138    8.0495 C.ar      1 RES1    0.0000
     28 C20        3.4707   14.2446    7.8154 C.ar      1 RES1    0.0000
     29 C21        7.0580    7.1707    6.8624 C.3       1 RES1    0.0000
     30 H1         8.2680    1.7816    5.2275 H         1 RES1    0.0000
     31 H2         8.7306    0.1230    8.2467 H         1 RES1    0.0000
     32 H3         9.5187   -2.0766    8.3942 H         1 RES1    0.0000
     33 H4         9.9317   -2.2292    4.3611 H         1 RES1    0.0000
     34 H5         9.1528   -0.0342    4.2100 H         1 RES1    0.0000
     35 H6         6.7092    8.4852    6.1122 H         1 RES1    0.0000
     36 H7         6.0577    5.5657    6.0883 H         1 RES1    0.0000
     37 H8         7.5344    6.1740    5.9850 H         1 RES1    0.0000
     38 H9         6.7005    4.3981    8.0679 H         1 RES1    0.0000
     39 H10        5.9087    9.9558    6.5399 H         1 RES1    0.0000
     40 H11        3.5119   10.0971    8.0992 H         1 RES1    0.0000
     41 H12        3.7725    9.5902    5.2975 H         1 RES1    0.0000
     42 H13        2.3890    9.5924    6.0956 H         1 RES1    0.0000
     43 H14        3.3090    7.6992    7.3933 H         1 RES1    0.0000
     44 H15        2.8631    7.3814    5.8855 H         1 RES1    0.0000
     45 H16        1.9804   11.6895    7.7988 H         1 RES1    0.0000
     46 H17        1.9420   11.8752    6.2044 H         1 RES1    0.0000
     47 H18        0.5489   13.8789    6.4035 H         1 RES1    0.0000
     48 H19        0.4512   16.1833    6.7979 H         1 RES1    0.0000
     49 H20        2.2476   17.2723    7.8283 H         1 RES1    0.0000
     50 H21        4.1419   16.0558    8.4679 H         1 RES1    0.0000
     51 H22        4.2392   13.7513    8.0753 H         1 RES1    0.0000
     52 H23        7.6536    7.1559    7.6532 H         1 RES1    0.0000
     53 H24        7.3470    7.9248    6.2873 H         1 RES1    0.0000
     54 H25        7.8685    4.7102    7.7066 H         1 RES1    0.0000
     55 C22        5.4628   10.0264    7.4191 C.3       1 RES1    0.0000
     56 H26        5.8799   10.7703    7.9223 H         1 RES1    0.0000
     57 C23        5.6174    8.7096    8.1988 C.3       1 RES1    0.0000
     58 H27        6.4588    8.7495    8.7186 H         1 RES1    0.0000
     59 H28        4.8709    8.6367    8.8458 H         1 RES1    0.0000
     60 O7         7.5418    3.4766    6.1343 Du        2 SUP2    0.0000
     61 C24        7.2605    5.8744    6.0864 Du        2 SUP2    0.0000
     62 C25        7.2120    4.6282    6.9656 Du        2 SUP2    0.0000
     63 C26        7.9246    2.3352    6.7555 Du        2 SUP2    0.0000
     64 C27        6.4233    7.0260    7.5205 Du        2 SUP2    0.0000
     65 C28        5.6377    7.4475    7.3380 Du        2 SUP2    0.0000
     66 H29        7.1880    7.2778    8.0956 Du        2 SUP2    0.0000
     67 H30        8.1944    4.9642    7.8910 Du        2 SUP2    0.0000
     68 H31        6.5581    5.8026    5.3934 Du        2 SUP2    0.0000
     69 H32        6.3127    4.5188    7.3546 Du        2 SUP2    0.0000
     70 H33        8.1364    5.9097    5.6256 Du        2 SUP2    0.0000
     71 O8         7.8135    2.2099    7.9536 Du        2 SUP2    0.0000
     72 H34        5.3347    6.6775    7.8983 Du        2 SUP2    0.0000
     73 O9         4.8254    7.8781    5.9261 Du        2 SUP2    0.0000
     74 C29        3.5319    8.4579    6.1730 Du        2 SUP2    0.0000
     75 C30        3.9899   10.9719    6.4532 Du        2 SUP2    0.0000
     76 C31        3.3971    9.8544    5.5924 Du        2 SUP2    0.0000
     77 C32        5.4477   10.7498    6.8385 Du        2 SUP2    0.0000
     78 H35        3.3765    8.4978    7.1500 Du        2 SUP2    0.0000
     79 H36        2.8349    7.8747    5.7786 Du        2 SUP2    0.0000
     80 H37        2.4357   10.0435    5.4487 Du        2 SUP2    0.0000
     81 H38        3.8392    9.8704    4.7077 Du        2 SUP2    0.0000
     82 H39        4.9617    9.2803    8.2209 Du        2 SUP2    0.0000
     83 H40        5.7500   11.5210    7.3804 Du        2 SUP2    0.0000
     84 C33        5.7295    9.4649    7.6255 Du        2 SUP2    0.0000
     85 O10        3.2626   11.0790    7.6808 Du        2 SUP2    0.0000
     86 C34        2.0663   11.8354    7.5647 Du        2 SUP2    0.0000
     87 C35        2.2874   13.3356    7.5426 Du        2 SUP2    0.0000
     88 H41        1.6018   11.5699    6.7316 Du        2 SUP2    0.0000
     89 H42        1.4715   11.6121    8.3241 Du        2 SUP2    0.0000
     90 C36        1.3493   14.1534    6.9343 Du        2 SUP2    0.0000
     91 C37        3.3662   13.9176    8.1914 Du        2 SUP2    0.0000
     92 C38        1.4658   15.5397    6.9933 Du        2 SUP2    0.0000
     93 C39        2.5480   16.1047    7.6366 Du        2 SUP2    0.0000
     94 C40        3.4948   15.2937    8.2430 Du        2 SUP2    0.0000
     95 H43        0.6166   13.7639    6.4717 Du        2 SUP2    0.0000
     96 H44        0.8057   16.0933    6.5915 Du        2 SUP2    0.0000
     97 H45        4.0215   13.3675    8.6043 Du        2 SUP2    0.0000
     98 H46        5.9923   10.7361    6.0108 Du        2 SUP2    0.0000
     99 H47        6.5265    9.6061    8.1951 Du        2 SUP2    0.0000
    100 H48        2.6443   17.0491    7.6642 Du        2 SUP2    0.0000
    101 H49        4.2334   15.6844    8.6946 Du        2 SUP2    0.0000
    102 H50        5.6868    6.7287    8.1103 Du        2 SUP2    0.0000
    103 H51        3.9140   11.8365    5.9555 Du        2 SUP2    0.0000
@<TRIPOS>BOND
     1    1    4 2
     2    2    4 2
     3    3    5 1
     4    4    8 1
     5    5    6 ar
     6    6    7 ar
     7    7    8 ar
     8    8    9 ar
     9    9   10 ar
    10   10    5 ar
    11   11   15 1
    12   12   16 2
    13   13   17 1
    14   14   15 1
    15   15   38 1
    16   16    3 1
    17   17   21 1
    18   18   19 1
    19   19   20 1
    20   20   21 1
    21   21   43 1
    22   22   18 1
    23   23   22 1
    24   24   23 ar
    25   25   24 ar
    26   26   25 ar
    27   27   26 ar
    28   28   23 ar
    29   29   13 1
    30   30    3 1
    31   31    6 1
    32   32    7 1
    33   33    9 1
    34   34   10 1
    35   35   13 1
    36   36   14 1
    37   37   14 1
    38   39   55 1
    39   40   19 1
    40   41   20 1
    41   42   20 1
    42   44   21 1
    43   45   22 1
    44   46   22 1
    45   47   24 1
    46   48   25 1
    47   49   26 1
    48   50   27 1
    49   51   28 1
    50   52   29 1
    51   53   29 1
    52   54   15 1
    53   55   19 1
    54   56   55 1
    55   57   13 1
    56   58   57 1
    57   59   57 1
    58   11   16 1
    59   14   29 1
    60   27   28 ar
    61   55   57 1
@<TRIPOS>SUBSTRUCTURE
     1 RES1 1
     2 SUP2 60

@<TRIPOS>CRYSIN
  10.3207   11.3911   18.9898  90.0000 103.9150  90.0000 231 1

