# MOL2 file generated by ConQuest
# Please check atom types

@<TRIPOS>MOLECULE
VEWZIG
    25    26     1
SMALL
NO_CHARGES
****
Generated from CSD

@<TRIPOS>ATOM
      1 C1         2.0396    4.5904    1.7755 C.2       1 RES1    0.0000
      2 C2         1.6441    3.5601   -0.5905 C.3       1 RES1    0.0000
      3 C3         1.8314    4.5985    0.4474 C.2       1 RES1    0.0000
      4 N1         1.9442    6.7494    1.0856 N.2       1 RES1    0.0000
      5 C4         2.1057    5.9639    2.1354 C.2       1 RES1    0.0000
      6 C5         2.3508    6.5796    3.4655 C.3       1 RES1    0.0000
      7 C6         2.2185    3.3984    2.6961 C.3       1 RES1    0.0000
      8 C7         0.9723    2.5200    2.7438 C.2       1 RES1    0.0000
      9 C8        -0.1981    3.0132    3.4774 C.2       1 RES1    0.0000
     10 C9        -0.2568    0.4146    2.0240 C.3       1 RES1    0.0000
     11 C10        0.9381    1.3163    2.1394 C.2       1 RES1    0.0000
     12 C11        3.3192    1.3708    1.6980 C.2       1 RES1    0.0000
     13 C12        4.4439    0.5138    1.1929 C.3       1 RES1    0.0000
     14 C13        4.7634    3.1839    2.5012 C.2       1 RES1    0.0000
     15 C14        3.4388    2.5923    2.2885 C.2       1 RES1    0.0000
     16 C15        5.8719    5.1355    3.3482 C.3       1 RES1    0.0000
     17 C16        6.0273    6.0586    2.1751 C.3       1 RES1    0.0000
     18 C17       -1.1575    4.8719    4.6048 C.3       1 RES1    0.0000
     19 C18       -1.3298    6.2570    4.2847 C.3       1 RES1    0.0000
     20 N2         2.0693    0.8114    1.5250 N.pl3     1 RES1    0.0000
     21 O1        -0.0452    4.2902    3.8771 O.3       1 RES1    0.0000
     22 O2        -1.2129    2.3913    3.7260 O.2       1 RES1    0.0000
     23 O3         4.6693    4.3357    3.1951 O.3       1 RES1    0.0000
     24 O4         5.8378    2.7523    2.1234 O.2       1 RES1    0.0000
     25 O5         1.7594    5.8817   -0.0119 O.3       1 RES1    0.0000
@<TRIPOS>BOND
     1    1    3 2
     2    2    3 1
     3    3   25 1
     4    4    5 2
     5    5    1 1
     6    6    5 1
     7    7    1 1
     8    8    7 1
     9    9    8 1
    10   10   11 1
    11   11    8 2
    12   12   13 1
    13   14   15 1
    14   15    7 1
    15   16   17 1
    16   18   19 1
    17   20   11 1
    18   21    9 1
    19   22    9 2
    20   23   14 1
    21   24   14 2
    22   25    4 1
    23   12   15 2
    24   12   20 1
    25   16   23 1
    26   18   21 1
@<TRIPOS>SUBSTRUCTURE
     1 RES1 1

@<TRIPOS>CRYSIN
  20.0880    8.9360   23.6910  90.0000 122.9400  90.0000  15 1

