# MOL2 file generated by ConQuest
# Please check atom types

@<TRIPOS>MOLECULE
VEXMOA02
    25    26     1
SMALL
NO_CHARGES
****
Generated from CSD

@<TRIPOS>ATOM
      1 O1        -2.5871    5.0774    6.3598 O.3       1 RES1    0.0000
      2 H1        -1.9303    4.6588    6.1020 H         1 RES1    0.0000
      3 N1        -3.4071    4.2392    7.0985 N.2       1 RES1    0.0000
      4 C1        -4.8860    8.3119    6.3716 C.ar      1 RES1    0.0000
      5 H2        -4.3585    9.0752    6.4242 H         1 RES1    0.0000
      6 C2        -5.3024    2.3579    7.8761 C.ar      1 RES1    0.0000
      7 H3        -4.6466    2.0260    7.3063 H         1 RES1    0.0000
      8 C3        -6.0652    1.4833    8.6383 C.ar      1 RES1    0.0000
      9 H4        -5.9147    0.5673    8.5853 H         1 RES1    0.0000
     10 C4        -7.0547    1.9807    9.4812 C.ar      1 RES1    0.0000
     11 H5        -7.5632    1.3996    9.9998 H         1 RES1    0.0000
     12 C5        -6.9159    7.2708    5.7838 C.ar      1 RES1    0.0000
     13 H6        -7.7708    7.3408    5.4243 H         1 RES1    0.0000
     14 C6        -7.2697    3.3084    9.5421 C.ar      1 RES1    0.0000
     15 H7        -7.9372    3.6354   10.1000 H         1 RES1    0.0000
     16 C7        -6.1150    8.3838    5.8879 C.ar      1 RES1    0.0000
     17 H8        -6.4455    9.2082    5.6129 H         1 RES1    0.0000
     18 C8        -6.4445    6.0594    6.2121 C.ar      1 RES1    0.0000
     19 H9        -6.9826    5.3039    6.1551 H         1 RES1    0.0000
     20 C9        -6.5144    4.2008    8.7896 C.ar      1 RES1    0.0000
     21 H10       -6.6765    5.1148    8.8407 H         1 RES1    0.0000
     22 C10       -5.5164    3.7103    7.9592 C.ar      1 RES1    0.0000
     23 C11       -4.6201    4.6716    7.2260 C.2       1 RES1    0.0000
     24 C12       -5.1583    5.9628    6.7348 C.ar      1 RES1    0.0000
     25 N2        -4.4072    7.1329    6.7838 N.ar      1 RES1    0.0000
@<TRIPOS>BOND
     1    1    2 1
     2    3    1 1
     3    4    5 1
     4    6    7 1
     5    8    6 ar
     6    9    8 1
     7   10    8 ar
     8   11   10 1
     9   12   13 1
    10   14   10 ar
    11   15   14 1
    12   16    4 ar
    13   17   16 1
    14   18   12 ar
    15   19   18 1
    16   20   14 ar
    17   21   20 1
    18   22    6 ar
    19   23    3 2
    20   24   18 ar
    21   25    4 ar
    22   12   16 ar
    23   20   22 ar
    24   22   23 1
    25   23   24 1
    26   24   25 ar
@<TRIPOS>SUBSTRUCTURE
     1 RES1 1

@<TRIPOS>CRYSIN
  10.5942    9.8494   19.6460  90.0000  90.0000  90.0000  61 1

