# MOL2 file generated by ConQuest
# Please check atom types

@<TRIPOS>MOLECULE
VEXWAX
    40    41     1
SMALL
NO_CHARGES
****
Generated from CSD

@<TRIPOS>ATOM
      1 C1         5.8477    2.9837    4.2889 C.3       1 RES1    0.0000
      2 H1         5.3910    2.2159    3.8863 H         1 RES1    0.0000
      3 C2         4.8107    3.8848    4.9325 C.3       1 RES1    0.0000
      4 H2         5.2291    4.7507    5.1222 H         1 RES1    0.0000
      5 C3         4.2329    3.3351    6.2336 C.3       1 RES1    0.0000
      6 H3         4.9609    3.2334    6.8663 H         1 RES1    0.0000
      7 H4         3.6272    4.0001    6.5974 H         1 RES1    0.0000
      8 C4         3.4880    2.0119    6.1575 C.3       1 RES1    0.0000
      9 H5         3.0364    1.8801    7.0062 H         1 RES1    0.0000
     10 H6         2.7996    2.1014    5.4797 H         1 RES1    0.0000
     11 C5         4.2606    0.7589    5.8559 C.3       1 RES1    0.0000
     12 H7         4.3667    0.6957    4.8936 H         1 RES1    0.0000
     13 H8         3.7239    0.0005    6.1357 H         1 RES1    0.0000
     14 C6         5.6275    0.6225    6.4855 C.3       1 RES1    0.0000
     15 H9         5.7479   -0.3046    6.7451 H         1 RES1    0.0000
     16 H10        5.6385    1.1522    7.2985 H         1 RES1    0.0000
     17 C7         6.8184    1.0328    5.6414 C.3       1 RES1    0.0000
     18 H11        7.6194    0.7983    6.1357 H         1 RES1    0.0000
     19 H12        6.8097    0.4857    4.8408 H         1 RES1    0.0000
     20 C8         6.9620    2.4690    5.2061 C.3       1 RES1    0.0000
     21 H13        7.8098    2.5677    4.7460 H         1 RES1    0.0000
     22 H14        6.9921    3.0293    5.9974 H         1 RES1    0.0000
     23 C9         6.7289    3.1539    2.1002 C.2       1 RES1    0.0000
     24 C10        7.3474    4.0390    1.0586 C.ar      1 RES1    0.0000
     25 C11        8.0776    5.1768    1.3866 C.ar      1 RES1    0.0000
     26 H15        8.1799    5.4230    2.2774 H         1 RES1    0.0000
     27 C12        8.6502    5.9403    0.3902 C.ar      1 RES1    0.0000
     28 H16        9.1513    6.6964    0.5985 H         1 RES1    0.0000
     29 C13        8.4644    5.5592   -0.9187 C.ar      1 RES1    0.0000
     30 C14        7.7455    4.4325   -1.2732 C.ar      1 RES1    0.0000
     31 H17        7.6333    4.1968   -2.1655 H         1 RES1    0.0000
     32 C15        7.2069    3.6774   -0.2705 C.ar      1 RES1    0.0000
     33 H18        6.7358    2.9050   -0.4866 H         1 RES1    0.0000
     34 N1         9.0463    6.3800   -1.9913 N.pl3     1 RES1    0.0000
     35 O1         3.7189    4.0989    4.0324 O.3       1 RES1    0.0000
     36 H19        3.9312    4.6605    3.4744 H         1 RES1    0.0000
     37 O2         6.4429    3.7900    3.2225 O.3       1 RES1    0.0000
     38 O3         6.5254    1.9838    1.9090 O.2       1 RES1    0.0000
     39 O4         9.7550    7.3221   -1.6820 O.2       1 RES1    0.0000
     40 O5         8.7707    6.0974   -3.1479 O.2       1 RES1    0.0000
@<TRIPOS>BOND
     1    1    2 1
     2    3    1 1
     3    4    3 1
     4    5    3 1
     5    6    5 1
     6    7    5 1
     7    8    5 1
     8    9    8 1
     9   10    8 1
    10   11    8 1
    11   12   11 1
    12   13   11 1
    13   14   11 1
    14   15   14 1
    15   16   14 1
    16   17   14 1
    17   18   17 1
    18   19   17 1
    19   20    1 1
    20   21   20 1
    21   22   20 1
    22   23   24 1
    23   24   25 ar
    24   25   26 1
    25   27   25 ar
    26   28   27 1
    27   29   27 ar
    28   30   29 ar
    29   31   30 1
    30   32   24 ar
    31   33   32 1
    32   34   29 1
    33   35    3 1
    34   36   35 1
    35   37    1 1
    36   38   23 2
    37   39   34 2
    38   40   34 2
    39   17   20 1
    40   23   37 1
    41   30   32 ar
@<TRIPOS>SUBSTRUCTURE
     1 RES1 1

@<TRIPOS>CRYSIN
   7.2564    7.4017   15.5988  88.9230  85.4030  62.3340   2 1

