# MOL2 file generated by ConQuest
# Please check atom types

@<TRIPOS>MOLECULE
VEXYEC
    58    62     1
SMALL
NO_CHARGES
****
Generated from CSD

@<TRIPOS>ATOM
      1 O1         7.3533    7.5994   11.1346 O.3       1 RES1    0.0000
      2 O2         6.1101    8.7473    9.6410 O.2       1 RES1    0.0000
      3 N1         4.4136    9.1078   12.0161 N.3       1 RES1    0.0000
      4 N2         8.3686    7.6659   10.1977 N.pl3     1 RES1    0.0000
      5 N3         8.5594    6.6216    9.3796 N.2       1 RES1    0.0000
      6 N4         9.5270    6.9326    8.5694 N.2       1 RES1    0.0000
      7 C1         4.0999    9.2439   13.4602 C.3       1 RES1    0.0000
      8 C2         5.4156    9.3816   14.2506 C.ar      1 RES1    0.0000
      9 C3         6.5439    9.8581   13.6127 C.ar      1 RES1    0.0000
     10 C4         7.7324   10.0592   14.3140 C.ar      1 RES1    0.0000
     11 C5         7.7748    9.7668   15.6749 C.ar      1 RES1    0.0000
     12 C6         6.6641    9.3398   16.3028 C.ar      1 RES1    0.0000
     13 C7         5.4589    9.1573   15.6135 C.ar      1 RES1    0.0000
     14 C8         3.3541   10.5868   13.6524 C.ar      1 RES1    0.0000
     15 C9         3.4319   11.6125   12.7194 C.ar      1 RES1    0.0000
     16 C10        2.7524   12.8193   12.9234 C.ar      1 RES1    0.0000
     17 C11        2.0402   13.0250   14.0624 C.ar      1 RES1    0.0000
     18 C12        1.9704   12.0318   15.0152 C.ar      1 RES1    0.0000
     19 C13        2.6349   10.8266   14.8171 C.ar      1 RES1    0.0000
     20 C14        3.2207    8.0588   13.8940 C.ar      1 RES1    0.0000
     21 C15        3.7173    6.8892   14.4526 C.ar      1 RES1    0.0000
     22 C16        2.9168    5.7892   14.6567 C.ar      1 RES1    0.0000
     23 C17        1.5737    5.8125   14.3001 C.ar      1 RES1    0.0000
     24 C18        1.0594    6.9650   13.7375 C.ar      1 RES1    0.0000
     25 C19        1.8538    8.0759   13.5335 C.ar      1 RES1    0.0000
     26 C20        5.0180    7.8345   11.6120 C.3       1 RES1    0.0000
     27 C21        4.0478    6.8908   10.8633 C.3       1 RES1    0.0000
     28 C22        4.6548    5.5309   10.4176 C.3       1 RES1    0.0000
     29 C23        3.7111    4.8765    9.4826 C.3       1 RES1    0.0000
     30 C24        4.9747    4.6738   11.5685 C.3       1 RES1    0.0000
     31 C25        6.1613    8.1563   10.6612 C.2       1 RES1    0.0000
     32 C26        9.9502    8.2275    8.8903 C.ar      1 RES1    0.0000
     33 C27       10.9407    8.9515    8.2861 C.ar      1 RES1    0.0000
     34 C28       11.1342   10.2294    8.7992 C.ar      1 RES1    0.0000
     35 C29       10.3584   10.7616    9.8728 C.ar      1 RES1    0.0000
     36 C30        9.3679    9.9974   10.4809 C.ar      1 RES1    0.0000
     37 C31        9.2045    8.7009    9.9402 C.ar      1 RES1    0.0000
     38 H1         3.7200    9.1279   11.5685 H         1 RES1    0.0000
     39 H2         6.5077   10.0809   12.5569 H         1 RES1    0.0000
     40 H3         8.6036   10.4476   13.8069 H         1 RES1    0.0000
     41 H4         8.7035    9.8782   16.2137 H         1 RES1    0.0000
     42 H5         6.7030    9.1434   17.3626 H         1 RES1    0.0000
     43 H6         4.5700    8.8401   16.1404 H         1 RES1    0.0000
     44 H7         4.0398   11.4779   11.8359 H         1 RES1    0.0000
     45 H8         2.7833   13.5944   12.1687 H         1 RES1    0.0000
     46 H9         1.5348   13.9703   14.2209 H         1 RES1    0.0000
     47 H10        1.3864   12.1865   15.9106 H         1 RES1    0.0000
     48 H11        2.6049   10.0608   15.5818 H         1 RES1    0.0000
     49 H12        4.7547    6.8490   14.7518 H         1 RES1    0.0000
     50 H13        3.3303    4.8966   14.5141 H         1 RES1    0.0000
     51 H14        0.9578    4.9306   14.4150 H         1 RES1    0.0000
     52 H15        0.0097    7.0037   13.4879 H         1 RES1    0.0000
     53 H16        1.4252    8.9624   13.0838 H         1 RES1    0.0000
     54 H17        5.3422    7.3286   12.5114 H         1 RES1    0.0000
     55 H18        3.2207    6.6711   11.5229 H         1 RES1    0.0000
     56 H19        3.6828    7.4091    9.9877 H         1 RES1    0.0000
     57 H20        5.5985    5.6840    9.9164 H         1 RES1    0.0000
     58 H21        4.1140    3.9312    9.1419 H         1 RES1    0.0000
@<TRIPOS>BOND
     1    1    4 1
     2    2   31 2
     3    3    7 1
     4    4    5 1
     5    5    6 2
     6    6   32 1
     7    7    8 1
     8    8    9 ar
     9    9   10 ar
    10   10   11 ar
    11   11   12 ar
    12   12   13 ar
    13   13    8 ar
    14   14    7 1
    15   15   14 ar
    16   16   15 ar
    17   17   16 ar
    18   18   17 ar
    19   19   14 ar
    20   20    7 1
    21   21   20 ar
    22   22   21 ar
    23   23   22 ar
    24   24   23 ar
    25   25   20 ar
    26   26    3 1
    27   27   26 1
    28   28   27 1
    29   29   28 1
    30   30   28 1
    31   31    1 1
    32   32   33 ar
    33   33   34 ar
    34   34   35 ar
    35   35   36 ar
    36   36   37 ar
    37   37    4 1
    38   38    3 1
    39   39    9 1
    40   40   10 1
    41   41   11 1
    42   42   12 1
    43   43   13 1
    44   44   15 1
    45   45   16 1
    46   46   17 1
    47   47   18 1
    48   48   19 1
    49   49   21 1
    50   50   22 1
    51   51   23 1
    52   52   24 1
    53   53   25 1
    54   54   26 1
    55   55   27 1
    56   56   27 1
    57   57   28 1
    58   58   29 1
    59   18   19 ar
    60   24   25 ar
    61   26   31 1
    62   32   37 ar
@<TRIPOS>SUBSTRUCTURE
     1 RES1 1

@<TRIPOS>CRYSIN
   8.8360   15.4710   19.8090  90.0000  90.0000  90.0000  19 1

