# MOL2 file generated by ConQuest
# Please check atom types

@<TRIPOS>MOLECULE
VEYCAD
    11    11     1
SMALL
USER_CHARGES
****
Generated from CSD

@<TRIPOS>ATOM
      1 O1         1.0906    1.5189    9.6724 O.2       1 RES1    0.0000
      2 O2         3.3947    1.4576    8.7721 O.3       1 RES1    0.0000
      3 N1         2.0713    1.5189   10.4692 N.pl3     1 RES1    1.0000
      4 N2         3.3113    1.5114   10.1392 N.2       1 RES1   -1.0000
      5 C1         1.8276    1.5325   11.9041 C.ar      1 RES1    0.0000
      6 C2         4.8007    1.4923    8.4220 C.3       1 RES1    0.0000
      7 C3         0.6275    2.0676   12.3512 C.ar      1 RES1    0.0000
      8 C4         0.3927    2.1159   13.7177 C.ar      1 RES1    0.0000
      9 C5         1.3297    1.6230   14.6184 C.ar      1 RES1    0.0000
     10 C6         2.5071    1.0586   14.1448 C.ar      1 RES1    0.0000
     11 C7         2.7748    1.0171   12.7807 C.ar      1 RES1    0.0000
@<TRIPOS>BOND
     1    1    3 2
     2    2    4 1
     3    3    4 1
     4    5    3 1
     5    6    2 1
     6    7    5 ar
     7    8    7 ar
     8    9    8 ar
     9   10    9 ar
    10   11    5 ar
    11   10   11 ar
@<TRIPOS>SUBSTRUCTURE
     1 RES1 1

@<TRIPOS>CRYSIN
  12.8340    6.8080   16.8700  90.0000  90.0000  90.0000  61 1

