# MOL2 file generated by ConQuest
# Please check atom types

@<TRIPOS>MOLECULE
VEYVOK
    20    20     1
SMALL
NO_CHARGES
****
Generated from CSD

@<TRIPOS>ATOM
      1 O1         3.4928   -1.4479    0.5543 O.3       1 RES1    0.0000
      2 O2         1.5596   -1.2248    4.6614 O.3       1 RES1    0.0000
      3 N1         3.3136   -0.3080    1.3425 N.2       1 RES1    0.0000
      4 N2         1.8482    0.1416    4.5245 N.2       1 RES1    0.0000
      5 C1         2.6478   -0.5700    2.3880 C.2       1 RES1    0.0000
      6 C2         2.3848    0.4465    3.3960 C.2       1 RES1    0.0000
      7 C3         2.7352    1.8753    3.2124 C.ar      1 RES1    0.0000
      8 C4         2.4869    2.5308    2.0161 C.ar      1 RES1    0.0000
      9 C5         2.7869    3.8757    1.8828 C.ar      1 RES1    0.0000
     10 C6         3.3401    4.5710    2.9201 C.ar      1 RES1    0.0000
     11 C7         3.5871    3.9364    4.1082 C.ar      1 RES1    0.0000
     12 C8         3.2814    2.5978    4.2614 C.ar      1 RES1    0.0000
     13 H1         3.8793   -1.1102   -0.1871 H         1 RES1    0.0000
     14 H2         1.1737   -1.2495    5.4963 H         1 RES1    0.0000
     15 H3         2.3584   -1.4356    2.5961 H         1 RES1    0.0000
     16 H4         2.0480    2.0799    1.3215 H         1 RES1    0.0000
     17 H5         2.5811    4.3192    1.0759 H         1 RES1    0.0000
     18 H6         3.5736    5.5096    2.8534 H         1 RES1    0.0000
     19 H7         3.9941    4.4442    4.8531 H         1 RES1    0.0000
     20 H8         3.4802    2.1451    5.0870 H         1 RES1    0.0000
@<TRIPOS>BOND
     1    1    3 1
     2    2    4 1
     3    3    5 2
     4    4    6 2
     5    5    6 1
     6    6    7 1
     7    7    8 ar
     8    8    9 ar
     9    9   10 ar
    10   10   11 ar
    11   11   12 ar
    12   12    7 ar
    13   13    1 1
    14   14    2 1
    15   15    5 1
    16   16    8 1
    17   17    9 1
    18   18   10 1
    19   19   11 1
    20   20   12 1
@<TRIPOS>SUBSTRUCTURE
     1 RES1 1

@<TRIPOS>CRYSIN
   3.9660    8.6240   11.7920  91.0400  97.1700  95.5200   2 1

