# MOL2 file generated by ConQuest
# Please check atom types

@<TRIPOS>MOLECULE
VEZFIQ
    64    68     1
SMALL
USER_CHARGES
****
Generated from CSD

@<TRIPOS>ATOM
      1 O1         6.8182    1.1460    4.1630 O.3       1 RES1    0.0000
      2 O2         5.5251    2.1986    2.6190 O.2       1 RES1   -1.0000
      3 O3        13.0603    4.3556    6.7875 O.3       1 RES1    0.0000
      4 N1         8.3852    2.5462    4.4378 N.pl3     1 RES1    1.0000
      5 N2         7.9862    1.3664    4.8572 N.2       1 RES1    0.0000
      6 N3         9.0412    4.6709    2.3122 N.2       1 RES1    0.0000
      7 N4         6.9292    5.3386    2.5980 N.3       1 RES1    0.0000
      8 C1         6.5175    2.2175    3.2999 C.2       1 RES1    0.0000
      9 C2         7.5829    3.1225    3.5251 C.2       1 RES1    0.0000
     10 C3         9.5933    3.0655    5.0514 C.ar      1 RES1    0.0000
     11 C4         9.5530    3.4251    6.3681 C.ar      1 RES1    0.0000
     12 H1         8.7571    3.3642    6.8460 H         1 RES1    0.0000
     13 C5        10.6983    3.8771    6.9850 C.ar      1 RES1    0.0000
     14 H2        10.6779    4.1284    7.8801 H         1 RES1    0.0000
     15 C6        11.8653    3.9543    6.2754 C.ar      1 RES1    0.0000
     16 C7        11.8977    3.6015    4.9411 C.ar      1 RES1    0.0000
     17 H3        12.6909    3.6667    4.4599 H         1 RES1    0.0000
     18 C8        10.7550    3.1524    4.3230 C.ar      1 RES1    0.0000
     19 H4        10.7689    2.9110    3.4257 H         1 RES1    0.0000
     20 C9        13.1360    4.6288    8.2024 C.3       1 RES1    0.0000
     21 H5        12.8663    5.5482    8.3569 H         1 RES1    0.0000
     22 H6        12.5048    4.0561    8.6637 H         1 RES1    0.0000
     23 C10       14.2663    4.4561    8.6946 C.3       1 RES1    0.0000
     24 H7        14.3745    3.5325    8.9330 H         1 RES1    0.0000
     25 H8        14.3601    5.0016    9.4793 H         1 RES1    0.0000
     26 H9        14.9369    4.7022    8.0534 H         1 RES1    0.0000
     27 C11        7.8695    4.3758    2.8375 C.2       1 RES1    0.0000
     28 C12        7.5724    6.3215    1.8641 C.2       1 RES1    0.0000
     29 C13        8.8595    5.8928    1.7051 C.2       1 RES1    0.0000
     30 C14        9.9747    6.5170    0.9646 C.ar      1 RES1    0.0000
     31 C15       11.2794    6.3681    1.4259 C.ar      1 RES1    0.0000
     32 H10       11.4398    5.9121    2.2206 H         1 RES1    0.0000
     33 C16       12.3432    6.8956    0.7063 C.ar      1 RES1    0.0000
     34 H11       13.2122    6.7819    1.0165 H         1 RES1    0.0000
     35 C17       12.1210    7.5811   -0.4514 C.ar      1 RES1    0.0000
     36 H12       12.8378    7.9385   -0.9227 H         1 RES1    0.0000
     37 C18       10.8362    7.7437   -0.9260 C.ar      1 RES1    0.0000
     38 H13       10.6862    8.2057   -1.7184 H         1 RES1    0.0000
     39 C19        9.7756    7.2166   -0.2174 C.ar      1 RES1    0.0000
     40 H14        8.9101    7.3320   -0.5386 H         1 RES1    0.0000
     41 C20        6.9084    7.5546    1.3939 C.ar      1 RES1    0.0000
     42 C21        5.7991    7.5091    0.5629 C.ar      1 RES1    0.0000
     43 H15        5.4322    6.6892    0.3234 H         1 RES1    0.0000
     44 C22        5.2364    8.6777    0.0916 C.ar      1 RES1    0.0000
     45 H16        4.4860    8.6379   -0.4558 H         1 RES1    0.0000
     46 C23        5.7699    9.8926    0.4194 C.ar      1 RES1    0.0000
     47 H17        5.3889   10.6746    0.0916 H         1 RES1    0.0000
     48 C24        6.8721    9.9521    1.2350 C.ar      1 RES1    0.0000
     49 H18        7.2355   10.7779    1.4601 H         1 RES1    0.0000
     50 C25        7.4440    8.8009    1.7228 C.ar      1 RES1    0.0000
     51 H19        8.1901    8.8530    2.2746 H         1 RES1    0.0000
     52 C26        5.5961    5.4467    3.1918 C.3       1 RES1    0.0000
     53 H20        5.3252    4.5726    3.5129 H         1 RES1    0.0000
     54 H21        4.9673    5.7151    2.5031 H         1 RES1    0.0000
     55 C27        5.5195    6.4398    4.3418 C.3       1 RES1    0.0000
     56 H22        5.8684    7.2993    4.0250 H         1 RES1    0.0000
     57 C28        4.0534    6.6402    4.7325 C.3       1 RES1    0.0000
     58 H23        3.5571    6.9441    3.9687 H         1 RES1    0.0000
     59 H24        3.9959    7.2941    5.4333 H         1 RES1    0.0000
     60 H25        3.6885    5.8081    5.0415 H         1 RES1    0.0000
     61 C29        6.3593    5.9990    5.5172 C.3       1 RES1    0.0000
     62 H26        6.0405    5.1513    5.8372 H         1 RES1    0.0000
     63 H27        6.2948    6.6507    6.2180 H         1 RES1    0.0000
     64 H28        7.2741    5.9125    5.2413 H         1 RES1    0.0000
@<TRIPOS>BOND
     1    1    5 1
     2    2    8 1
     3    3   15 1
     4    4    5 2
     5    6   27 2
     6    7   27 1
     7    8    1 1
     8    9    4 1
     9   10    4 1
    10   11   10 ar
    11   12   11 1
    12   13   11 ar
    13   14   13 1
    14   15   13 ar
    15   16   15 ar
    16   17   16 1
    17   18   10 ar
    18   19   18 1
    19   20    3 1
    20   21   20 1
    21   22   20 1
    22   23   20 1
    23   24   23 1
    24   25   23 1
    25   26   23 1
    26   27    9 1
    27   28    7 1
    28   29    6 1
    29   30   29 1
    30   31   30 ar
    31   32   31 1
    32   33   31 ar
    33   34   33 1
    34   35   33 ar
    35   36   35 1
    36   37   35 ar
    37   38   37 1
    38   39   30 ar
    39   40   39 1
    40   41   28 1
    41   42   41 ar
    42   43   42 1
    43   44   42 ar
    44   45   44 1
    45   46   44 ar
    46   47   46 1
    47   48   46 ar
    48   49   48 1
    49   50   41 ar
    50   51   50 1
    51   52    7 1
    52   53   52 1
    53   54   52 1
    54   55   52 1
    55   56   55 1
    56   57   55 1
    57   58   57 1
    58   59   57 1
    59   60   57 1
    60   61   55 1
    61   62   61 1
    62   63   61 1
    63   64   61 1
    64    8    9 2
    65   16   18 ar
    66   28   29 2
    67   37   39 ar
    68   48   50 ar
@<TRIPOS>SUBSTRUCTURE
     1 RES1 1

@<TRIPOS>CRYSIN
  10.7821   10.9877   11.8506  69.5410  79.6850  76.8860   2 1

