# MOL2 file generated by ConQuest
# Please check atom types

@<TRIPOS>MOLECULE
VEZGAJ
    65    70     1
SMALL
USER_CHARGES
****
Generated from CSD

@<TRIPOS>ATOM
      1 O1        11.4336    1.5507    5.3774 O.3       1 RES1    0.0000
      2 O2        11.4122    0.9309    3.1844 O.2       1 RES1   -1.0000
      3 O3         6.7744    7.0996    7.4866 O.3       1 RES1    0.0000
      4 N1         9.9872    3.1015    5.3898 N.pl3     1 RES1    1.0000
      5 N2        10.7927    2.4553    6.1949 N.2       1 RES1    0.0000
      6 N3         9.3960    4.7471    2.9113 N.2       1 RES1    0.0000
      7 N4         8.7640    2.8343    1.9641 N.3       1 RES1    0.0000
      8 C1        10.9803    1.6574    4.0485 C.2       1 RES1    0.0000
      9 C2        10.0416    2.7078    4.0959 C.2       1 RES1    0.0000
     10 C3         9.1605    4.1274    5.9760 C.ar      1 RES1    0.0000
     11 C4         9.7095    5.0057    6.8826 C.ar      1 RES1    0.0000
     12 H1        10.6034    4.9212    7.1262 H         1 RES1    0.0000
     13 C5         8.9460    6.0056    7.4286 C.ar      1 RES1    0.0000
     14 H2         9.3149    6.5921    8.0483 H         1 RES1    0.0000
     15 C6         7.6228    6.1324    7.0486 C.ar      1 RES1    0.0000
     16 C7         7.0667    5.2217    6.1481 C.ar      1 RES1    0.0000
     17 H3         6.1712    5.2969    5.9099 H         1 RES1    0.0000
     18 C8         7.8300    4.2209    5.6149 C.ar      1 RES1    0.0000
     19 H4         7.4592    3.6113    5.0173 H         1 RES1    0.0000
     20 C9         7.2370    8.0187    8.4822 C.3       1 RES1    0.0000
     21 H5         8.0006    8.5178    8.1537 H         1 RES1    0.0000
     22 H6         7.5006    7.5426    9.2854 H         1 RES1    0.0000
     23 C10        6.0936    8.9428    8.7741 C.3       1 RES1    0.0000
     24 H7         6.3581    9.5763    9.4436 H         1 RES1    0.0000
     25 H8         5.3444    8.4341    9.0917 H         1 RES1    0.0000
     26 H9         5.8466    9.4087    7.9710 H         1 RES1    0.0000
     27 C11        9.4098    3.4331    3.0039 C.2       1 RES1    0.0000
     28 C12        8.2941    3.8531    1.1527 C.2       1 RES1    0.0000
     29 C13        8.6891    5.0236    1.7575 C.2       1 RES1    0.0000
     30 C14        8.4740    6.4167    1.3388 C.ar      1 RES1    0.0000
     31 C15        8.3533    7.4097    2.3004 C.ar      1 RES1    0.0000
     32 H10        8.4111    7.1858    3.2014 H         1 RES1    0.0000
     33 C16        8.1482    8.7278    1.9363 C.ar      1 RES1    0.0000
     34 H11        8.0679    9.3837    2.5908 H         1 RES1    0.0000
     35 C17        8.0615    9.0697    0.6064 C.ar      1 RES1    0.0000
     36 H12        7.9214    9.9567    0.3629 H         1 RES1    0.0000
     37 C18        8.1812    8.1046   -0.3583 C.ar      1 RES1    0.0000
     38 H13        8.1210    8.3382   -1.2568 H         1 RES1    0.0000
     39 C19        8.3922    6.7806   -0.0025 C.ar      1 RES1    0.0000
     40 H14        8.4793    6.1321   -0.6633 H         1 RES1    0.0000
     41 C20        7.4896    3.5793   -0.0563 C.ar      1 RES1    0.0000
     42 C21        7.9943    2.8124   -1.1017 C.ar      1 RES1    0.0000
     43 H15        8.8779    2.5220   -1.0790 H         1 RES1    0.0000
     44 C22        7.1854    2.4804   -2.1753 C.ar      1 RES1    0.0000
     45 H16        7.5182    1.9470   -2.8605 H         1 RES1    0.0000
     46 C23        5.8885    2.9394   -2.2302 C.ar      1 RES1    0.0000
     47 H17        5.3463    2.7124   -2.9513 H         1 RES1    0.0000
     48 C24        5.3938    3.7289   -1.2276 C.ar      1 RES1    0.0000
     49 H18        4.5236    4.0521   -1.2788 H         1 RES1    0.0000
     50 C25        6.1862    4.0459   -0.1394 C.ar      1 RES1    0.0000
     51 H19        5.8418    4.5768    0.5419 H         1 RES1    0.0000
     52 C26        8.4485    1.4026    1.8349 C.3       1 RES1    0.0000
     53 H20        9.1691    0.8834    2.2254 H         1 RES1    0.0000
     54 H21        8.3939    1.1743    0.8938 H         1 RES1    0.0000
     55 C27        7.1501    1.0293    2.5097 C.ar      1 RES1    0.0000
     56 C28        5.9579    0.9770    1.8026 C.ar      1 RES1    0.0000
     57 H22        5.9473    1.1870    0.8963 H         1 RES1    0.0000
     58 C29        4.7822    0.6123    2.4403 C.ar      1 RES1    0.0000
     59 H23        3.9875    0.5781    1.9593 H         1 RES1    0.0000
     60 C30        4.7825    0.3021    3.7730 C.ar      1 RES1    0.0000
     61 H24        3.9904    0.0652    4.1982 H         1 RES1    0.0000
     62 C31        5.9532    0.3427    4.4752 C.ar      1 RES1    0.0000
     63 H25        5.9586    0.1262    5.3802 H         1 RES1    0.0000
     64 C32        7.1299    0.7037    3.8472 C.ar      1 RES1    0.0000
     65 H26        7.9207    0.7266    4.3356 H         1 RES1    0.0000
@<TRIPOS>BOND
     1    1    5 1
     2    2    8 1
     3    3   15 1
     4    4    5 2
     5    6   27 2
     6    7   27 1
     7    8    1 1
     8    9    4 1
     9   10    4 1
    10   11   10 ar
    11   12   11 1
    12   13   11 ar
    13   14   13 1
    14   15   13 ar
    15   16   15 ar
    16   17   16 1
    17   18   10 ar
    18   19   18 1
    19   20    3 1
    20   21   20 1
    21   22   20 1
    22   23   20 1
    23   24   23 1
    24   25   23 1
    25   26   23 1
    26   27    9 1
    27   28    7 1
    28   29    6 1
    29   30   29 1
    30   31   30 ar
    31   32   31 1
    32   33   31 ar
    33   34   33 1
    34   35   33 ar
    35   36   35 1
    36   37   35 ar
    37   38   37 1
    38   39   30 ar
    39   40   39 1
    40   41   28 1
    41   42   41 ar
    42   43   42 1
    43   44   42 ar
    44   45   44 1
    45   46   44 ar
    46   47   46 1
    47   48   46 ar
    48   49   48 1
    49   50   41 ar
    50   51   50 1
    51   52    7 1
    52   53   52 1
    53   54   52 1
    54   55   52 1
    55   56   55 ar
    56   57   56 1
    57   58   56 ar
    58   59   58 1
    59   60   58 ar
    60   61   60 1
    61   62   60 ar
    62   63   62 1
    63   64   55 ar
    64   65   64 1
    65    8    9 2
    66   16   18 ar
    67   28   29 2
    68   37   39 ar
    69   48   50 ar
    70   62   64 ar
@<TRIPOS>SUBSTRUCTURE
     1 RES1 1

@<TRIPOS>CRYSIN
   9.8788   11.2436   12.4050  81.4100  88.2550  88.7470   2 1

