# MOL2 file generated by ConQuest
# Please check atom types

@<TRIPOS>MOLECULE
VEZTUQ
    40    43     1
SMALL
NO_CHARGES
****
Generated from CSD

@<TRIPOS>ATOM
      1 O1        12.2373   10.4941   -5.0323 O.2       1 RES1    0.0000
      2 O2        13.5354    9.7170   -3.5350 O.2       1 RES1    0.0000
      3 N1        12.5991   10.3793   -3.8770 N.pl3     1 RES1    0.0000
      4 C1         6.0594   14.7181   -0.5877 C.ar      1 RES1    0.0000
      5 H1         6.5984   14.3082   -1.2244 H         1 RES1    0.0000
      6 C2         4.7620   14.9558   -0.8751 C.ar      1 RES1    0.0000
      7 H2         4.4267   14.7124   -1.7069 H         1 RES1    0.0000
      8 C3         3.9138   15.5643    0.0562 C.ar      1 RES1    0.0000
      9 H3         3.0208   15.7136   -0.1574 H         1 RES1    0.0000
     10 C4         4.3882   15.9343    1.2581 C.ar      1 RES1    0.0000
     11 H4         3.8199   16.3542    1.8634 H         1 RES1    0.0000
     12 C5         8.0636   16.2261    4.4920 C.ar      1 RES1    0.0000
     13 H5         7.4800   16.5977    5.1126 H         1 RES1    0.0000
     14 C6         9.3657   16.0927    4.8091 C.ar      1 RES1    0.0000
     15 H6         9.6756   16.3726    5.6401 H         1 RES1    0.0000
     16 C7        10.2598   15.5237    3.8706 C.ar      1 RES1    0.0000
     17 H7        11.1631   15.4564    4.0801 H         1 RES1    0.0000
     18 C8         9.8186   15.0796    2.6775 C.ar      1 RES1    0.0000
     19 H8        10.4233   14.6871    2.0898 H         1 RES1    0.0000
     20 C9         7.9619   14.8125    1.0220 C.ar      1 RES1    0.0000
     21 C10        6.2335   16.0250    2.8871 C.ar      1 RES1    0.0000
     22 H9         5.6561   16.3956    3.5141 H         1 RES1    0.0000
     23 C11        6.6208   15.0826    0.6744 C.ar      1 RES1    0.0000
     24 C12        5.7517   15.6945    1.6234 C.ar      1 RES1    0.0000
     25 C13        7.5632   15.8098    3.2283 C.ar      1 RES1    0.0000
     26 C14        8.4518   15.1935    2.2914 C.ar      1 RES1    0.0000
     27 C15        8.8207   14.1608    0.0257 C.2       1 RES1    0.0000
     28 H10        8.8050   14.5700   -0.8093 H         1 RES1    0.0000
     29 C16        9.5855   13.1413    0.0875 C.2       1 RES1    0.0000
     30 H11        9.6535   12.7605    0.9337 H         1 RES1    0.0000
     31 C17       10.3787   12.4636   -0.9514 C.ar      1 RES1    0.0000
     32 C18       11.3606   11.5685   -0.6070 C.ar      1 RES1    0.0000
     33 H12       11.5352   11.4057    0.2914 H         1 RES1    0.0000
     34 C19       12.0905   10.9088   -1.5632 C.ar      1 RES1    0.0000
     35 H13       12.7545   10.3081   -1.3119 H         1 RES1    0.0000
     36 C20       11.8411   11.1359   -2.8702 C.ar      1 RES1    0.0000
     37 C21       10.8711   12.0074   -3.2628 C.ar      1 RES1    0.0000
     38 H14       10.6961   12.1497   -4.1652 H         1 RES1    0.0000
     39 C22       10.1478   12.6795   -2.2841 C.ar      1 RES1    0.0000
     40 H15        9.4942   13.2887   -2.5402 H         1 RES1    0.0000
@<TRIPOS>BOND
     1    1    3 2
     2    2    3 2
     3    3   36 1
     4    4    5 1
     5    6    4 ar
     6    7    6 1
     7    8    6 ar
     8    9    8 1
     9   10    8 ar
    10   11   10 1
    11   12   13 1
    12   14   12 ar
    13   15   14 1
    14   16   14 ar
    15   17   16 1
    16   18   16 ar
    17   19   18 1
    18   20   23 ar
    19   21   22 1
    20   23    4 ar
    21   24   10 ar
    22   25   12 ar
    23   26   18 ar
    24   27   20 1
    25   28   27 1
    26   29   27 2
    27   30   29 1
    28   31   29 1
    29   32   31 ar
    30   33   32 1
    31   34   32 ar
    32   35   34 1
    33   36   34 ar
    34   37   36 ar
    35   38   37 1
    36   39   31 ar
    37   40   39 1
    38   20   26 ar
    39   21   24 ar
    40   21   25 ar
    41   23   24 ar
    42   25   26 ar
    43   37   39 ar
@<TRIPOS>SUBSTRUCTURE
     1 RES1 1

@<TRIPOS>CRYSIN
   8.8163   22.9630    8.1029  90.0000  97.7650  90.0000  14 1

