# MOL2 file generated by ConQuest
# Please check atom types

@<TRIPOS>MOLECULE
VIBCEQ
    21    21     1
SMALL
NO_CHARGES
****
Generated from CSD

@<TRIPOS>ATOM
      1 C1        -0.7912    2.8050    5.9504 C.2       1 RES1    0.0000
      2 C2        -1.4938    4.0742    5.8126 C.2       1 RES1    0.0000
      3 C3        -2.9290    3.6951    5.6225 C.2       1 RES1    0.0000
      4 C4        -4.0395    1.4530    5.5483 C.3       1 RES1    0.0000
      5 H1        -4.7624    1.7966    6.0957 H         1 RES1    0.0000
      6 H2        -3.7905    0.5822    5.8974 H         1 RES1    0.0000
      7 C5        -4.5255    1.2943    4.1310 C.3       1 RES1    0.0000
      8 H3        -5.2964    0.7053    4.1247 H         1 RES1    0.0000
      9 H4        -4.8105    2.1584    3.7949 H         1 RES1    0.0000
     10 C6         0.6627    2.5882    6.1918 C.3       1 RES1    0.0000
     11 H5         0.8913    2.9047    7.0685 H         1 RES1    0.0000
     12 H6         1.1713    3.0689    5.5345 H         1 RES1    0.0000
     13 H7         0.8606    1.6507    6.1282 H         1 RES1    0.0000
     14 H8        -1.0527    7.0984    5.7802 H         1 RES1    0.0000
     15 H9        -3.1024    1.4592    2.9930 H         1 RES1    0.0000
     16 N1        -2.9019    2.3481    5.6480 N.am      1 RES1    0.0000
     17 N2        -1.6139    1.8156    5.8413 N.2       1 RES1    0.0000
     18 N3        -0.8927    5.2172    5.8700 N.2       1 RES1    0.0000
     19 O1        -3.9320    4.3891    5.4784 O.2       1 RES1    0.0000
     20 O2        -3.5262    0.7636    3.2649 O.3       1 RES1    0.0000
     21 O3        -1.7334    6.2581    5.7185 O.3       1 RES1    0.0000
@<TRIPOS>BOND
     1    1    2 1
     2    2    3 1
     3    3   16 1
     4    4    5 1
     5    6    4 1
     6    7    4 1
     7    8    7 1
     8    9    7 1
     9   10    1 1
    10   11   10 1
    11   12   10 1
    12   13   10 1
    13   14   21 1
    14   15   20 1
    15   16    4 1
    16   17    1 2
    17   18    2 2
    18   19    3 2
    19   20    7 1
    20   21   18 1
    21   16   17 1
@<TRIPOS>SUBSTRUCTURE
     1 RES1 1

@<TRIPOS>CRYSIN
   8.2980   15.1999   12.4580  90.0000 149.9660  90.0000 231 1

