# MOL2 file generated by ConQuest
# Please check atom types

@<TRIPOS>MOLECULE
VIBCAM
    28    29     1
SMALL
NO_CHARGES
****
Generated from CSD

@<TRIPOS>ATOM
      1 C1        13.6520    1.8504    2.8659 C.2       1 RES1    0.0000
      2 C2        13.0708    1.1353    3.9991 C.2       1 RES1    0.0000
      3 C3        12.1190    0.1615    3.3939 C.2       1 RES1    0.0000
      4 C4        11.5172   -0.2793    0.9983 C.3       1 RES1    0.0000
      5 H1        11.7312   -1.2244    1.0360 H         1 RES1    0.0000
      6 H2        11.8252    0.0621    0.1449 H         1 RES1    0.0000
      7 C5        10.0304   -0.1074    1.0878 C.3       1 RES1    0.0000
      8 H3         9.6019   -0.6083    0.3761 H         1 RES1    0.0000
      9 H4         9.7137   -0.4556    1.9360 H         1 RES1    0.0000
     10 C6        14.7101    2.8719    2.8535 C.ar      1 RES1    0.0000
     11 C7        15.1285    3.5216    3.9934 C.ar      1 RES1    0.0000
     12 H5        14.7078    3.3152    4.8582 H         1 RES1    0.0000
     13 C8        16.1408    4.4662    3.9261 C.ar      1 RES1    0.0000
     14 H6        16.4042    4.9056    4.6973 H         1 RES1    0.0000
     15 C9        16.7463    4.7494    2.7408 C.ar      1 RES1    0.0000
     16 H7        17.4500    5.3833    2.7057 H         1 RES1    0.0000
     17 C10       16.3403    4.1141    1.6023 C.ar      1 RES1    0.0000
     18 H8        16.7666    4.3145    0.7609 H         1 RES1    0.0000
     19 C11       15.3210    3.1871    1.6521 C.ar      1 RES1    0.0000
     20 H9        15.0337    2.7532    0.8341 H         1 RES1    0.0000
     21 N1        12.2198    0.4118    2.0699 N.am      1 RES1    0.0000
     22 N2        13.1405    1.4106    1.7576 N.2       1 RES1    0.0000
     23 N3        13.4299    1.3032    5.2302 N.2       1 RES1    0.0000
     24 O1        11.4065   -0.6959    3.8989 O.2       1 RES1    0.0000
     25 O2         9.6852    1.2688    0.9779 O.3       1 RES1    0.0000
     26 H10        9.2715    1.5071    1.7121 H         1 RES1    0.0000
     27 O3        12.7979    0.4615    6.0893 O.3       1 RES1    0.0000
     28 H11       13.1549    0.6994    6.8776 H         1 RES1    0.0000
@<TRIPOS>BOND
     1    1    2 1
     2    2    3 1
     3    3   21 1
     4    4    5 1
     5    6    4 1
     6    7    4 1
     7    8    7 1
     8    9    7 1
     9   10    1 1
    10   11   10 ar
    11   12   11 1
    12   13   11 ar
    13   14   13 1
    14   15   13 ar
    15   16   15 1
    16   17   15 ar
    17   18   17 1
    18   19   10 ar
    19   20   19 1
    20   21    4 1
    21   22    1 2
    22   23    2 2
    23   24    3 2
    24   25    7 1
    25   26   25 1
    26   27   23 1
    27   28   27 1
    28   17   19 ar
    29   21   22 1
@<TRIPOS>SUBSTRUCTURE
     1 RES1 1

@<TRIPOS>CRYSIN
  15.8072    4.9253   16.3792  90.0000 116.6960  90.0000 231 1

