# MOL2 file generated by ConQuest
# Please check atom types

@<TRIPOS>MOLECULE
VIBJUM
    38    39     1
SMALL
NO_CHARGES
****
Generated from CSD

@<TRIPOS>ATOM
      1 N1         5.9587    6.3743    2.0683 N.2       1 RES1    0.0000
      2 C1         6.0617    7.1765    1.0760 C.2       1 RES1    0.0000
      3 C2         7.4178    7.2258    0.4282 C.2       1 RES1    0.0000
      4 C3         8.5132    6.4518    1.0396 C.2       1 RES1    0.0000
      5 H1         8.3572    5.9791    1.8367 H         1 RES1    0.0000
      6 C4         9.7212    6.4110    0.4811 C.2       1 RES1    0.0000
      7 H2         9.8235    6.8685   -0.3339 H         1 RES1    0.0000
      8 C5        10.9074    5.7283    1.0028 C.ar      1 RES1    0.0000
      9 C6        12.1273    5.9003    0.3513 C.ar      1 RES1    0.0000
     10 H3        12.1663    6.4273   -0.4256 H         1 RES1    0.0000
     11 C7        13.2822    5.3061    0.8319 C.ar      1 RES1    0.0000
     12 H4        14.1007    5.4526    0.3929 H         1 RES1    0.0000
     13 C8        13.2374    4.5051    1.9457 C.ar      1 RES1    0.0000
     14 H5        14.0198    4.0933    2.2639 H         1 RES1    0.0000
     15 C9        12.0325    4.3089    2.5947 C.ar      1 RES1    0.0000
     16 H6        11.9962    3.7545    3.3525 H         1 RES1    0.0000
     17 C10       10.8790    4.9224    2.1375 C.ar      1 RES1    0.0000
     18 H7        10.0692    4.7935    2.5979 H         1 RES1    0.0000
     19 O1         7.5672    7.9136   -0.5697 O.2       1 RES1    0.0000
     20 C11        4.9715    8.0271    0.5359 C.3       1 RES1    0.0000
     21 H8         4.2033    7.4733    0.3241 H         1 RES1    0.0000
     22 H9         5.2784    8.4751   -0.2668 H         1 RES1    0.0000
     23 H10        4.7195    8.6884    1.1983 H         1 RES1    0.0000
     24 O2         4.6638    6.4005    2.5969 O.3       1 RES1    0.0000
     25 C12        4.5988    5.4673    3.6889 C.3       1 RES1    0.0000
     26 H11        5.1232    5.7984    4.4476 H         1 RES1    0.0000
     27 H12        4.9637    4.5997    3.4147 H         1 RES1    0.0000
     28 C13        3.1550    5.3229    4.0798 C.ar      1 RES1    0.0000
     29 C14        2.6346    6.0608    5.1257 C.ar      1 RES1    0.0000
     30 H13        3.1843    6.6692    5.5869 H         1 RES1    0.0000
     31 C15        1.3060    5.9109    5.5010 C.ar      1 RES1    0.0000
     32 H14        0.9576    6.4188    6.2123 H         1 RES1    0.0000
     33 C16        0.4988    5.0207    4.8346 C.ar      1 RES1    0.0000
     34 H15       -0.3970    4.9122    5.0959 H         1 RES1    0.0000
     35 C17        1.0056    4.2856    3.7789 C.ar      1 RES1    0.0000
     36 H16        0.4533    3.6832    3.3148 H         1 RES1    0.0000
     37 C18        2.3329    4.4386    3.4068 C.ar      1 RES1    0.0000
     38 H17        2.6771    3.9367    2.6912 H         1 RES1    0.0000
@<TRIPOS>BOND
     1    1    2 2
     2    2    3 1
     3    3    4 1
     4    4    5 1
     5    6    4 2
     6    7    6 1
     7    8    6 1
     8    9    8 ar
     9   10    9 1
    10   11    9 ar
    11   12   11 1
    12   13   11 ar
    13   14   13 1
    14   15   13 ar
    15   16   15 1
    16   17    8 ar
    17   18   17 1
    18   19    3 2
    19   20    2 1
    20   21   20 1
    21   22   20 1
    22   23   20 1
    23   24    1 1
    24   25   24 1
    25   26   25 1
    26   27   25 1
    27   28   25 1
    28   29   28 ar
    29   30   29 1
    30   31   29 ar
    31   32   31 1
    32   33   31 ar
    33   34   33 1
    34   35   33 ar
    35   36   35 1
    36   37   28 ar
    37   38   37 1
    38   15   17 ar
    39   35   37 ar
@<TRIPOS>SUBSTRUCTURE
     1 RES1 1

@<TRIPOS>CRYSIN
  23.6810    7.7540   17.0560  90.0000 106.3100  90.0000  15 1

