# MOL2 file generated by ConQuest
# Please check atom types

@<TRIPOS>MOLECULE
VIBKEX
    32    32     1
SMALL
NO_CHARGES
****
Generated from CSD

@<TRIPOS>ATOM
      1 N1        -0.7412    6.8336   -1.2542 N.2       1 RES1    0.0000
      2 C1        -0.3070    6.1501   -0.2624 C.2       1 RES1    0.0000
      3 C2         0.9871    5.4411   -0.4941 C.2       1 RES1    0.0000
      4 C3         1.5809    5.4890   -1.8361 C.2       1 RES1    0.0000
      5 H1         1.0998    5.8952   -2.5336 H         1 RES1    0.0000
      6 C4         2.7857    4.9706   -2.0913 C.2       1 RES1    0.0000
      7 H2         3.2525    4.5684   -1.3822 H         1 RES1    0.0000
      8 C5         3.4114    4.9910   -3.3883 C.2       1 RES1    0.0000
      9 H3         2.9408    5.3724   -4.1061 H         1 RES1    0.0000
     10 C6         4.6290    4.4935   -3.6172 C.2       1 RES1    0.0000
     11 H4         5.0665    4.0972   -2.8857 H         1 RES1    0.0000
     12 O1         1.5083    4.8407    0.4332 O.2       1 RES1    0.0000
     13 O2        -1.9284    7.4795   -0.9197 O.3       1 RES1    0.0000
     14 C7        -0.9793    6.0469    1.0643 C.3       1 RES1    0.0000
     15 H5        -1.0835    6.9336    1.4440 H         1 RES1    0.0000
     16 H6        -0.4397    5.5027    1.6581 H         1 RES1    0.0000
     17 H7        -1.8516    5.6378    0.9540 H         1 RES1    0.0000
     18 C8        -2.4066    8.1961   -2.0554 C.3       1 RES1    0.0000
     19 H8        -1.8054    8.9326   -2.2505 H         1 RES1    0.0000
     20 H9        -3.2927    8.5433   -1.8699 H         1 RES1    0.0000
     21 H10       -2.4473    7.6010   -2.8191 H         1 RES1    0.0000
     22 C9         5.3518    4.5008   -4.8871 C.ar      1 RES1    0.0000
     23 C10        6.5160    3.7620   -5.0146 C.ar      1 RES1    0.0000
     24 H11        6.8355    3.2741   -4.2774 H         1 RES1    0.0000
     25 C11        7.2200    3.7262   -6.2103 C.ar      1 RES1    0.0000
     26 H12        7.9963    3.2010   -6.2804 H         1 RES1    0.0000
     27 C12        6.7921    4.4492   -7.2851 C.ar      1 RES1    0.0000
     28 H13        7.2730    4.4285   -8.0932 H         1 RES1    0.0000
     29 C13        5.6520    5.2064   -7.1768 C.ar      1 RES1    0.0000
     30 H14        5.3584    5.7125   -7.9124 H         1 RES1    0.0000
     31 C14        4.9337    5.2321   -6.0000 C.ar      1 RES1    0.0000
     32 H15        4.1505    5.7498   -5.9474 H         1 RES1    0.0000
@<TRIPOS>BOND
     1    1    2 2
     2    2    3 1
     3    3    4 1
     4    4    5 1
     5    6    4 2
     6    7    6 1
     7    8    6 1
     8    9    8 1
     9   10    8 2
    10   11   10 1
    11   12    3 2
    12   13    1 1
    13   14    2 1
    14   15   14 1
    15   16   14 1
    16   17   14 1
    17   18   13 1
    18   19   18 1
    19   20   18 1
    20   21   18 1
    21   22   10 1
    22   23   22 ar
    23   24   23 1
    24   25   23 ar
    25   26   25 1
    26   27   25 ar
    27   28   27 1
    28   29   27 ar
    29   30   29 1
    30   31   22 ar
    31   32   31 1
    32   29   31 ar
@<TRIPOS>SUBSTRUCTURE
     1 RES1 1

@<TRIPOS>CRYSIN
   6.8600    7.9450   23.9430  90.0000  96.4900  90.0000  14 1

