# MOL2 file generated by ConQuest
# Please check atom types

@<TRIPOS>MOLECULE
VIDCES
    51    54     1
SMALL
NO_CHARGES
****
Generated from CSD

@<TRIPOS>ATOM
      1 O1         0.2184    4.7254    7.8220 O.2       1 RES1    0.0000
      2 O2        -0.2745   10.6547    5.9107 O.2       1 RES1    0.0000
      3 N1         0.3417   13.6409    9.5427 N.ar      1 RES1    0.0000
      4 C1         0.7096   12.6812   10.3889 C.ar      1 RES1    0.0000
      5 C2         0.9531   13.1673   11.7823 C.ar      1 RES1    0.0000
      6 N2         1.0931    5.4572    7.4282 N.pl3     1 RES1    0.0000
      7 C3         0.9542    6.8999    7.7125 C.ar      1 RES1    0.0000
      8 C4         1.9502    7.7493    7.3149 C.ar      1 RES1    0.0000
      9 H1         2.7027    7.4292    6.8732 H         1 RES1    0.0000
     10 C5         1.8047    9.1084    7.5894 C.ar      1 RES1    0.0000
     11 H2         2.4607    9.7056    7.3149 H         1 RES1    0.0000
     12 C6         0.6914    9.5773    8.2656 C.ar      1 RES1    0.0000
     13 C7         0.5771   11.0133    8.6770 C.ar      1 RES1    0.0000
     14 C8         0.8930   11.3407   10.0059 C.ar      1 RES1    0.0000
     15 C9         0.6026   12.4747   12.9129 C.ar      1 RES1    0.0000
     16 H3         0.2181   11.6318   12.8357 H         1 RES1    0.0000
     17 C10        0.8169   13.0249   14.1783 C.ar      1 RES1    0.0000
     18 H4         0.5656   12.5479   14.9355 H         1 RES1    0.0000
     19 C11        1.3893   14.2533   14.3160 C.ar      1 RES1    0.0000
     20 H5         1.5321   14.6100   15.1632 H         1 RES1    0.0000
     21 C12       -0.2882    8.6834    8.6399 C.ar      1 RES1    0.0000
     22 H6        -1.0405    8.9947    9.0913 H         1 RES1    0.0000
     23 C13       -0.1785    7.3246    8.3584 C.ar      1 RES1    0.0000
     24 H7        -0.8497    6.7261    8.5988 H         1 RES1    0.0000
     25 C14        0.1994   12.0213    7.7761 C.ar      1 RES1    0.0000
     26 C15       -0.1316   11.7612    6.3455 C.2       1 RES1    0.0000
     27 C16       -0.1925   12.9452    5.4251 C.3       1 RES1    0.0000
     28 H8        -0.6762   12.6956    4.6219 H         1 RES1    0.0000
     29 H9         0.7089   13.1908    5.1661 H         1 RES1    0.0000
     30 C17       -0.8831   14.1696    6.0651 C.3       1 RES1    0.0000
     31 C18       -0.8993   15.3510    5.1046 C.3       1 RES1    0.0000
     32 H10       -1.2998   16.1089    5.5355 H         1 RES1    0.0000
     33 H11       -1.4063   15.1210    4.3229 H         1 RES1    0.0000
     34 H12        0.0003   15.5679    4.8486 H         1 RES1    0.0000
     35 C19       -2.3300   13.7985    6.3866 C.3       1 RES1    0.0000
     36 H13       -2.3423   13.0536    6.9924 H         1 RES1    0.0000
     37 H14       -2.7869   13.5594    5.5765 H         1 RES1    0.0000
     38 H15       -2.7712   14.5486    6.7931 H         1 RES1    0.0000
     39 C20       -0.1386   14.5003    7.3324 C.3       1 RES1    0.0000
     40 H16       -0.6468   15.1680    7.8191 H         1 RES1    0.0000
     41 H17        0.7125   14.9001    7.0921 H         1 RES1    0.0000
     42 C21        0.1270   13.3320    8.2617 C.ar      1 RES1    0.0000
     43 C22        1.5064   10.3041   10.9058 C.3       1 RES1    0.0000
     44 H18        2.0003   10.7380   11.6045 H         1 RES1    0.0000
     45 H19        2.0968    9.7461   10.3958 H         1 RES1    0.0000
     46 H20        0.8127    9.7657   11.2928 H         1 RES1    0.0000
     47 C23        1.7551   14.9602   13.2041 C.ar      1 RES1    0.0000
     48 H21        2.1538   15.7940   13.2969 H         1 RES1    0.0000
     49 C24        1.5348   14.4414   11.9406 C.ar      1 RES1    0.0000
     50 H22        1.7721   14.9367   11.1902 H         1 RES1    0.0000
     51 O3         2.0565    5.0730    6.8693 O.2       1 RES1    0.0000
@<TRIPOS>BOND
     1    1    6 2
     2    2   26 2
     3    3    4 ar
     4    4    5 1
     5    5   15 ar
     6    6    7 1
     7    7    8 ar
     8    8    9 1
     9   10    8 ar
    10   11   10 1
    11   12   10 ar
    12   13   12 1
    13   14    4 ar
    14   15   16 1
    15   17   15 ar
    16   18   17 1
    17   19   17 ar
    18   20   19 1
    19   21   12 ar
    20   22   21 1
    21   23    7 ar
    22   24   23 1
    23   25   13 ar
    24   26   25 1
    25   27   26 1
    26   28   27 1
    27   29   27 1
    28   30   27 1
    29   31   30 1
    30   32   31 1
    31   33   31 1
    32   34   31 1
    33   35   30 1
    34   36   35 1
    35   37   35 1
    36   38   35 1
    37   39   30 1
    38   40   39 1
    39   41   39 1
    40   42    3 ar
    41   43   14 1
    42   44   43 1
    43   45   43 1
    44   46   43 1
    45   47   19 ar
    46   48   47 1
    47   49    5 ar
    48   50   49 1
    49   51    6 2
    50   13   14 ar
    51   21   23 ar
    52   25   42 ar
    53   39   42 1
    54   47   49 ar
@<TRIPOS>SUBSTRUCTURE
     1 RES1 1

@<TRIPOS>CRYSIN
  16.0558   13.0680   11.5754  90.0000 122.4190  90.0000   9 1

