# MOL2 file generated by ConQuest
# Please check atom types

@<TRIPOS>MOLECULE
VIDGUK
    40    40     1
SMALL
NO_CHARGES
****
Generated from CSD

@<TRIPOS>ATOM
      1 O1         2.0904   10.3107   -0.5934 O.2       1 RES1    0.0000
      2 O2         2.3303    5.9949    1.0888 O.2       1 RES1    0.0000
      3 O3         3.9195   11.1161    1.0831 O.3       1 RES1    0.0000
      4 N1         3.6647    7.6383    1.9094 N.am      1 RES1    0.0000
      5 N2         2.5498    9.4256    0.2106 N.pl3     1 RES1    0.0000
      6 C1         2.1024    8.1600    0.1816 C.2       1 RES1    0.0000
      7 C2         2.6951    7.1909    1.0921 C.2       1 RES1    0.0000
      8 C3         4.0762    8.9327    1.9784 C.2       1 RES1    0.0000
      9 C4         3.5394    9.8256    1.1249 C.2       1 RES1    0.0000
     10 C5         0.9994    7.7886   -0.7132 C.3       1 RES1    0.0000
     11 C6        -0.3779    7.7927   -0.0290 C.3       1 RES1    0.0000
     12 C7        -0.6944    9.1256    0.6228 C.3       1 RES1    0.0000
     13 C8        -1.4493    7.4032   -1.0175 C.3       1 RES1    0.0000
     14 C9         5.1353    9.3137    2.9426 C.3       1 RES1    0.0000
     15 C10        6.5029    9.5543    2.3107 C.3       1 RES1    0.0000
     16 C11        7.0587    8.2685    1.7449 C.3       1 RES1    0.0000
     17 C12        7.4651   10.1632    3.3234 C.3       1 RES1    0.0000
     18 C13        2.9623   12.0368    1.7116 C.3       1 RES1    0.0000
     19 H1         1.1350    6.8990   -1.0412 H         1 RES1    0.0000
     20 H2         0.9051    8.4559   -1.4787 H         1 RES1    0.0000
     21 H3        -0.3008    7.0620    0.7322 H         1 RES1    0.0000
     22 H4         5.2006    8.5935    3.7989 H         1 RES1    0.0000
     23 H5         4.8740   10.0896    3.3567 H         1 RES1    0.0000
     24 H6         6.4405   10.2063    1.6070 H         1 RES1    0.0000
     25 H7         7.1638    7.5947    2.3773 H         1 RES1    0.0000
     26 H8         6.4123    7.8325    1.0935 H         1 RES1    0.0000
     27 H9         7.9468    8.5429    1.3313 H         1 RES1    0.0000
     28 H10        7.6162    9.5262    4.1364 H         1 RES1    0.0000
     29 H11        7.1122   11.0485    3.5659 H         1 RES1    0.0000
     30 H12        8.3929   10.3827    2.8052 H         1 RES1    0.0000
     31 H13        2.2146   12.0259    1.2362 H         1 RES1    0.0000
     32 H14        2.9182   11.7887    2.8527 H         1 RES1    0.0000
     33 H15        3.4525   12.9068    1.7116 H         1 RES1    0.0000
     34 H16       -0.7310    9.8005   -0.1902 H         1 RES1    0.0000
     35 H17       -0.0341    9.5724    1.1173 H         1 RES1    0.0000
     36 H18       -1.5239    9.0989    1.1839 H         1 RES1    0.0000
     37 H19       -1.2970    6.5257   -1.3313 H         1 RES1    0.0000
     38 H20       -1.4683    8.0796   -1.8543 H         1 RES1    0.0000
     39 H21       -2.3093    7.3580   -0.5230 H         1 RES1    0.0000
     40 H22        4.0633    7.0115    2.6625 H         1 RES1    0.0000
@<TRIPOS>BOND
     1    1    5 1
     2    2    7 2
     3    3    9 1
     4    4    7 1
     5    5    6 2
     6    6    7 1
     7    8    4 1
     8    9    5 1
     9   10    6 1
    10   11   10 1
    11   12   11 1
    12   13   11 1
    13   14    8 1
    14   15   14 1
    15   16   15 1
    16   17   15 1
    17   18    3 1
    18   19   10 1
    19   20   10 1
    20   21   11 1
    21   22   14 1
    22   23   14 1
    23   24   15 1
    24   25   16 1
    25   26   16 1
    26   27   16 1
    27   28   17 1
    28   29   17 1
    29   30   17 1
    30   31   18 1
    31   32   18 1
    32   33   18 1
    33   34   12 1
    34   35   12 1
    35   36   12 1
    36   37   13 1
    37   38   13 1
    38   39   13 1
    39   40    4 1
    40    8    9 2
@<TRIPOS>SUBSTRUCTURE
     1 RES1 1

@<TRIPOS>CRYSIN
  12.0720   13.1580    4.7925  94.4400  93.6900 111.1600   2 1

