# MOL2 file generated by ConQuest
# Please check atom types

@<TRIPOS>MOLECULE
VIDYOW
    25    26     1
SMALL
NO_CHARGES
****
Generated from CSD

@<TRIPOS>ATOM
      1 C1         4.0039    6.6711    9.9444 C.ar      1 RES1    0.0000
      2 C2         4.3032    5.3008    9.7033 C.ar      1 RES1    0.0000
      3 C3         3.4713    4.5414    8.9511 C.ar      1 RES1    0.0000
      4 C4         2.3017    5.0733    8.4059 C.ar      1 RES1    0.0000
      5 C5         2.0188    6.4342    8.6344 C.ar      1 RES1    0.0000
      6 C6         2.8447    7.2180    9.3866 C.ar      1 RES1    0.0000
      7 N1         4.8781    7.3816   10.6948 N.3       1 RES1    0.0000
      8 N2         1.3483    4.3985    7.6277 N.2       1 RES1    0.0000
      9 O1         1.6135    3.1805    7.4819 O.2       1 RES1    0.0000
     10 C7         4.6731    8.7049   11.1824 C.ar      1 RES1    0.0000
     11 C8         5.6856    9.6410   11.0061 C.ar      1 RES1    0.0000
     12 C9         5.5471   10.9079   11.5531 C.ar      1 RES1    0.0000
     13 C10        4.4302   11.2331   12.2639 C.ar      1 RES1    0.0000
     14 C11        3.4318   10.3064   12.4258 C.ar      1 RES1    0.0000
     15 C12        3.5462    9.0395   11.8923 C.ar      1 RES1    0.0000
     16 H1         5.7180    6.9361   10.9494 H         1 RES1    0.0000
     17 H2         5.1914    4.9436   10.1666 H         1 RES1    0.0000
     18 H3         3.6648    3.6278    8.7541 H         1 RES1    0.0000
     19 H4         1.1927    6.7857    8.2233 H         1 RES1    0.0000
     20 H5         2.6307    8.1955    9.5458 H         1 RES1    0.0000
     21 H6         6.4863    9.3609   10.4815 H         1 RES1    0.0000
     22 H7         6.2757   11.5790   11.3722 H         1 RES1    0.0000
     23 H8         4.3034   12.1429   12.6858 H         1 RES1    0.0000
     24 H9         2.6511   10.5451   12.9017 H         1 RES1    0.0000
     25 H10        2.8233    8.3835   11.9661 H         1 RES1    0.0000
@<TRIPOS>BOND
     1    1    2 ar
     2    2    3 ar
     3    3    4 ar
     4    4    5 ar
     5    5    6 ar
     6    6    1 ar
     7    7    1 1
     8    8    4 1
     9    9    8 2
    10   10    7 1
    11   11   10 ar
    12   12   11 ar
    13   13   12 ar
    14   14   13 ar
    15   15   10 ar
    16   16    7 1
    17   17    2 1
    18   18    3 1
    19   19    5 1
    20   20    6 1
    21   21   11 1
    22   22   12 1
    23   23   13 1
    24   24   14 1
    25   25   15 1
    26   14   15 ar
@<TRIPOS>SUBSTRUCTURE
     1 RES1 1

@<TRIPOS>CRYSIN
   5.9320   18.7970    9.0190  90.0000  94.0000  90.0000  14 1

