# MOL2 file generated by ConQuest
# Please check atom types

@<TRIPOS>MOLECULE
VIFBUK
    38    39     1
SMALL
NO_CHARGES
****
Generated from CSD

@<TRIPOS>ATOM
      1 C1        12.6626    5.5649    5.6466 C.ar      1 RES1    0.0000
      2 H1        12.4450    5.9444    4.8264 H         1 RES1    0.0000
      3 C2        13.9849    5.4945    6.0481 C.ar      1 RES1    0.0000
      4 H2        14.6555    5.8314    5.4979 H         1 RES1    0.0000
      5 C3        14.3151    4.9251    7.2676 C.ar      1 RES1    0.0000
      6 H3        15.2048    4.8642    7.5318 H         1 RES1    0.0000
      7 C4        13.3113    4.4490    8.0855 C.ar      1 RES1    0.0000
      8 H4        13.5319    4.0734    8.9069 H         1 RES1    0.0000
      9 C5        11.9991    4.5186    7.7126 C.ar      1 RES1    0.0000
     10 H5        11.3320    4.2031    8.2800 H         1 RES1    0.0000
     11 C6        11.6684    5.0698    6.4657 C.ar      1 RES1    0.0000
     12 C7         9.8069    4.8215    5.0117 C.2       1 RES1    0.0000
     13 C8         8.3752    5.0374    4.6696 C.ar      1 RES1    0.0000
     14 C9         7.5760    5.8654    5.4247 C.ar      1 RES1    0.0000
     15 H6         7.9490    6.3485    6.1271 H         1 RES1    0.0000
     16 C10        6.2173    5.9895    5.1524 C.ar      1 RES1    0.0000
     17 H7         5.6879    6.5565    5.6649 H         1 RES1    0.0000
     18 C11        5.6517    5.2596    4.1057 C.ar      1 RES1    0.0000
     19 H8         4.7399    5.3165    3.9318 H         1 RES1    0.0000
     20 C12        6.4636    4.4498    3.3289 C.ar      1 RES1    0.0000
     21 H9         6.0932    3.9714    2.6231 H         1 RES1    0.0000
     22 C13        7.8219    4.3439    3.5909 C.ar      1 RES1    0.0000
     23 H10        8.3626    3.8140    3.0498 H         1 RES1    0.0000
     24 C14       10.6835    4.0963    4.0107 C.2       1 RES1    0.0000
     25 C15       11.1212    2.6950    4.2773 C.2       1 RES1    0.0000
     26 C16       10.8534    0.8825    5.7770 C.3       1 RES1    0.0000
     27 H11       10.9825    0.3084    5.0060 H         1 RES1    0.0000
     28 H12       10.1437    0.5014    6.3192 H         1 RES1    0.0000
     29 C17       12.1254    0.9324    6.5812 C.3       1 RES1    0.0000
     30 H13       12.8520    1.2020    6.0138 H         1 RES1    0.0000
     31 H14       12.0272    1.5658    7.2950 H         1 RES1    0.0000
     32 H15       12.3078    0.0641    6.9438 H         1 RES1    0.0000
     33 N1        10.2654    5.2043    6.1568 N.2       1 RES1    0.0000
     34 N2        11.0777    4.6119    2.8908 N.2       1 RES1    0.0000
     35 O1        10.6664    5.9215    2.7627 O.3       1 RES1    0.0000
     36 H16       11.0666    6.2449    2.0122 H         1 RES1    0.0000
     37 O2        11.9354    2.0893    3.6218 O.2       1 RES1    0.0000
     38 O3        10.4583    2.2087    5.3309 O.3       1 RES1    0.0000
@<TRIPOS>BOND
     1    1    2 1
     2    3    1 ar
     3    4    3 1
     4    5    3 ar
     5    6    5 1
     6    7    5 ar
     7    8    7 1
     8    9    7 ar
     9   10    9 1
    10   11    1 ar
    11   12   13 1
    12   13   14 ar
    13   14   15 1
    14   16   14 ar
    15   17   16 1
    16   18   16 ar
    17   19   18 1
    18   20   18 ar
    19   21   20 1
    20   22   13 ar
    21   23   22 1
    22   24   12 1
    23   25   24 1
    24   26   27 1
    25   28   26 1
    26   29   26 1
    27   30   29 1
    28   31   29 1
    29   32   29 1
    30   33   11 1
    31   34   24 2
    32   35   34 1
    33   36   35 1
    34   37   25 2
    35   38   25 1
    36    9   11 ar
    37   12   33 2
    38   20   22 ar
    39   26   38 1
@<TRIPOS>SUBSTRUCTURE
     1 RES1 1

@<TRIPOS>CRYSIN
  16.5350    7.9080   11.8830  90.0000 105.7010  90.0000  14 1

