# MOL2 file generated by ConQuest
# Please check atom types

@<TRIPOS>MOLECULE
VIFBAN
    31    32     1
SMALL
NO_CHARGES
****
Generated from CSD

@<TRIPOS>ATOM
      1 O1         0.3613    5.6338   16.1903 O.2       1 RES1    0.0000
      2 N1        -0.0181    5.0561   15.1940 N.pl3     1 RES1    0.0000
      3 O2        -0.5082    3.9402   15.2131 O.2       1 RES1    0.0000
      4 C1         0.1462    5.7177   13.8926 C.ar      1 RES1    0.0000
      5 C2        -0.0599    4.9919   12.7342 C.ar      1 RES1    0.0000
      6 C3         0.0822    5.6289   11.5203 C.ar      1 RES1    0.0000
      7 C4         0.4198    6.9694   11.4694 C.ar      1 RES1    0.0000
      8 C5         0.6384    7.6804   12.6548 C.ar      1 RES1    0.0000
      9 C6         0.5103    7.0460   13.8815 C.ar      1 RES1    0.0000
     10 C7         1.0464    9.0951   12.6564 C.2       1 RES1    0.0000
     11 O3         1.3534    9.7221   13.6225 O.2       1 RES1    0.0000
     12 O4         1.0979    9.6160   11.3804 O.3       1 RES1    0.0000
     13 C8         0.8737   10.9615   11.1532 C.2       1 RES1    0.0000
     14 O5         0.3432   11.6824   11.9350 O.2       1 RES1    0.0000
     15 C9         1.3144   11.3491    9.7882 C.ar      1 RES1    0.0000
     16 C10        1.2733   12.6946    9.4418 C.ar      1 RES1    0.0000
     17 C11        1.6131   13.0995    8.1611 C.ar      1 RES1    0.0000
     18 C12        1.9723   12.1687    7.2045 C.ar      1 RES1    0.0000
     19 C13        2.0148   10.8380    7.5859 C.ar      1 RES1    0.0000
     20 C14        1.7064   10.4011    8.8555 C.ar      1 RES1    0.0000
     21 N2         2.4249    9.8283    6.6023 N.pl3     1 RES1    0.0000
     22 O6         2.4367   10.1394    5.4296 O.2       1 RES1    0.0000
     23 O7         2.7082    8.7149    6.9900 O.2       1 RES1    0.0000
     24 H1        -0.3829    4.0760   12.8153 H         1 RES1    0.0000
     25 H2        -0.0975    5.1228   10.5827 H         1 RES1    0.0000
     26 H3         0.5570    7.3817   10.5891 H         1 RES1    0.0000
     27 H4         0.6892    7.5447   14.7014 H         1 RES1    0.0000
     28 H5         0.9677   13.3710   10.1076 H         1 RES1    0.0000
     29 H6         1.5247   13.9734    7.9243 H         1 RES1    0.0000
     30 H7         2.1721   12.4526    6.2050 H         1 RES1    0.0000
     31 H8         1.7892    9.4580    9.0859 H         1 RES1    0.0000
@<TRIPOS>BOND
     1    1    2 2
     2    2    3 2
     3    4    2 1
     4    5    4 ar
     5    6    5 ar
     6    7    6 ar
     7    8    7 ar
     8    9    4 ar
     9   10    8 1
    10   11   10 2
    11   12   10 1
    12   13   12 1
    13   14   13 2
    14   15   13 1
    15   16   15 ar
    16   17   16 ar
    17   18   17 ar
    18   19   18 ar
    19   20   15 ar
    20   21   19 1
    21   22   21 2
    22   23   21 2
    23   24    5 1
    24   25    6 1
    25   26    7 1
    26   27    9 1
    27   28   16 1
    28   29   17 1
    29   30   18 1
    30   31   20 1
    31    8    9 ar
    32   19   20 ar
@<TRIPOS>SUBSTRUCTURE
     1 RES1 1

@<TRIPOS>CRYSIN
   6.9620   24.6880   15.8900  90.0000  90.0000  90.0000  61 1

