# MOL2 file generated by ConQuest
# Please check atom types

@<TRIPOS>MOLECULE
VIFDUJ
    33    33     1
SMALL
NO_CHARGES
****
Generated from CSD

@<TRIPOS>ATOM
      1 O1         0.3487   -4.0951   -3.4755 O.2       1 RES1    0.0000
      2 N1        -0.0917   -3.2823   -2.6063 N.3       1 RES1    0.0000
      3 C1        -0.7297   -3.7185   -1.3526 C.3       1 RES1    0.0000
      4 C2        -2.0034   -4.5157   -1.6946 C.3       1 RES1    0.0000
      5 C3         0.2422   -4.5577   -0.5427 C.3       1 RES1    0.0000
      6 C4        -1.0221   -2.3404   -0.7872 C.2       1 RES1    0.0000
      7 N2        -0.7290   -1.3612   -1.5406 N.2       1 RES1    0.0000
      8 C5        -0.1527   -1.8122   -2.7985 C.3       1 RES1    0.0000
      9 C6        -1.0494   -1.4640   -3.9730 C.3       1 RES1    0.0000
     10 C7         1.2379   -1.2388   -2.9963 C.3       1 RES1    0.0000
     11 C8        -1.5784   -2.0881    0.6077 C.3       1 RES1    0.0000
     12 C9        -0.4614   -1.6060    1.5038 C.3       1 RES1    0.0000
     13 C10       -2.6936   -1.0522    0.5470 C.3       1 RES1    0.0000
     14 O2        -2.0900   -3.3121    1.0954 O.3       1 RES1    0.0000
     15 H1        -1.6337   -5.3962   -2.1342 H         1 RES1    0.0000
     16 H2        -2.5111   -4.7335   -0.8198 H         1 RES1    0.0000
     17 H3        -2.6431   -4.0234   -2.2897 H         1 RES1    0.0000
     18 H4         1.0883   -4.0505   -0.2685 H         1 RES1    0.0000
     19 H5        -0.0535   -4.8281    0.4099 H         1 RES1    0.0000
     20 H6         0.2740   -5.3556   -1.1166 H         1 RES1    0.0000
     21 H7        -1.9967   -1.8663   -3.8585 H         1 RES1    0.0000
     22 H8        -1.1139   -0.3787   -4.0564 H         1 RES1    0.0000
     23 H9        -0.5198   -1.8663   -4.8903 H         1 RES1    0.0000
     24 H10        1.8450   -1.5147   -2.2755 H         1 RES1    0.0000
     25 H11        1.6349   -1.5620   -3.8444 H         1 RES1    0.0000
     26 H12        1.2677   -0.2299   -2.9539 H         1 RES1    0.0000
     27 H13       -0.8133   -1.6026    2.3745 H         1 RES1    0.0000
     28 H14       -0.2315   -0.7912    1.2014 H         1 RES1    0.0000
     29 H15        0.3599   -2.1774    1.5123 H         1 RES1    0.0000
     30 H16       -2.9973   -0.8723    1.5688 H         1 RES1    0.0000
     31 H17       -2.3437   -0.2434    0.1555 H         1 RES1    0.0000
     32 H18       -3.4676   -1.1766   -0.0989 H         1 RES1    0.0000
     33 H19       -2.4718   -3.0903    1.9504 H         1 RES1    0.0000
@<TRIPOS>BOND
     1    1    2 1
     2    2    3 1
     3    3    4 1
     4    4   15 1
     5    5    3 1
     6    6    3 1
     7    7    6 2
     8    8    2 1
     9    9    8 1
    10   10    8 1
    11   11    6 1
    12   12   11 1
    13   13   11 1
    14   14   11 1
    15   16    4 1
    16   17    4 1
    17   18    5 1
    18   19    5 1
    19   20    5 1
    20   21    9 1
    21   22    9 1
    22   23    9 1
    23   24   10 1
    24   25   10 1
    25   26   10 1
    26   27   12 1
    27   28   12 1
    28   29   12 1
    29   30   13 1
    30   31   13 1
    31   32   13 1
    32   33   14 1
    33    7    8 1
@<TRIPOS>SUBSTRUCTURE
     1 RES1 1

