# MOL2 file generated by ConQuest
# Please check atom types

@<TRIPOS>MOLECULE
VIFSAF
    20    21     1
SMALL
NO_CHARGES
****
Generated from CSD

@<TRIPOS>ATOM
      1 O1         2.2655    8.9558   11.2358 O.2       1 RES1    0.0000
      2 O2         2.0719   10.3128    9.5588 O.2       1 RES1    0.0000
      3 N1        -1.2971    5.4066    7.7527 N.pl3     1 RES1    0.0000
      4 H1        -1.6505    5.2726    6.9807 H         1 RES1    0.0000
      5 N2        -0.7140    5.0146    9.8490 N.2       1 RES1    0.0000
      6 N3         1.8329    9.2591   10.1275 N.pl3     1 RES1    0.0000
      7 C1        -2.0868    3.2617    8.7457 C.3       1 RES1    0.0000
      8 H2        -1.6251    2.6137    9.2812 H         1 RES1    0.0000
      9 H3        -2.1200    2.9603    7.8348 H         1 RES1    0.0000
     10 H4        -2.9823    3.3720    9.0779 H         1 RES1    0.0000
     11 C2        -0.5715    6.5076    8.0997 C.ar      1 RES1    0.0000
     12 C3        -1.3812    4.5458    8.8121 C.2       1 RES1    0.0000
     13 C4        -0.1760    6.2318    9.4493 C.ar      1 RES1    0.0000
     14 C5         0.6366    7.1300   10.1119 C.ar      1 RES1    0.0000
     15 H5         0.9299    6.9724   10.9797 H         1 RES1    0.0000
     16 C6         0.9861    8.2467    9.4425 C.ar      1 RES1    0.0000
     17 C7         0.5746    8.5520    8.1427 C.ar      1 RES1    0.0000
     18 H6         0.8290    9.3536    7.7459 H         1 RES1    0.0000
     19 C8        -0.2007    7.6657    7.4635 C.ar      1 RES1    0.0000
     20 H7        -0.4724    7.8390    6.5908 H         1 RES1    0.0000
@<TRIPOS>BOND
     1    1    6 2
     2    2    6 2
     3    3    4 1
     4    5   12 2
     5    6   16 1
     6    7    8 1
     7    9    7 1
     8   10    7 1
     9   11    3 1
    10   12    3 1
    11   13    5 1
    12   14   13 ar
    13   15   14 1
    14   16   14 ar
    15   17   16 ar
    16   18   17 1
    17   19   11 ar
    18   20   19 1
    19    7   12 1
    20   11   13 ar
    21   17   19 ar
@<TRIPOS>SUBSTRUCTURE
     1 RES1 1

@<TRIPOS>CRYSIN
   4.2370   19.6960    9.9240  90.0000 100.0150  90.0000   9 1

