# MOL2 file generated by ConQuest
# Please check atom types

@<TRIPOS>MOLECULE
VIGDAS
    40    43     1
SMALL
NO_CHARGES
****
Generated from CSD

@<TRIPOS>ATOM
      1 O1         4.2767    0.8775    8.6528 O.2       1 RES1    0.0000
      2 O2         6.9743   -4.2810    7.8124 O.2       1 RES1    0.0000
      3 O3         6.0450   -6.1042    7.0858 O.2       1 RES1    0.0000
      4 N1         5.6570   -3.7642    5.1331 N.3       1 RES1    0.0000
      5 N2         7.5123   -2.2048    5.6560 N.2       1 RES1    0.0000
      6 N3         6.8925   -5.2181    7.0270 N.pl3     1 RES1    0.0000
      7 C1         4.9843    0.1188    8.0019 C.2       1 RES1    0.0000
      8 C2         6.4412    0.3300    7.9356 C.2       1 RES1    0.0000
      9 H1         6.8259    1.0527    8.4185 H         1 RES1    0.0000
     10 C3         7.2340   -0.4659    7.2156 C.2       1 RES1    0.0000
     11 H2         8.1716   -0.3137    7.2217 H         1 RES1    0.0000
     12 C4         6.6978   -1.5625    6.4200 C.2       1 RES1    0.0000
     13 C5         5.2711   -1.8471    6.5111 C.ar      1 RES1    0.0000
     14 C6         4.4217   -1.0396    7.2725 C.ar      1 RES1    0.0000
     15 C7         3.0627   -1.3339    7.3467 C.ar      1 RES1    0.0000
     16 H3         2.4800   -0.7907    7.8642 H         1 RES1    0.0000
     17 C8         2.5745   -2.4245    6.6596 C.ar      1 RES1    0.0000
     18 H4         1.6459   -2.6212    6.7019 H         1 RES1    0.0000
     19 C9         3.4046   -3.2418    5.9096 C.ar      1 RES1    0.0000
     20 H5         3.0438   -3.9924    5.4526 H         1 RES1    0.0000
     21 C10        4.7810   -2.9625    5.8221 C.ar      1 RES1    0.0000
     22 C11        7.0033   -3.2612    4.7783 C.3       1 RES1    0.0000
     23 C12        7.9886   -4.4304    4.9246 C.ar      1 RES1    0.0000
     24 C13        9.0118   -4.6416    4.0048 C.ar      1 RES1    0.0000
     25 H6         9.0930   -4.0571    3.2604 H         1 RES1    0.0000
     26 C14        9.9156   -5.6834    4.1497 C.ar      1 RES1    0.0000
     27 H7        10.6120   -5.7937    3.5131 H         1 RES1    0.0000
     28 C15        9.8133   -6.5605    5.2094 C.ar      1 RES1    0.0000
     29 H8        10.4312   -7.2765    5.3000 H         1 RES1    0.0000
     30 C16        8.8002   -6.3884    6.1417 C.ar      1 RES1    0.0000
     31 H9         8.7098   -6.9838    6.8760 H         1 RES1    0.0000
     32 C17        7.9283   -5.3335    5.9783 C.ar      1 RES1    0.0000
     33 C18        5.1217   -4.8255    4.2874 C.3       1 RES1    0.0000
     34 H10        5.8501   -5.3135    3.8338 H         1 RES1    0.0000
     35 H11        4.6337   -5.4897    4.8995 H         1 RES1    0.0000
     36 H12        4.4959   -4.4629    3.5489 H         1 RES1    0.0000
     37 C19        6.9888   -2.6647    3.3648 C.3       1 RES1    0.0000
     38 H13        6.3449   -1.9258    3.3283 H         1 RES1    0.0000
     39 H14        6.7294   -3.3569    2.7215 H         1 RES1    0.0000
     40 H15        7.8823   -2.3301    3.1424 H         1 RES1    0.0000
@<TRIPOS>BOND
     1    1    7 2
     2    2    6 2
     3    3    6 2
     4    4   21 1
     5    5   12 2
     6    6   32 1
     7    7    8 1
     8    8    9 1
     9   10    8 2
    10   11   10 1
    11   12   10 1
    12   13   12 1
    13   14    7 1
    14   15   14 ar
    15   16   15 1
    16   17   15 ar
    17   18   17 1
    18   19   17 ar
    19   20   19 1
    20   21   13 ar
    21   22    4 1
    22   23   22 1
    23   24   23 ar
    24   25   24 1
    25   26   24 ar
    26   27   26 1
    27   28   26 ar
    28   29   28 1
    29   30   28 ar
    30   31   30 1
    31   32   23 ar
    32   33    4 1
    33   34   33 1
    34   35   33 1
    35   36   33 1
    36   37   22 1
    37   38   37 1
    38   39   37 1
    39   40   37 1
    40    5   22 1
    41   13   14 ar
    42   19   21 ar
    43   30   32 ar
@<TRIPOS>SUBSTRUCTURE
     1 RES1 1

@<TRIPOS>CRYSIN
   8.4799   16.1700   11.9214  90.0000  90.5220  90.0000 231 1

