# MOL2 file generated by ConQuest
# Please check atom types

@<TRIPOS>MOLECULE
VIGKIH
    18    19     1
SMALL
NO_CHARGES
****
Generated from CSD

@<TRIPOS>ATOM
      1 C1         3.0533    6.7931    7.4663 C.2       1 RES1    0.0000
      2 C2         2.7579    5.0641    5.9839 C.2       1 RES1    0.0000
      3 C3         3.4130    4.5081    7.1717 C.ar      1 RES1    0.0000
      4 C4         3.8317    3.2191    7.4790 C.ar      1 RES1    0.0000
      5 H1         3.7232    2.5049    6.8619 H         1 RES1    0.0000
      6 C5         4.4166    3.0161    8.7267 C.ar      1 RES1    0.0000
      7 H2         4.7253    2.1483    8.9585 H         1 RES1    0.0000
      8 C6         4.5598    4.0578    9.6455 C.ar      1 RES1    0.0000
      9 H3         4.9429    3.8829   10.4970 H         1 RES1    0.0000
     10 C7         4.1491    5.3472    9.3296 C.ar      1 RES1    0.0000
     11 H4         4.2496    6.0612    9.9472 H         1 RES1    0.0000
     12 C8         3.5868    5.5543    8.0780 C.ar      1 RES1    0.0000
     13 N1         2.5958    6.4329    6.2139 N.am      1 RES1    0.0000
     14 H5         2.2466    6.9947    5.6331 H         1 RES1    0.0000
     15 N2         2.3743    4.3992    4.9617 N.2       1 RES1    0.0000
     16 O1         2.9978    7.9192    7.9438 O.2       1 RES1    0.0000
     17 O2         1.7740    5.2538    4.0187 O.3       1 RES1    0.0000
     18 H6         1.4271    4.7956    3.4053 H         1 RES1    0.0000
@<TRIPOS>BOND
     1    1   12 1
     2    2    3 1
     3    3    4 ar
     4    4    5 1
     5    6    4 ar
     6    7    6 1
     7    8    6 ar
     8    9    8 1
     9   10    8 ar
    10   11   10 1
    11   12    3 ar
    12   13    1 1
    13   14   13 1
    14   15    2 2
    15   16    1 2
    16   17   15 1
    17   18   17 1
    18    2   13 1
    19   10   12 ar
@<TRIPOS>SUBSTRUCTURE
     1 RES1 1

@<TRIPOS>CRYSIN
   3.7784    9.0723   20.5140  90.0000  90.0000  90.0000  19 1

