# MOL2 file generated by ConQuest
# Please check atom types

@<TRIPOS>MOLECULE
VIGPIN
    32    33     1
SMALL
NO_CHARGES
****
Generated from CSD

@<TRIPOS>ATOM
      1 O1         1.5607    6.9405    1.9992 O.2       1 RES1    0.0000
      2 O2         2.2557    7.7776    3.8459 O.2       1 RES1    0.0000
      3 O3        -0.3800    6.1488    4.8338 O.3       1 RES1    0.0000
      4 O4        -0.3002    4.9055    6.7869 O.3       1 RES1    0.0000
      5 O5         4.0764    7.2102    7.8405 O.2       1 RES1    0.0000
      6 O6         4.4596    6.2616    9.6783 O.2       1 RES1    0.0000
      7 N1         1.8719    6.8391    3.1773 N.pl3     1 RES1    0.0000
      8 N2         1.6800    2.1431    7.0782 N.1       1 RES1    0.0000
      9 N3         3.9486    6.2813    8.6046 N.pl3     1 RES1    0.0000
     10 C1         1.7331    5.4586    3.8336 C.3       1 RES1    0.0000
     11 C2         0.2418    5.2103    3.9704 C.3       1 RES1    0.0000
     12 H1        -0.1718    5.2610    3.0943 H         1 RES1    0.0000
     13 H2         0.0979    4.3152    4.3162 H         1 RES1    0.0000
     14 C3         0.1083    6.1292    6.1411 C.3       1 RES1    0.0000
     15 H3        -0.2911    6.8805    6.6281 H         1 RES1    0.0000
     16 C4         0.6931    4.4797    7.7043 C.3       1 RES1    0.0000
     17 H4         0.2950    4.4145    8.5972 H         1 RES1    0.0000
     18 C5         1.2371    3.1582    7.3224 C.1       1 RES1    0.0000
     19 C6         1.7668    5.5942    7.7132 C.3       1 RES1    0.0000
     20 H5         1.4699    6.2741    8.3546 H         1 RES1    0.0000
     21 C7         3.1323    5.1161    8.1733 C.3       1 RES1    0.0000
     22 H6         3.0312    4.4952    8.9119 H         1 RES1    0.0000
     23 H7         3.5797    4.6535    7.4474 H         1 RES1    0.0000
     24 C8         1.6261    6.2078    6.3062 C.3       1 RES1    0.0000
     25 H8         1.9108    7.1454    6.3222 H         1 RES1    0.0000
     26 C9         2.3958    5.4493    5.2155 C.3       1 RES1    0.0000
     27 H9         3.2808    5.8374    5.1355 H         1 RES1    0.0000
     28 H10        2.5047    4.5273    5.4994 H         1 RES1    0.0000
     29 C10        2.3886    4.4549    2.9056 C.3       1 RES1    0.0000
     30 H11        1.9419    4.4652    2.0570 H         1 RES1    0.0000
     31 H12        2.3283    3.5773    3.2894 H         1 RES1    0.0000
     32 H13        3.3126    4.6877    2.7831 H         1 RES1    0.0000
@<TRIPOS>BOND
     1    1    7 2
     2    2    7 2
     3    3   11 1
     4    4   14 1
     5    5    9 2
     6    6    9 2
     7    7   10 1
     8    8   18 3
     9    9   21 1
    10   10   11 1
    11   11   12 1
    12   13   11 1
    13   14    3 1
    14   15   14 1
    15   16    4 1
    16   17   16 1
    17   18   16 1
    18   19   16 1
    19   20   19 1
    20   21   19 1
    21   22   21 1
    22   23   21 1
    23   24   14 1
    24   25   24 1
    25   26   10 1
    26   27   26 1
    27   28   26 1
    28   29   10 1
    29   30   29 1
    30   31   29 1
    31   32   29 1
    32   19   24 1
    33   24   26 1
@<TRIPOS>SUBSTRUCTURE
     1 RES1 1

@<TRIPOS>CRYSIN
   6.4838   10.3481   17.5812  90.0000  90.0000  90.0000  19 1

