# MOL2 file generated by ConQuest
# Please check atom types

@<TRIPOS>MOLECULE
VIGWOY
    54    56     1
SMALL
NO_CHARGES
****
Generated from CSD

@<TRIPOS>ATOM
      1 O1        -0.9397    6.2192   13.1560 O.2       1 RES1    0.0000
      2 O2        -1.1719    4.3637   12.0897 O.2       1 RES1    0.0000
      3 O3         0.7411   10.1071   10.8614 O.2       1 RES1    0.0000
      4 O4         1.2099    9.9955    8.7738 O.2       1 RES1    0.0000
      5 O5        -0.4551    4.2399    7.2124 O.2       1 RES1    0.0000
      6 O6         1.0651    5.7219    6.4732 O.3       1 RES1    0.0000
      7 O7         2.0535    7.3823    4.5480 O.2       1 RES1    0.0000
      8 O8         2.6033    5.5662    3.3793 O.3       1 RES1    0.0000
      9 O9         2.1130    1.2742    3.3661 O.3       1 RES1    0.0000
     10 N1        -0.8415    5.5456   12.1575 N.pl3     1 RES1    0.0000
     11 N2         0.8293    9.5020    9.8170 N.pl3     1 RES1    0.0000
     12 C1        -0.2831    5.4433    9.7744 C.ar      1 RES1    0.0000
     13 H1        -0.5598    4.5552    9.7678 H         1 RES1    0.0000
     14 C2        -0.3405    6.1791   10.9333 C.ar      1 RES1    0.0000
     15 C3         0.0308    7.5060   10.9797 C.ar      1 RES1    0.0000
     16 H2        -0.0165    7.9946   11.7699 H         1 RES1    0.0000
     17 C4         0.4752    8.0777    9.8084 C.ar      1 RES1    0.0000
     18 C5         0.5713    7.3750    8.6261 C.ar      1 RES1    0.0000
     19 H3         0.8838    7.7860    7.8530 H         1 RES1    0.0000
     20 C6         0.1885    6.0325    8.6187 C.ar      1 RES1    0.0000
     21 C7         0.2136    5.2072    7.3762 C.2       1 RES1    0.0000
     22 C8         1.0966    5.2009    5.1284 C.3       1 RES1    0.0000
     23 C9         1.9560    6.2145    4.3569 C.2       1 RES1    0.0000
     24 C10        2.3101    4.1388    3.4527 C.3       1 RES1    0.0000
     25 H4         3.1000    3.6173    3.2382 H         1 RES1    0.0000
     26 H5         1.6041    3.9032    2.8297 H         1 RES1    0.0000
     27 C11        1.8650    3.8749    4.8954 C.3       1 RES1    0.0000
     28 C12       -0.2394    5.2559    4.5169 C.1       1 RES1    0.0000
     29 C13       -1.2515    5.3983    3.9327 C.1       1 RES1    0.0000
     30 H6        -2.0507    5.5120    3.4701 H         1 RES1    0.0000
     31 C14        3.0785    3.8444    5.8177 C.3       1 RES1    0.0000
     32 H7         2.7896    3.6932    6.7211 H         1 RES1    0.0000
     33 H8         3.5408    4.6836    5.7658 H         1 RES1    0.0000
     34 H9         3.6677    3.1374    5.5467 H         1 RES1    0.0000
     35 C15        1.0020    2.6107    5.0162 C.3       1 RES1    0.0000
     36 H10        0.6408    2.5701    5.9147 H         1 RES1    0.0000
     37 H11        0.2537    2.6897    4.4041 H         1 RES1    0.0000
     38 C16        1.7202    1.3139    4.7299 C.3       1 RES1    0.0000
     39 H12        2.5029    1.2413    5.2977 H         1 RES1    0.0000
     40 H13        1.1346    0.5659    4.9233 H         1 RES1    0.0000
     41 C17        2.9057    0.1478    3.0784 C.3       1 RES1    0.0000
     42 H14        2.4434   -0.6549    3.3659 H         1 RES1    0.0000
     43 H15        3.7401    0.2057    3.5701 H         1 RES1    0.0000
     44 C18        3.1960    0.0604    1.6055 C.ar      1 RES1    0.0000
     45 C19        3.0986    1.1521    0.7713 C.ar      1 RES1    0.0000
     46 H16        2.8305    1.9720    1.1212 H         1 RES1    0.0000
     47 C20        3.3924    1.0517   -0.5749 C.ar      1 RES1    0.0000
     48 H17        3.3193    1.7970   -1.1255 H         1 RES1    0.0000
     49 C21        3.7938   -0.1502   -1.0964 C.ar      1 RES1    0.0000
     50 H18        3.9888   -0.2246   -2.0021 H         1 RES1    0.0000
     51 C22        3.9049   -1.2456   -0.2759 C.ar      1 RES1    0.0000
     52 H19        4.1923   -2.0566   -0.6276 H         1 RES1    0.0000
     53 C23        3.5967   -1.1521    1.0589 C.ar      1 RES1    0.0000
     54 H20        3.6569   -1.9049    1.6000 H         1 RES1    0.0000
@<TRIPOS>BOND
     1    1   10 2
     2    2   10 2
     3    3   11 2
     4    4   11 2
     5    5   21 2
     6    6   21 1
     7    7   23 2
     8    8   23 1
     9    9   38 1
    10   10   14 1
    11   11   17 1
    12   12   13 1
    13   14   12 ar
    14   15   14 ar
    15   16   15 1
    16   17   15 ar
    17   18   17 ar
    18   19   18 1
    19   20   12 ar
    20   21   20 1
    21   22    6 1
    22   23   22 1
    23   24    8 1
    24   25   24 1
    25   26   24 1
    26   27   22 1
    27   28   22 1
    28   29   28 3
    29   30   29 1
    30   31   27 1
    31   32   31 1
    32   33   31 1
    33   34   31 1
    34   35   27 1
    35   36   35 1
    36   37   35 1
    37   38   35 1
    38   39   38 1
    39   40   38 1
    40   41    9 1
    41   42   41 1
    42   43   41 1
    43   44   41 1
    44   45   44 ar
    45   46   45 1
    46   47   45 ar
    47   48   47 1
    48   49   47 ar
    49   50   49 1
    50   51   49 ar
    51   52   51 1
    52   53   44 ar
    53   54   53 1
    54   18   20 ar
    55   24   27 1
    56   51   53 ar
@<TRIPOS>SUBSTRUCTURE
     1 RES1 1

@<TRIPOS>CRYSIN
   7.1676   14.5860   21.2760  90.0000  90.0000  90.0000  19 1

