# MOL2 file generated by ConQuest
# Please check atom types

@<TRIPOS>MOLECULE
VIHDUN
    49    52     1
SMALL
NO_CHARGES
****
Generated from CSD

@<TRIPOS>ATOM
      1 C1         0.0000   13.5280   20.2920 C.3       1 RES1    0.0000
      2 C2         1.1787   13.3532   19.3100 C.ar      1 RES1    0.0000
      3 C3         1.6335   12.0866   18.9312 C.ar      1 RES1    0.0000
      4 H1         1.2915   11.3130   19.3630 H         1 RES1    0.0000
      5 C4         2.5858   11.9553   17.9226 C.ar      1 RES1    0.0000
      6 H2         2.9004   11.0947   17.6729 H         1 RES1    0.0000
      7 C5         3.0727   13.0853   17.2832 C.ar      1 RES1    0.0000
      8 C6         2.6221   14.3604   17.6381 C.ar      1 RES1    0.0000
      9 H3         2.9581   15.1315   17.1968 H         1 RES1    0.0000
     10 C7         1.6780   14.4803   18.6428 C.ar      1 RES1    0.0000
     11 H4         1.3618   15.3425   18.8851 H         1 RES1    0.0000
     12 N1         4.0512   12.8400   16.2529 N.2       1 RES1    0.0000
     13 O1         4.5348   13.8409   15.7487 O.2       1 RES1    0.0000
     14 C2A       -1.1787   13.7028   19.3100 C.ar      1 RES1    0.0000
     15 C3A       -1.6335   14.9693   18.9312 C.ar      1 RES1    0.0000
     16 H1A       -1.2915   15.7430   19.3630 H         1 RES1    0.0000
     17 C4A       -2.5858   15.1006   17.9226 C.ar      1 RES1    0.0000
     18 H2A       -2.9004   15.9612   17.6729 H         1 RES1    0.0000
     19 C5A       -3.0727   13.9706   17.2832 C.ar      1 RES1    0.0000
     20 C6A       -2.6221   12.6956   17.6381 C.ar      1 RES1    0.0000
     21 H3A       -2.9581   11.9245   17.1968 H         1 RES1    0.0000
     22 C7A       -1.6780   12.5756   18.6428 C.ar      1 RES1    0.0000
     23 H4A       -1.3618   11.7134   18.8851 H         1 RES1    0.0000
     24 N1A       -4.0512   14.2159   16.2529 N.2       1 RES1    0.0000
     25 O1A       -4.5348   13.2150   15.7487 O.2       1 RES1    0.0000
     26 C2P        0.1748   14.7067   21.2739 C.ar      1 RES1    0.0000
     27 C3P        1.4414   15.1614   21.6527 C.ar      1 RES1    0.0000
     28 H1P        2.2150   14.8194   21.2209 H         1 RES1    0.0000
     29 C4P        1.5727   16.1138   22.6613 C.ar      1 RES1    0.0000
     30 H2P        2.4332   16.4284   22.9110 H         1 RES1    0.0000
     31 C5P        0.4426   16.6006   23.3008 C.ar      1 RES1    0.0000
     32 C6P       -0.8324   16.1501   22.9458 C.ar      1 RES1    0.0000
     33 H3P       -1.6035   16.4861   23.3872 H         1 RES1    0.0000
     34 C7P       -0.9524   15.2060   21.9411 C.ar      1 RES1    0.0000
     35 H4P       -1.8146   14.8898   21.6989 H         1 RES1    0.0000
     36 N1P        0.6879   17.5792   24.3311 N.2       1 RES1    0.0000
     37 O1P       -0.3129   18.0627   24.8352 O.2       1 RES1    0.0000
     38 C2LA      -0.1748   12.3492   21.2739 C.ar      1 RES1    0.0000
     39 C3LA      -1.4414   11.8945   21.6527 C.ar      1 RES1    0.0000
     40 H1LA      -2.2150   12.2365   21.2209 H         1 RES1    0.0000
     41 C4LA      -1.5727   10.9421   22.6613 C.ar      1 RES1    0.0000
     42 H2LA      -2.4332   10.6276   22.9110 H         1 RES1    0.0000
     43 C5LA      -0.4426   10.4553   23.3008 C.ar      1 RES1    0.0000
     44 C6LA       0.8324   10.9059   22.9458 C.ar      1 RES1    0.0000
     45 H3LA       1.6035   10.5699   23.3872 H         1 RES1    0.0000
     46 C7LA       0.9524   11.8500   21.9411 C.ar      1 RES1    0.0000
     47 H4LA       1.8146   12.1662   21.6989 H         1 RES1    0.0000
     48 N1LA      -0.6879    9.4768   24.3311 N.2       1 RES1    0.0000
     49 O1LA       0.3129    8.9932   24.8352 O.2       1 RES1    0.0000
@<TRIPOS>BOND
     1    1    2 1
     2    2    3 ar
     3    3    4 1
     4    5    3 ar
     5    6    5 1
     6    7    5 ar
     7    8    7 ar
     8    9    8 1
     9   10    2 ar
    10   11   10 1
    11   12    7 1
    12   13   12 2
    13   14    1 1
    14   15   14 ar
    15   16   15 1
    16   17   15 ar
    17   18   17 1
    18   19   17 ar
    19   20   19 ar
    20   21   20 1
    21   22   14 ar
    22   23   22 1
    23   24   19 1
    24   25   24 2
    25   26    1 1
    26   27   26 ar
    27   28   27 1
    28   29   27 ar
    29   30   29 1
    30   31   29 ar
    31   32   31 ar
    32   33   32 1
    33   34   26 ar
    34   35   34 1
    35   36   31 1
    36   37   36 2
    37   38    1 1
    38   39   38 ar
    39   40   39 1
    40   41   39 ar
    41   42   41 1
    42   43   41 ar
    43   44   43 ar
    44   45   44 1
    45   46   38 ar
    46   47   46 1
    47   48   43 1
    48   49   48 2
    49    8   10 ar
    50   20   22 ar
    51   32   34 ar
    52   44   46 ar
@<TRIPOS>SUBSTRUCTURE
     1 RES1 1

@<TRIPOS>CRYSIN
  18.0373   18.0373   18.0373  90.0000  90.0000  90.0000 220 1

