# MOL2 file generated by ConQuest
# Please check atom types

@<TRIPOS>MOLECULE
VIJCEY
    59    62     1
SMALL
NO_CHARGES
****
Generated from CSD

@<TRIPOS>ATOM
      1 O1         9.3170   13.9295    7.2260 O.2       1 RES1    0.0000
      2 O2         7.1718   11.9564    6.5965 O.3       1 RES1    0.0000
      3 N1         7.4875   14.5646    8.4308 N.am      1 RES1    0.0000
      4 N2         7.8924   10.9912    5.8751 N.2       1 RES1    0.0000
      5 C1         6.2969   14.2328    9.1975 C.ar      1 RES1    0.0000
      6 C2         5.0918   13.7868   11.1807 C.ar      1 RES1    0.0000
      7 C3         6.3297   14.0222   10.5761 C.ar      1 RES1    0.0000
      8 C4         7.8469   12.1794    7.9021 C.3       1 RES1    0.0000
      9 C5         9.7667    9.5426    6.0124 C.ar      1 RES1    0.0000
     10 C6         5.0678   14.2435    8.4804 C.ar      1 RES1    0.0000
     11 C7         3.8895   14.0205    9.1201 C.ar      1 RES1    0.0000
     12 C8         8.2767   13.6173    7.8554 C.2       1 RES1    0.0000
     13 C9         7.5868   14.0187   11.4567 C.3       1 RES1    0.0000
     14 C10        9.7738    9.2946    4.6645 C.ar      1 RES1    0.0000
     15 C11        8.8790   10.5702    6.5717 C.2       1 RES1    0.0000
     16 C12        7.0738   16.5484    6.9499 C.ar      1 RES1    0.0000
     17 C13        7.7771   16.0043    8.1884 C.3       1 RES1    0.0000
     18 C14        3.8844   13.7921   10.4651 C.ar      1 RES1    0.0000
     19 C15        8.9778   11.1732    7.9182 C.3       1 RES1    0.0000
     20 C16       10.6238    8.8237    6.8127 C.ar      1 RES1    0.0000
     21 C17        7.5280   16.2255    5.6838 C.ar      1 RES1    0.0000
     22 C18        6.9513   16.7785    4.5476 C.ar      1 RES1    0.0000
     23 C19        8.5400   15.1604   11.1997 C.3       1 RES1    0.0000
     24 C20        6.0078   17.4065    7.0303 C.ar      1 RES1    0.0000
     25 C21       11.4401    7.8318    6.2621 C.ar      1 RES1    0.0000
     26 C22       11.3853    7.5624    4.9375 C.ar      1 RES1    0.0000
     27 C23        7.3068   14.2684   12.8820 C.3       1 RES1    0.0000
     28 C24        5.4055   17.9702    5.8590 C.ar      1 RES1    0.0000
     29 C25        5.9296   17.6116    4.6455 C.ar      1 RES1    0.0000
     30 C26        8.4121   12.8573   11.2800 C.3       1 RES1    0.0000
     31 C27       10.5738    8.3134    4.1606 C.ar      1 RES1    0.0000
     32 H1         5.0667   13.6208   12.0949 H         1 RES1    0.0000
     33 H2         7.2295   12.0224    8.6469 H         1 RES1    0.0000
     34 H3         5.0712   14.4040    7.5633 H         1 RES1    0.0000
     35 H4         3.0912   14.0222    8.6440 H         1 RES1    0.0000
     36 H5         9.2347    9.7942    4.0949 H         1 RES1    0.0000
     37 H6         8.7345   16.1220    8.0861 H         1 RES1    0.0000
     38 H7         7.4969   16.5181    8.9624 H         1 RES1    0.0000
     39 H8         3.0808   13.6405   10.9090 H         1 RES1    0.0000
     40 H9         9.8352   11.6103    8.0467 H         1 RES1    0.0000
     41 H10        8.8500   10.5095    8.6133 H         1 RES1    0.0000
     42 H11       10.6609    8.9985    7.7254 H         1 RES1    0.0000
     43 H12        8.2346   15.6278    5.5918 H         1 RES1    0.0000
     44 H13        7.2875   16.5591    3.7094 H         1 RES1    0.0000
     45 H14        8.8411   15.1283   10.2884 H         1 RES1    0.0000
     46 H15        9.2938   15.0873   11.7882 H         1 RES1    0.0000
     47 H16        8.0894   15.9936   11.3574 H         1 RES1    0.0000
     48 H17        5.6673   17.6277    7.8671 H         1 RES1    0.0000
     49 H18       12.0237    7.3554    6.8083 H         1 RES1    0.0000
     50 H19       11.8934    6.8755    4.5695 H         1 RES1    0.0000
     51 H20        6.6522   13.6405   13.1945 H         1 RES1    0.0000
     52 H21        6.9714   15.1604   12.9915 H         1 RES1    0.0000
     53 H22        8.1160   14.1667   13.3902 H         1 RES1    0.0000
     54 H23        4.6862   18.5572    5.9204 H         1 RES1    0.0000
     55 H24        5.5568   17.9631    3.8700 H         1 RES1    0.0000
     56 H25        7.9815   12.0955   11.6772 H         1 RES1    0.0000
     57 H26        9.2611   13.0000   11.7049 H         1 RES1    0.0000
     58 H27        8.5453   12.6967   10.3439 H         1 RES1    0.0000
     59 H28       10.5604    8.1547    3.2450 H         1 RES1    0.0000
@<TRIPOS>BOND
     1    1   12 2
     2    2    4 1
     3    3    5 1
     4    4   15 2
     5    5    7 ar
     6    6    7 ar
     7    7   13 1
     8    8    2 1
     9    9   14 ar
    10   10    5 ar
    11   11   10 ar
    12   12    3 1
    13   13   23 1
    14   14   31 ar
    15   15    9 1
    16   16   17 1
    17   17    3 1
    18   18    6 ar
    19   19    8 1
    20   20    9 ar
    21   21   16 ar
    22   22   21 ar
    23   23   45 1
    24   24   16 ar
    25   25   20 ar
    26   26   25 ar
    27   27   13 1
    28   28   24 ar
    29   29   22 ar
    30   30   13 1
    31   31   26 ar
    32   32    6 1
    33   33    8 1
    34   34   10 1
    35   35   11 1
    36   36   14 1
    37   37   17 1
    38   38   17 1
    39   39   18 1
    40   40   19 1
    41   41   19 1
    42   42   20 1
    43   43   21 1
    44   44   22 1
    45   46   23 1
    46   47   23 1
    47   48   24 1
    48   49   25 1
    49   50   26 1
    50   51   27 1
    51   52   27 1
    52   53   27 1
    53   54   28 1
    54   55   29 1
    55   56   30 1
    56   57   30 1
    57   58   30 1
    58   59   31 1
    59    8   12 1
    60   11   18 ar
    61   15   19 1
    62   28   29 ar
@<TRIPOS>SUBSTRUCTURE
     1 RES1 1

@<TRIPOS>CRYSIN
   8.7420   17.8400   14.6390  90.0000  93.9740  90.0000 231 1

