# MOL2 file generated by ConQuest
# Please check atom types

@<TRIPOS>MOLECULE
VIJWEQ
    34    38     1
SMALL
NO_CHARGES
****
Generated from CSD

@<TRIPOS>ATOM
      1 C1         9.8356    6.3930   -0.7183 C.2       1 RES1    0.0000
      2 C2         9.7264    5.5210    0.4440 C.2       1 RES1    0.0000
      3 C3        11.9331    6.0777    0.9298 C.2       1 RES1    0.0000
      4 C4        13.1657    6.0615    1.8070 C.3       1 RES1    0.0000
      5 H1        12.9738    6.5308    2.6449 H         1 RES1    0.0000
      6 C5        14.1496    6.8749    0.9890 C.ar      1 RES1    0.0000
      7 C6        15.4617    7.1767    1.2361 C.ar      1 RES1    0.0000
      8 H2        15.8752    6.8776    2.0136 H         1 RES1    0.0000
      9 C7        16.1676    7.9342    0.3105 C.ar      1 RES1    0.0000
     10 H3        17.0662    8.1234    0.4579 H         1 RES1    0.0000
     11 C8        15.5445    8.4099   -0.8295 C.ar      1 RES1    0.0000
     12 H4        16.0287    8.9206   -1.4373 H         1 RES1    0.0000
     13 C9        13.5260    7.3712   -0.1686 C.ar      1 RES1    0.0000
     14 C10       14.2236    8.1378   -1.0766 C.ar      1 RES1    0.0000
     15 H5        13.8069    8.4648   -1.8408 H         1 RES1    0.0000
     16 C11       11.0518    7.0524   -1.0295 C.2       1 RES1    0.0000
     17 C12       12.1615    6.8785   -0.1673 C.2       1 RES1    0.0000
     18 C13        8.4994    4.7715    0.7371 C.ar      1 RES1    0.0000
     19 C14        7.4891    4.5977   -0.2042 C.ar      1 RES1    0.0000
     20 H6         7.5792    4.9904   -1.0428 H         1 RES1    0.0000
     21 C15        6.3674    3.8662    0.0719 C.ar      1 RES1    0.0000
     22 H7         5.7142    3.7590   -0.5818 H         1 RES1    0.0000
     23 C16        6.1985    3.2897    1.2983 C.ar      1 RES1    0.0000
     24 H8         5.4372    2.7907    1.4874 H         1 RES1    0.0000
     25 C17        7.1693    3.4627    2.2396 C.ar      1 RES1    0.0000
     26 H9         7.0607    3.0771    3.0787 H         1 RES1    0.0000
     27 C18        8.3038    4.1923    1.9786 C.ar      1 RES1    0.0000
     28 H10        8.9463    4.2977    2.6425 H         1 RES1    0.0000
     29 N1        10.9113    7.7694   -2.1320 N.2       1 RES1    0.0000
     30 N2         8.9353    6.7218   -1.6203 N.2       1 RES1    0.0000
     31 N3        10.7768    5.4147    1.2300 N.2       1 RES1    0.0000
     32 O1         9.6005    7.5559   -2.4927 O.3       1 RES1    0.0000
     33 O2        13.6393    4.7562    2.0982 O.3       1 RES1    0.0000
     34 H11       13.4718    4.5887    3.1373 H         1 RES1    0.0000
@<TRIPOS>BOND
     1    1    2 1
     2    2   18 1
     3    3    4 1
     4    4    5 1
     5    6    4 1
     6    7    6 ar
     7    8    7 1
     8    9    7 ar
     9   10    9 1
    10   11    9 ar
    11   12   11 1
    12   13    6 ar
    13   14   11 ar
    14   15   14 1
    15   16    1 1
    16   17    3 2
    17   18   19 ar
    18   19   20 1
    19   21   19 ar
    20   22   21 1
    21   23   21 ar
    22   24   23 1
    23   25   23 ar
    24   26   25 1
    25   27   18 ar
    26   28   27 1
    27   29   16 2
    28   30    1 2
    29   31    2 2
    30   32   29 1
    31   33    4 1
    32   34   33 1
    33    3   31 1
    34   13   14 ar
    35   13   17 1
    36   16   17 1
    37   25   27 ar
    38   30   32 1
@<TRIPOS>SUBSTRUCTURE
     1 RES1 1

@<TRIPOS>CRYSIN
  25.0170    9.0080    6.0420  90.0000  90.7700  90.0000 231 1

