# MOL2 file generated by ConQuest
# Please check atom types

@<TRIPOS>MOLECULE
VIKNUY
    55    57     2
SMALL
NO_CHARGES
****
Generated from CSD

@<TRIPOS>ATOM
      1 C1         5.9454    9.2240    3.8910 C.3       1 RES1    0.0000
      2 C2         4.8753    8.3489    3.2536 C.3       1 RES1    0.0000
      3 C3         3.6434    9.1444    2.7884 C.3       1 RES1    0.0000
      4 C4         4.0879   10.2833    1.8805 C.3       1 RES1    0.0000
      5 O1         2.8784   10.9364    1.3759 O.3       1 RES1    0.0000
      6 C5         4.9542   11.1814    2.6761 C.2       1 RES1    0.0000
      7 C6         6.2370   10.5450    3.1806 C.3       1 RES1    0.0000
      8 C7         6.6307   11.4828    4.3104 C.3       1 RES1    0.0000
      9 C8         5.9722   12.8269    4.0071 C.3       1 RES1    0.0000
     10 C9         4.7864   12.4103    3.1581 C.2       1 RES1    0.0000
     11 C10        5.9828   10.8653    5.5225 C.2       1 RES1    0.0000
     12 O2         5.4871    9.6322    5.2220 O.3       1 RES1    0.0000
     13 O3         5.8423   11.3405    6.6055 O.2       1 RES1    0.0000
     14 O4         7.1722    8.5624    4.0380 O.3       1 RES1    0.0000
     15 C11        7.1152    7.3273    4.7774 C.3       1 RES1    0.0000
     16 O5         4.0597   11.8995   -0.2780 O.2       1 RES1    0.0000
     17 C12        3.0276   11.7299    0.3079 C.2       1 RES1    0.0000
     18 C13        1.7535   12.4186   -0.0431 C.ar      1 RES1    0.0000
     19 C14        1.7918   13.4151   -1.0146 C.ar      1 RES1    0.0000
     20 C15        0.6241   14.0913   -1.3001 C.ar      1 RES1    0.0000
     21 C16       -0.5760   13.8087   -0.7151 C.ar      1 RES1    0.0000
     22 C17       -0.5754   12.7997    0.2190 C.ar      1 RES1    0.0000
     23 C18        0.5547   12.1109    0.5841 C.ar      1 RES1    0.0000
     24 N1         0.6910   15.1779   -2.3166 N.pl3     1 RES1    0.0000
     25 O6        -0.3354   15.7892   -2.5235 O.2       1 RES1    0.0000
     26 O7         1.7189   15.3935   -2.8539 O.2       1 RES1    0.0000
     27 N2        -1.8658   12.4396    0.8518 N.pl3     1 RES1    0.0000
     28 O8        -2.8819   12.9148    0.3884 O.2       1 RES1    0.0000
     29 O9        -1.8376   11.6754    1.7897 O.2       1 RES1    0.0000
     30 C19        3.6078   13.3209    2.9110 C.3       1 RES1    0.0000
     31 O10        3.5850   14.3070    3.9565 O.3       1 RES1    0.0000
     32 C20        3.1098   15.4375    3.7675 C.2       1 RES1    0.0000
     33 C21        3.0988   16.3607    4.9010 C.3       1 RES1    0.0000
     34 O11        2.3664   15.5735    2.7285 O.2       1 RES1    0.0000
     35 O12        4.3652   15.9336    3.0982 Du        2 SUP2    0.0000
     36 H1         5.2934    8.0014    2.3971 H         1 RES1    0.0000
     37 H2         4.5964    7.6559    3.9200 H         1 RES1    0.0000
     38 H3         3.1423    9.5380    3.5934 H         1 RES1    0.0000
     39 H4         3.1144    8.5708    2.2652 H         1 RES1    0.0000
     40 H5         4.5892    9.9295    1.1008 H         1 RES1    0.0000
     41 H6         6.9683   10.4256    2.4430 H         1 RES1    0.0000
     42 H7         7.5521   11.5498    4.4723 H         1 RES1    0.0000
     43 H8         6.5669   13.4193    3.5503 H         1 RES1    0.0000
     44 H9         5.7172   13.3251    4.8785 H         1 RES1    0.0000
     45 H10        6.6835    6.6134    4.2607 H         1 RES1    0.0000
     46 H11        7.9430    7.0802    5.0152 H         1 RES1    0.0000
     47 H12        6.5475    7.3942    5.7312 H         1 RES1    0.0000
     48 H13        2.6663   13.6873   -1.4237 H         1 RES1    0.0000
     49 H14       -1.4631   14.2588   -0.9164 H         1 RES1    0.0000
     50 H15        0.6063   11.3656    1.2655 H         1 RES1    0.0000
     51 H16        3.7627   13.7522    2.0939 H         1 RES1    0.0000
     52 H17        2.6420   12.9106    3.0889 H         1 RES1    0.0000
     53 H18        2.3447   16.1702    5.4635 H         1 RES1    0.0000
     54 H19        3.0375   17.2609    4.5771 H         1 RES1    0.0000
     55 H20        3.9084   16.2560    5.4064 H         1 RES1    0.0000
@<TRIPOS>BOND
     1    1    2 1
     2    2    3 1
     3    3    4 1
     4    4    5 1
     5    5   17 1
     6    6    4 1
     7    7    1 1
     8    8    7 1
     9    9    8 1
    10   10    6 2
    11   11    8 1
    12   12    1 1
    13   13   11 2
    14   14    1 1
    15   15   14 1
    16   16   17 2
    17   17   18 1
    18   18   19 ar
    19   19   20 ar
    20   20   21 ar
    21   21   22 ar
    22   22   23 ar
    23   23   18 ar
    24   24   20 1
    25   25   24 2
    26   26   24 2
    27   27   22 1
    28   28   27 2
    29   29   27 2
    30   30   10 1
    31   31   30 1
    32   32   31 1
    33   33   32 1
    34   34   32 2
    35   36    2 1
    36   37    2 1
    37   38    3 1
    38   39    3 1
    39   40    4 1
    40   41    7 1
    41   42    8 1
    42   43    9 1
    43   44    9 1
    44   45   15 1
    45   46   15 1
    46   47   15 1
    47   48   19 1
    48   49   21 1
    49   50   23 1
    50   51   30 1
    51   52   30 1
    52   53   33 1
    53   54   33 1
    54   55   33 1
    55    6    7 1
    56    9   10 1
    57   11   12 1
@<TRIPOS>SUBSTRUCTURE
     1 RES1 1
     2 SUP2 35

@<TRIPOS>CRYSIN
  10.9440   20.9350   10.5230  90.0000 117.1900  90.0000  14 1

