# MOL2 file generated by ConQuest
# Please check atom types

@<TRIPOS>MOLECULE
VIKVOA
    20    20     1
SMALL
NO_CHARGES
****
Generated from CSD

@<TRIPOS>ATOM
      1 C1         3.1381    1.9575    8.8161 C.3       1 RES1    0.0000
      2 C2         1.7992    2.3822    9.3762 C.3       1 RES1    0.0000
      3 C3         1.8398    1.3595    8.2975 C.3       1 RES1    0.0000
      4 C4         1.2410    3.7612    9.1536 C.3       1 RES1    0.0000
      5 C5         1.3091    1.6293    6.9195 C.3       1 RES1    0.0000
      6 C6         4.0447    1.1180    9.6222 C.2       1 RES1    0.0000
      7 N1         3.8901    2.9119    7.9769 N.pl3     1 RES1    0.0000
      8 O1         3.5338    0.3748   10.4847 O.2       1 RES1    0.0000
      9 O2         5.2886    1.2068    9.3826 O.3       1 RES1    0.0000
     10 O3         4.2236    3.9670    8.4870 O.2       1 RES1    0.0000
     11 O4         4.1896    2.5880    6.8631 O.2       1 RES1    0.0000
     12 H1         1.5793    2.0691   10.2121 H         1 RES1    0.0000
     13 H2         1.7341    0.3900    8.5616 H         1 RES1    0.0000
     14 H3         0.2722    3.8782    9.2111 H         1 RES1    0.0000
     15 H4         1.2919    4.0949    8.2421 H         1 RES1    0.0000
     16 H5         1.5461    4.3657    9.8820 H         1 RES1    0.0000
     17 H6         1.4813    2.5458    6.6767 H         1 RES1    0.0000
     18 H7         0.2319    1.5058    7.0068 H         1 RES1    0.0000
     19 H8         1.7596    1.1266    6.1762 H         1 RES1    0.0000
     20 H9         5.8183    0.4658    9.9033 H         1 RES1    0.0000
@<TRIPOS>BOND
     1    1    2 1
     2    2    3 1
     3    3    1 1
     4    4    2 1
     5    5    3 1
     6    6    1 1
     7    7    1 1
     8    8    6 2
     9    9    6 1
    10   10    7 2
    11   11    7 2
    12   12    2 1
    13   13    3 1
    14   14    4 1
    15   15    4 1
    16   16    4 1
    17   17    5 1
    18   18    5 1
    19   19    5 1
    20   20    9 1
@<TRIPOS>SUBSTRUCTURE
     1 RES1 1

@<TRIPOS>CRYSIN
   6.6800   10.8330   10.7560  90.0000  98.1000  90.0000 231 1

