# MOL2 file generated by ConQuest
# Please check atom types

@<TRIPOS>MOLECULE
VIKVUG
    24    24     1
SMALL
NO_CHARGES
****
Generated from CSD

@<TRIPOS>ATOM
      1 C1         5.9450    0.0269    6.8432 C.3       1 RES1    0.0000
      2 C2         5.9556    0.8511    5.5255 C.3       1 RES1    0.0000
      3 C3         4.9006   -0.2232    5.7117 C.3       1 RES1    0.0000
      4 C4         3.4604    0.1501    5.9213 C.3       1 RES1    0.0000
      5 C5         5.0384   -1.5390    4.9776 C.3       1 RES1    0.0000
      6 C6         5.5979    2.3177    5.5550 C.3       1 RES1    0.0000
      7 C7         7.1439    0.6025    4.6253 C.3       1 RES1    0.0000
      8 C8         6.9825   -0.9342    7.0419 C.1       1 RES1    0.0000
      9 N1         7.8267   -1.6937    7.1086 N.1       1 RES1    0.0000
     10 N2         5.5712    0.6179    8.1315 N.pl3     1 RES1    0.0000
     11 O1         4.6692    1.4582    8.1749 O.2       1 RES1    0.0000
     12 O2         6.1680    0.2539    9.1124 O.2       1 RES1    0.0000
     13 H1         3.0166    0.2031    5.0723 H         1 RES1    0.0000
     14 H2         3.4109    0.9965    6.3465 H         1 RES1    0.0000
     15 H3         3.0273   -0.5017    6.4536 H         1 RES1    0.0000
     16 H4         5.9183   -1.8368    4.9574 H         1 RES1    0.0000
     17 H5         4.7324   -1.4151    4.0510 H         1 RES1    0.0000
     18 H6         4.4644   -2.1969    5.3641 H         1 RES1    0.0000
     19 H7         6.3522    2.8387    5.8002 H         1 RES1    0.0000
     20 H8         4.8907    2.4716    6.1696 H         1 RES1    0.0000
     21 H9         5.3063    2.5932    4.6796 H         1 RES1    0.0000
     22 H10        7.9454    0.8757    5.0614 H         1 RES1    0.0000
     23 H11        7.0449    1.0842    3.8151 H         1 RES1    0.0000
     24 H12        7.2040   -0.3309    4.4297 H         1 RES1    0.0000
@<TRIPOS>BOND
     1    1    2 1
     2    2    3 1
     3    3    1 1
     4    4    3 1
     5    5    3 1
     6    6    2 1
     7    7    2 1
     8    8    1 1
     9    9    8 3
    10   10    1 1
    11   11   10 2
    12   12   10 2
    13   13    4 1
    14   14    4 1
    15   15    4 1
    16   16    5 1
    17   17    5 1
    18   18    5 1
    19   19    6 1
    20   20    6 1
    21   21    6 1
    22   22    7 1
    23   23    7 1
    24   24    7 1
@<TRIPOS>SUBSTRUCTURE
     1 RES1 1

@<TRIPOS>CRYSIN
   7.6120    7.6950   15.5210  90.0000  90.0000  90.0000  19 1

