# MOL2 file generated by ConQuest
# Please check atom types

@<TRIPOS>MOLECULE
VIKWAN
    27    27     1
SMALL
NO_CHARGES
****
Generated from CSD

@<TRIPOS>ATOM
      1 C1         5.7610    2.4738    9.3684 C.3       1 RES1    0.0000
      2 C2         5.8814    3.0867   10.7442 C.3       1 RES1    0.0000
      3 C3         6.8603    2.0062   10.2982 C.3       1 RES1    0.0000
      4 C4         6.0640    3.2254    8.0817 C.2       1 RES1    0.0000
      5 C5         4.8613    2.7486   11.8094 C.3       1 RES1    0.0000
      6 C6         6.3610    4.5210   10.8693 C.3       1 RES1    0.0000
      7 C7         6.8183    0.6445   10.9513 C.3       1 RES1    0.0000
      8 C8         8.2732    2.4067    9.9281 C.3       1 RES1    0.0000
      9 N1         4.5854    1.5964    9.0844 N.pl3     1 RES1    0.0000
     10 N2         6.7411    2.5269    7.1837 N.am      1 RES1    0.0000
     11 O1         3.4842    2.0929    9.1377 O.2       1 RES1    0.0000
     12 O2         4.7431    0.4489    8.8199 O.2       1 RES1    0.0000
     13 O3         5.6762    4.3757    7.9064 O.2       1 RES1    0.0000
     14 H1         5.3548    2.7383   12.7229 H         1 RES1    0.0000
     15 H2         4.5204    1.8628   11.7694 H         1 RES1    0.0000
     16 H3         4.1966    3.4276   11.8002 H         1 RES1    0.0000
     17 H4         6.9729    4.7501   10.1598 H         1 RES1    0.0000
     18 H5         5.5712    5.1320   10.8775 H         1 RES1    0.0000
     19 H6         6.7474    4.5918   11.7284 H         1 RES1    0.0000
     20 H7         7.2792    0.0279   10.3751 H         1 RES1    0.0000
     21 H8         5.8586    0.3074   11.0825 H         1 RES1    0.0000
     22 H9         7.2812    0.6986   11.7899 H         1 RES1    0.0000
     23 H10        8.3111    3.2692    9.4730 H         1 RES1    0.0000
     24 H11        8.7041    1.6858    9.3602 H         1 RES1    0.0000
     25 H12        8.7939    2.4868   10.7955 H         1 RES1    0.0000
     26 H13        6.9589    1.6858    7.3303 H         1 RES1    0.0000
     27 H14        7.0240    2.8873    6.4793 H         1 RES1    0.0000
@<TRIPOS>BOND
     1    1    2 1
     2    2    3 1
     3    3    1 1
     4    4    1 1
     5    5    2 1
     6    6    2 1
     7    7    3 1
     8    8    3 1
     9    9    1 1
    10   10    4 1
    11   11    9 2
    12   12    9 2
    13   13    4 2
    14   14    5 1
    15   15    5 1
    16   16    5 1
    17   17    6 1
    18   18    6 1
    19   19    6 1
    20   20    7 1
    21   21    7 1
    22   22    7 1
    23   23    8 1
    24   24    8 1
    25   25    8 1
    26   26   10 1
    27   27   10 1
@<TRIPOS>SUBSTRUCTURE
     1 RES1 1

@<TRIPOS>CRYSIN
  10.0110    9.3140   10.3160  90.0000  96.3800  90.0000 231 1

