# MOL2 file generated by ConQuest
# Please check atom types

@<TRIPOS>MOLECULE
VIKYUJ
    33    37     1
SMALL
NO_CHARGES
****
Generated from CSD

@<TRIPOS>ATOM
      1 C1        -1.4354    4.7159    3.4500 C.3       1 RES1    0.0000
      2 C2        -0.8789    3.3813    2.8734 C.3       1 RES1    0.0000
      3 C3        -0.9298    3.4736    1.3288 C.3       1 RES1    0.0000
      4 C4         0.4693    3.1182    0.8802 C.3       1 RES1    0.0000
      5 C5         1.1525    4.1236    1.7869 C.3       1 RES1    0.0000
      6 C6         0.5679    3.8385    3.1897 C.3       1 RES1    0.0000
      7 C7         0.0189    5.1800    3.7727 C.3       1 RES1    0.0000
      8 C8         0.6050    6.1717    2.8025 C.3       1 RES1    0.0000
      9 C9         0.4557    5.4706    1.4610 C.3       1 RES1    0.0000
     10 C10       -1.0262    5.0189    1.1288 C.3       1 RES1    0.0000
     11 C11       -2.0363    5.3522    2.2133 C.3       1 RES1    0.0000
     12 N1        -2.5009    6.7887    2.3296 N.pl3     1 RES1    0.0000
     13 O1        -2.6986    7.3878    1.2801 O.2       1 RES1    0.0000
     14 O2        -2.7080    7.2281    3.4320 O.2       1 RES1    0.0000
     15 N2        -3.3851    4.6580    1.8673 N.pl3     1 RES1    0.0000
     16 O3        -3.9942    4.1567    2.7761 O.2       1 RES1    0.0000
     17 O4        -3.7456    4.6773    0.7141 O.2       1 RES1    0.0000
     18 N3         0.1568    7.6192    2.9030 N.pl3     1 RES1    0.0000
     19 O5        -0.0450    8.2211    1.8726 O.2       1 RES1    0.0000
     20 O6         0.0483    8.0861    4.0075 O.2       1 RES1    0.0000
     21 N4         2.1149    6.3659    3.0924 N.pl3     1 RES1    0.0000
     22 O7         2.5577    5.9362    4.1366 O.2       1 RES1    0.0000
     23 O8         2.7505    6.9678    2.2450 O.2       1 RES1    0.0000
     24 H1        -2.0075    4.6759    4.1578 H         1 RES1    0.0000
     25 H2        -1.1828    2.5948    3.2310 H         1 RES1    0.0000
     26 H3        -1.6444    2.9667    0.9215 H         1 RES1    0.0000
     27 H4         0.5954    3.3372   -0.0963 H         1 RES1    0.0000
     28 H5         0.7016    2.1665    1.1056 H         1 RES1    0.0000
     29 H6         2.0857    4.1512    1.7425 H         1 RES1    0.0000
     30 H7         0.1899    5.3508    4.6614 H         1 RES1    0.0000
     31 H8         0.8479    5.9430    0.7892 H         1 RES1    0.0000
     32 H9        -1.3073    5.3315    0.2497 H         1 RES1    0.0000
     33 H10        1.0986    3.2766    3.7113 H         1 RES1    0.0000
@<TRIPOS>BOND
     1    1    2 1
     2    2    3 1
     3    3    4 1
     4    4    5 1
     5    5    6 1
     6    6    2 1
     7    7    1 1
     8    8    7 1
     9    9    5 1
    10   10    3 1
    11   11    1 1
    12   12   11 1
    13   13   12 2
    14   14   12 2
    15   15   11 1
    16   16   15 2
    17   17   15 2
    18   18    8 1
    19   19   18 2
    20   20   18 2
    21   21    8 1
    22   22   21 2
    23   23   21 2
    24   24    1 1
    25   25    2 1
    26   26    3 1
    27   27    4 1
    28   28    4 1
    29   29    5 1
    30   30    7 1
    31   31    9 1
    32   32   10 1
    33   33    6 1
    34    6    7 1
    35    8    9 1
    36    9   10 1
    37   10   11 1
@<TRIPOS>SUBSTRUCTURE
     1 RES1 1

@<TRIPOS>CRYSIN
   8.6020   13.7730   10.7340  90.0000  99.7300  90.0000 231 1

