# MOL2 file generated by ConQuest
# Please check atom types

@<TRIPOS>MOLECULE
VIMHEE10
    34    33     1
SMALL
NO_CHARGES
****
Generated from CSD

@<TRIPOS>ATOM
      1 O1         1.4177    6.3549    3.7096 O.2       1 RES1    0.0000
      2 O2         3.4560    6.2299    4.3526 O.2       1 RES1    0.0000
      3 O3         2.7129    4.9551    2.6935 O.3       1 RES1    0.0000
      4 O4         1.2403    0.9040    0.7092 O.2       1 RES1    0.0000
      5 N1         2.5289    5.9253    3.6728 N.pl3     1 RES1    0.0000
      6 N2         3.4652    1.0400    1.1189 N.am      1 RES1    0.0000
      7 C1         4.0879    4.4917    2.5870 C.3       1 RES1    0.0000
      8 C2         4.0767    3.3653    1.5893 C.3       1 RES1    0.0000
      9 C3         3.4167    2.1063    2.1074 C.3       1 RES1    0.0000
     10 C4         2.3972    0.5504    0.5108 C.2       1 RES1    0.0000
     11 H1         4.2018    0.7307    0.8911 H         1 RES1    0.0000
     12 H2         4.6333    5.2189    2.2342 H         1 RES1    0.0000
     13 H3         4.3725    4.1802    3.4744 H         1 RES1    0.0000
     14 H4         3.6666    3.6477    0.7790 H         1 RES1    0.0000
     15 H5         4.9825    3.1871    1.3008 H         1 RES1    0.0000
     16 H6         3.9232    1.7666    2.9287 H         1 RES1    0.0000
     17 H7         2.4969    2.2652    2.3389 H         1 RES1    0.0000
     18 C4B        2.7278   -0.5504   -0.5108 C.2       1 RES1    0.0000
     19 O4B        3.8847   -0.9040   -0.7092 O.2       1 RES1    0.0000
     20 N2B        1.6598   -1.0400   -1.1189 N.am      1 RES1    0.0000
     21 C3B        1.7083   -2.1063   -2.1074 C.3       1 RES1    0.0000
     22 C2B        1.0483   -3.3653   -1.5893 C.3       1 RES1    0.0000
     23 C1B        1.0371   -4.4917   -2.5870 C.3       1 RES1    0.0000
     24 O3B        2.4121   -4.9551   -2.6935 O.3       1 RES1    0.0000
     25 N1B        2.5961   -5.9253   -3.6728 N.pl3     1 RES1    0.0000
     26 O1B        3.7073   -6.3549   -3.7096 O.2       1 RES1    0.0000
     27 O2B        1.6690   -6.2299   -4.3526 O.2       1 RES1    0.0000
     28 H2B        0.4917   -5.2189   -2.2342 H         1 RES1    0.0000
     29 H3B        0.7525   -4.1802   -3.4744 H         1 RES1    0.0000
     30 H4B        1.4584   -3.6477   -0.7790 H         1 RES1    0.0000
     31 H5B        0.1425   -3.1871   -1.3008 H         1 RES1    0.0000
     32 H6B        1.2018   -1.7666   -2.9287 H         1 RES1    0.0000
     33 H7B        2.6281   -2.2652   -2.3389 H         1 RES1    0.0000
     34 H1B        0.9232   -0.7307   -0.8911 H         1 RES1    0.0000
@<TRIPOS>BOND
     1    1    5 2
     2    2    5 2
     3    3    5 1
     4    4   10 2
     5    6    9 1
     6    7    3 1
     7    8    7 1
     8    9    8 1
     9   10    6 1
    10   11    6 1
    11   12    7 1
    12   13    7 1
    13   14    8 1
    14   15    8 1
    15   16    9 1
    16   17    9 1
    17   18   10 1
    18   19   18 2
    19   20   18 1
    20   21   20 1
    21   22   21 1
    22   23   22 1
    23   24   23 1
    24   25   24 1
    25   26   25 2
    26   27   25 2
    27   28   23 1
    28   29   23 1
    29   30   22 1
    30   31   22 1
    31   32   21 1
    32   33   21 1
    33   34   20 1
@<TRIPOS>SUBSTRUCTURE
     1 RES1 1

@<TRIPOS>CRYSIN
   5.1250    6.9060   18.4410  90.0000  94.9100  90.0000  14 1

