# MOL2 file generated by ConQuest
# Please check atom types

@<TRIPOS>MOLECULE
VIMHEE
    22    21     1
SMALL
NO_CHARGES
****
Generated from CSD

@<TRIPOS>ATOM
      1 O1         1.4177    6.3549    3.7094 O.2       1 RES1    0.0000
      2 O2         3.4560    6.2299    4.3524 O.2       1 RES1    0.0000
      3 O3         2.7129    4.9551    2.6934 O.3       1 RES1    0.0000
      4 O4         1.2403    0.9040    0.7092 O.2       1 RES1    0.0000
      5 N1         2.5289    5.9253    3.6726 N.pl3     1 RES1    0.0000
      6 N2         3.4652    1.0407    1.1189 N.am      1 RES1    0.0000
      7 H1         4.2018    0.7307    0.8911 H         1 RES1    0.0000
      8 C1         4.0879    4.4917    2.5868 C.3       1 RES1    0.0000
      9 C2         4.0767    3.3653    1.5892 C.3       1 RES1    0.0000
     10 C3         3.4167    2.1063    2.1073 C.3       1 RES1    0.0000
     11 C4         2.3972    0.5504    0.5108 C.2       1 RES1    0.0000
     12 C4B        2.7278   -0.5504   -0.5108 C.2       1 RES1    0.0000
     13 O4B        3.8847   -0.9040   -0.7092 O.2       1 RES1    0.0000
     14 N2B        1.6598   -1.0407   -1.1189 N.am      1 RES1    0.0000
     15 H1B        0.9232   -0.7307   -0.8911 H         1 RES1    0.0000
     16 C3B        1.7083   -2.1063   -2.1073 C.3       1 RES1    0.0000
     17 C2B        1.0483   -3.3653   -1.5892 C.3       1 RES1    0.0000
     18 C1B        1.0371   -4.4917   -2.5868 C.3       1 RES1    0.0000
     19 O3B        2.4121   -4.9551   -2.6934 O.3       1 RES1    0.0000
     20 N1B        2.5961   -5.9253   -3.6726 N.pl3     1 RES1    0.0000
     21 O1B        3.7073   -6.3549   -3.7094 O.2       1 RES1    0.0000
     22 O2B        1.6690   -6.2299   -4.3524 O.2       1 RES1    0.0000
@<TRIPOS>BOND
     1    1    5 2
     2    2    5 2
     3    3    5 1
     4    4   11 2
     5    6    7 1
     6    8    3 1
     7    9    8 1
     8   10    6 1
     9   11    6 1
    10   12   11 1
    11   13   12 2
    12   14   12 1
    13   15   14 1
    14   16   14 1
    15   17   16 1
    16   18   17 1
    17   19   18 1
    18   20   19 1
    19   21   20 2
    20   22   20 2
    21    9   10 1
@<TRIPOS>SUBSTRUCTURE
     1 RES1 1

@<TRIPOS>CRYSIN
   5.1250    6.9060   18.4400  90.0000  94.9100  90.0000  14 1

