# MOL2 file generated by ConQuest
# Please check atom types

@<TRIPOS>MOLECULE
VINCOK
    36    38     1
SMALL
NO_CHARGES
****
Generated from CSD

@<TRIPOS>ATOM
      1 C1        -0.5190    0.4429   10.1428 C.ar      1 RES1    0.0000
      2 C2         0.0274   -0.5645    9.2898 C.ar      1 RES1    0.0000
      3 C3         0.3537   -0.3427    7.9694 C.ar      1 RES1    0.0000
      4 C4         0.1508    0.8965    7.4232 C.ar      1 RES1    0.0000
      5 C5        -0.3431    1.9393    8.1878 C.ar      1 RES1    0.0000
      6 C6        -0.6361    1.7125    9.5027 C.ar      1 RES1    0.0000
      7 C7        -1.7488    0.9828   12.2347 C.ar      1 RES1    0.0000
      8 C8        -2.9675    1.3780   11.7785 C.ar      1 RES1    0.0000
      9 C9        -3.7946    2.1734   12.5997 C.ar      1 RES1    0.0000
     10 C10       -3.4038    2.5079   13.8524 C.ar      1 RES1    0.0000
     11 C11       -2.1683    2.0740   14.3695 C.ar      1 RES1    0.0000
     12 C12       -1.3010    1.3057   13.5482 C.ar      1 RES1    0.0000
     13 C13       -0.0395    0.9129   14.0556 C.ar      1 RES1    0.0000
     14 C14        0.3266    1.2572   15.3331 C.ar      1 RES1    0.0000
     15 C15       -0.5408    1.9960   16.1406 C.ar      1 RES1    0.0000
     16 C16       -1.7419    2.3978   15.6829 C.ar      1 RES1    0.0000
     17 N1        -0.8934    0.2005   11.4052 N.pl3     1 RES1    0.0000
     18 N2         0.2803   -1.9154    9.7903 N.pl3     1 RES1    0.0000
     19 N3         0.4766    1.1307    6.0254 N.pl3     1 RES1    0.0000
     20 N4        -0.9593    2.9163   10.2783 N.pl3     1 RES1    0.0000
     21 O1         0.3389   -2.0962   11.0070 O.2       1 RES1    0.0000
     22 O2         0.4584   -2.8086    8.9731 O.2       1 RES1    0.0000
     23 O3         0.8298    0.1791    5.3479 O.2       1 RES1    0.0000
     24 O4         0.3577    2.2606    5.5899 O.2       1 RES1    0.0000
     25 O5        -1.8157    3.6591    9.8331 O.2       1 RES1    0.0000
     26 O6        -0.3077    3.1184   11.2945 O.2       1 RES1    0.0000
     27 H1        -0.6744   -0.4766   11.6692 H         1 RES1    0.0000
     28 H2         0.6831   -1.0107    7.5214 H         1 RES1    0.0000
     29 H3        -0.4849    2.8103    7.8256 H         1 RES1    0.0000
     30 H4        -3.2684    1.1093   10.9226 H         1 RES1    0.0000
     31 H5        -4.5806    2.4405   12.2223 H         1 RES1    0.0000
     32 H6        -3.8926    3.0568   14.3653 H         1 RES1    0.0000
     33 H7         0.5361    0.4766   13.5219 H         1 RES1    0.0000
     34 H8         1.1227    1.0107   15.7065 H         1 RES1    0.0000
     35 H9        -0.2781    2.2104   16.9785 H         1 RES1    0.0000
     36 H10       -2.2828    2.8596   16.2318 H         1 RES1    0.0000
@<TRIPOS>BOND
     1    1    2 ar
     2    2    3 ar
     3    3    4 ar
     4    4    5 ar
     5    5    6 ar
     6    6    1 ar
     7    7    8 ar
     8    8    9 ar
     9    9   10 ar
    10   10   11 ar
    11   11   12 ar
    12   12    7 ar
    13   13   12 ar
    14   14   13 ar
    15   15   14 ar
    16   16   11 ar
    17   17    1 1
    18   18    2 1
    19   19    4 1
    20   20    6 1
    21   21   18 2
    22   22   18 2
    23   23   19 2
    24   24   19 2
    25   25   20 2
    26   26   20 2
    27   27   17 1
    28   28    3 1
    29   29    5 1
    30   30    8 1
    31   31    9 1
    32   32   10 1
    33   33   13 1
    34   34   14 1
    35   35   15 1
    36   36   16 1
    37    7   17 1
    38   15   16 ar
@<TRIPOS>SUBSTRUCTURE
     1 RES1 1

@<TRIPOS>CRYSIN
  13.3934    8.2172   14.0612  90.0000 100.4920  90.0000 231 1

