# MOL2 file generated by ConQuest
# Please check atom types

@<TRIPOS>MOLECULE
VINMAG
    36    38     1
SMALL
NO_CHARGES
****
Generated from CSD

@<TRIPOS>ATOM
      1 O1         1.6550    3.4836    6.4832 O.2       1 RES1    0.0000
      2 O2         3.1924    2.6324    5.9522 O.2       1 RES1    0.0000
      3 O3         0.6171   -0.8932    1.0703 O.3       1 RES1    0.0000
      4 N1         2.6276    2.9608    6.9893 N.pl3     1 RES1    0.0000
      5 N2         1.0181    0.8031    7.0307 N.2       1 RES1    0.0000
      6 N3         0.1244    0.1156    6.4997 N.2       1 RES1    0.0000
      7 C1         2.6245    2.7797    8.4561 C.ar      1 RES1    0.0000
      8 C2         3.4810    3.5931    9.1282 C.ar      1 RES1    0.0000
      9 C3         3.4649    3.5921   10.5337 C.ar      1 RES1    0.0000
     10 C4         2.5951    2.8022   11.2007 C.ar      1 RES1    0.0000
     11 C5         0.8268    1.1049   11.2273 C.ar      1 RES1    0.0000
     12 C6        -0.0005    0.2537   10.5801 C.ar      1 RES1    0.0000
     13 C7         0.0305    0.1678    9.1863 C.ar      1 RES1    0.0000
     14 C8         0.8797    0.9464    8.4445 C.ar      1 RES1    0.0000
     15 C9         1.7273    1.8917    9.0867 C.ar      1 RES1    0.0000
     16 C10        1.7182    1.9428   10.5187 C.ar      1 RES1    0.0000
     17 C11        0.2719   -0.0767    5.0992 C.ar      1 RES1    0.0000
     18 C12        1.1871    0.5965    4.3011 C.ar      1 RES1    0.0000
     19 C13        1.2540    0.2946    2.9603 C.ar      1 RES1    0.0000
     20 C14        0.4339   -0.6773    2.4011 C.ar      1 RES1    0.0000
     21 C15       -0.4765   -1.3392    3.1893 C.ar      1 RES1    0.0000
     22 C16       -0.5568   -1.0251    4.5317 C.ar      1 RES1    0.0000
     23 C17       -0.1700   -1.9111    0.4497 C.3       1 RES1    0.0000
     24 H1         4.0823    4.1640    8.6453 H         1 RES1    0.0000
     25 H2         4.0476    4.1537   10.9518 H         1 RES1    0.0000
     26 H3         2.5222    2.8237   12.1798 H         1 RES1    0.0000
     27 H4         0.8642    1.1766   12.1466 H         1 RES1    0.0000
     28 H5        -0.6389   -0.2865   11.0846 H         1 RES1    0.0000
     29 H6        -0.4571   -0.4604    8.7449 H         1 RES1    0.0000
     30 H7         1.7678    1.2993    4.6628 H         1 RES1    0.0000
     31 H8         1.8971    0.7366    2.4393 H         1 RES1    0.0000
     32 H9        -0.9835   -1.9950    2.8375 H         1 RES1    0.0000
     33 H10       -1.1328   -1.4835    5.1109 H         1 RES1    0.0000
     34 H11        0.1963   -1.9132   -0.4812 H         1 RES1    0.0000
     35 H12       -0.0462   -2.7623    0.8961 H         1 RES1    0.0000
     36 H13       -1.1256   -1.6369    0.4646 H         1 RES1    0.0000
@<TRIPOS>BOND
     1    1    4 2
     2    2    4 2
     3    3   20 1
     4    4    7 1
     5    5    6 2
     6    6   17 1
     7    7    8 ar
     8    8    9 ar
     9    9   10 ar
    10   10   16 ar
    11   11   12 ar
    12   12   13 ar
    13   13   14 ar
    14   14    5 1
    15   15    7 ar
    16   16   11 ar
    17   17   18 ar
    18   18   19 ar
    19   19   20 ar
    20   20   21 ar
    21   21   22 ar
    22   22   17 ar
    23   23    3 1
    24   24    8 1
    25   25    9 1
    26   26   10 1
    27   27   11 1
    28   28   12 1
    29   29   13 1
    30   30   18 1
    31   31   19 1
    32   32   21 1
    33   33   22 1
    34   34   23 1
    35   35   23 1
    36   36   23 1
    37   14   15 ar
    38   15   16 ar
@<TRIPOS>SUBSTRUCTURE
     1 RES1 1

@<TRIPOS>CRYSIN
   8.7198   10.2309   17.0150  90.0000 102.7770  90.0000  14 1

