# MOL2 file generated by ConQuest
# Please check atom types

@<TRIPOS>MOLECULE
VIPPEQ
    42    44     1
SMALL
NO_CHARGES
****
Generated from CSD

@<TRIPOS>ATOM
      1 O1         1.1057    5.3229   10.3287 O.2       1 RES1    0.0000
      2 O2         6.0099    6.0671    4.6632 O.2       1 RES1    0.0000
      3 O3         6.2155    4.5960    6.3502 O.3       1 RES1    0.0000
      4 O4        11.8528    1.8655    3.7946 O.2       1 RES1    0.0000
      5 O5        12.1646    3.5725    2.5446 O.2       1 RES1    0.0000
      6 N1        11.5136    2.9470    3.3523 N.pl3     1 RES1    0.0000
      7 C1         2.0692    5.9355    9.9519 C.2       1 RES1    0.0000
      8 C2         2.2047    7.4449    9.9824 C.3       1 RES1    0.0000
      9 H1         2.2000    7.7693   10.8960 H         1 RES1    0.0000
     10 H2         1.4756    7.8631    9.4994 H         1 RES1    0.0000
     11 C3         3.5474    7.7534    9.3070 C.3       1 RES1    0.0000
     12 H3         3.4900    8.5508    8.7588 H         1 RES1    0.0000
     13 H4         4.2525    7.8680    9.9629 H         1 RES1    0.0000
     14 C4         3.7818    6.5122    8.4547 C.3       1 RES1    0.0000
     15 H5         3.1241    6.5573    7.7295 H         1 RES1    0.0000
     16 C5         3.3284    5.3502    9.3634 C.3       1 RES1    0.0000
     17 C6         3.1922    4.0895    8.5237 C.3       1 RES1    0.0000
     18 H6         2.4591    4.1943    7.8965 H         1 RES1    0.0000
     19 H7         2.9892    3.3360    9.1006 H         1 RES1    0.0000
     20 C7         4.4889    3.8090    7.7527 C.3       1 RES1    0.0000
     21 H8         5.1839    3.5579    8.3817 H         1 RES1    0.0000
     22 H9         4.3460    3.0604    7.1520 H         1 RES1    0.0000
     23 C8         4.9569    5.0088    6.9473 C.3       1 RES1    0.0000
     24 H10        4.3086    5.1880    6.2347 H         1 RES1    0.0000
     25 C9         5.1198    6.2525    7.7863 C.3       1 RES1    0.0000
     26 H11        5.3702    7.0060    7.2286 H         1 RES1    0.0000
     27 H12        5.8109    6.1196    8.4543 H         1 RES1    0.0000
     28 C10        4.2498    5.1332   10.5728 C.3       1 RES1    0.0000
     29 H13        3.9748    4.3467   11.0472 H         1 RES1    0.0000
     30 H14        4.1971    5.8940   11.1553 H         1 RES1    0.0000
     31 H15        5.1546    5.0247   10.2713 H         1 RES1    0.0000
     32 C11        6.6121    5.1819    5.2158 C.2       1 RES1    0.0000
     33 C12        7.8721    4.5894    4.7271 C.ar      1 RES1    0.0000
     34 C13        8.6773    5.2978    3.8600 C.ar      1 RES1    0.0000
     35 H16        8.4109    6.1427    3.5770 H         1 RES1    0.0000
     36 C14        9.8691    4.7771    3.4067 C.ar      1 RES1    0.0000
     37 H17       10.4153    5.2709    2.8384 H         1 RES1    0.0000
     38 C15       10.2364    3.5127    3.8109 C.ar      1 RES1    0.0000
     39 C16        9.4338    2.7678    4.6310 C.ar      1 RES1    0.0000
     40 H18        9.6822    1.9033    4.8675 H         1 RES1    0.0000
     41 C17        8.2580    3.3030    5.1040 C.ar      1 RES1    0.0000
     42 H19        7.7192    2.8068    5.6768 H         1 RES1    0.0000
@<TRIPOS>BOND
     1    1    7 2
     2    2   32 2
     3    3   23 1
     4    4    6 2
     5    5    6 2
     6    6   38 1
     7    7    8 1
     8    8    9 1
     9   10    8 1
    10   11    8 1
    11   12   11 1
    12   13   11 1
    13   14   11 1
    14   15   14 1
    15   16    7 1
    16   17   16 1
    17   18   17 1
    18   19   17 1
    19   20   17 1
    20   21   20 1
    21   22   20 1
    22   23   20 1
    23   24   23 1
    24   25   14 1
    25   26   25 1
    26   27   25 1
    27   28   16 1
    28   29   28 1
    29   30   28 1
    30   31   28 1
    31   32    3 1
    32   33   32 1
    33   34   33 ar
    34   35   34 1
    35   36   34 ar
    36   37   36 1
    37   38   36 ar
    38   39   38 ar
    39   40   39 1
    40   41   33 ar
    41   42   41 1
    42   14   16 1
    43   23   25 1
    44   39   41 ar
@<TRIPOS>SUBSTRUCTURE
     1 RES1 1

@<TRIPOS>CRYSIN
   6.6769   12.1928   19.6430  90.0000  90.0000  90.0000  19 1

