# MOL2 file generated by ConQuest
# Please check atom types

@<TRIPOS>MOLECULE
VIPYID
    32    32     2
SMALL
NO_CHARGES
****
Generated from CSD

@<TRIPOS>ATOM
      1 O1         0.9887   -1.0073    4.8199 O.2       1 RES1    0.0000
      2 O2         0.5407    2.9420    1.7854 O.2       1 RES1    0.0000
      3 O3        -0.1086    4.3831    3.2734 O.2       1 RES1    0.0000
      4 N1         1.1753    0.2593    4.8639 N.pl3     1 RES1    0.0000
      5 N2         0.3823    3.3158    2.9455 N.pl3     1 RES1    0.0000
      6 C1         0.6802    1.0594    3.8834 C.ar      1 RES1    0.0000
      7 C2         0.8534    2.4188    4.0199 C.ar      1 RES1    0.0000
      8 C3         1.5122    2.9979    5.0854 C.ar      1 RES1    0.0000
      9 C4         2.0545    2.1501    6.0478 C.ar      1 RES1    0.0000
     10 C5         1.8671    0.7985    5.9052 C.ar      1 RES1    0.0000
     11 C6         2.8445    2.6749    7.2147 C.3       1 RES1    0.0000
     12 H1         2.3000    2.6226    8.0275 H         1 RES1    0.0000
     13 H2         3.0928    3.6086    7.0471 H         1 RES1    0.0000
     14 H3         3.6549    2.1363    7.3290 H         1 RES1    0.0000
     15 O4        -1.8467    1.6581    3.5490 Du        2 SUP2    0.0000
     16 O5         2.5544   -0.2635    2.4022 O.2       1 RES1    0.0000
     17 O6         1.9905   -2.2108    1.6655 O.2       1 RES1    0.0000
     18 N3        -1.3911    0.8287    2.7262 N.ar      1 RES1    0.0000
     19 N4         1.7183   -1.0812    2.0428 N.pl3     1 RES1    0.0000
     20 C7        -0.1278    0.3910    2.8255 C.ar      1 RES1    0.0000
     21 C8         0.3071   -0.6651    2.0341 C.ar      1 RES1    0.0000
     22 C9        -0.5599   -1.3407    1.1941 C.ar      1 RES1    0.0000
     23 C10       -1.8807   -0.9134    1.1180 C.ar      1 RES1    0.0000
     24 C11       -2.2258    0.1917    1.8804 C.ar      1 RES1    0.0000
     25 C12       -2.8922   -1.6300    0.2686 C.3       1 RES1    0.0000
     26 H4        -3.7592   -1.1786    0.3430 H         1 RES1    0.0000
     27 H5        -2.9789   -2.5566    0.5751 H         1 RES1    0.0000
     28 H6        -2.5980   -1.6218   -0.6668 H         1 RES1    0.0000
     29 H7         1.6296    3.8861    5.1566 H         1 RES1    0.0000
     30 H8         2.2195    0.1064    6.5094 H         1 RES1    0.0000
     31 H9        -0.2720   -2.0097    0.7177 H         1 RES1    0.0000
     32 H10       -3.1419    0.5455    1.8385 H         1 RES1    0.0000
@<TRIPOS>BOND
     1    1    4 1
     2    2    5 2
     3    3    5 2
     4    4    6 ar
     5    5    7 1
     6    6    7 ar
     7    7    8 ar
     8    8    9 ar
     9    9   10 ar
    10   10    4 ar
    11   11    9 1
    12   12   11 1
    13   13   11 1
    14   14   11 1
    15   16   19 2
    16   17   19 2
    17   18   20 ar
    18   19   21 1
    19   20    6 1
    20   21   20 ar
    21   22   21 ar
    22   23   22 ar
    23   24   18 ar
    24   25   23 1
    25   26   25 1
    26   27   25 1
    27   28   25 1
    28   29    8 1
    29   30   10 1
    30   31   22 1
    31   32   24 1
    32   23   24 ar
@<TRIPOS>SUBSTRUCTURE
     1 RES1 1
     2 SUP2 15

@<TRIPOS>CRYSIN
   8.1670   13.4699   11.3597  90.0000  94.7505  90.0000  14 2

