# MOL2 file generated by ConQuest
# Please check atom types

@<TRIPOS>MOLECULE
VIQDUV
    36    39     1
SMALL
NO_CHARGES
****
Generated from CSD

@<TRIPOS>ATOM
      1 N1        -0.4994   10.1781    1.4875 N.3       1 RES1    0.0000
      2 C1        -0.7047    8.9149    1.9359 C.2       1 RES1    0.0000
      3 N2        -1.7083    8.7935    2.7692 N.2       1 RES1    0.0000
      4 C2        -3.2926   10.5541    3.6233 C.ar      1 RES1    0.0000
      5 C3        -3.5990   11.8844    3.5313 C.ar      1 RES1    0.0000
      6 C4        -2.8573   12.7459    2.7262 C.ar      1 RES1    0.0000
      7 C5        -1.7765   12.3039    1.9786 C.ar      1 RES1    0.0000
      8 C6        -2.2060   10.0863    2.8817 C.ar      1 RES1    0.0000
      9 C7        -1.4726   10.9636    2.0838 C.ar      1 RES1    0.0000
     10 C8         0.5757   10.6156    0.6151 C.3       1 RES1    0.0000
     11 C9         1.6976   11.2825    1.3881 C.3       1 RES1    0.0000
     12 C10        2.8130   11.6822    0.4756 C.2       1 RES1    0.0000
     13 N3         3.7238   10.7801   -0.0212 N.2       1 RES1    0.0000
     14 C11        4.4967   11.5317   -0.7424 C.2       1 RES1    0.0000
     15 O1         4.1346   12.8184   -0.7560 O.3       1 RES1    0.0000
     16 N4         2.9838   12.9034    0.0755 N.2       1 RES1    0.0000
     17 C12        5.6802   11.1332   -1.5055 C.ar      1 RES1    0.0000
     18 C13        6.0473    9.8000   -1.5166 C.ar      1 RES1    0.0000
     19 C14        7.1561    9.3972   -2.2512 C.ar      1 RES1    0.0000
     20 C15        7.8903   10.3203   -2.9474 C.ar      1 RES1    0.0000
     21 C16        7.5314   11.6450   -2.9362 C.ar      1 RES1    0.0000
     22 C17        6.4202   12.0757   -2.2198 C.ar      1 RES1    0.0000
     23 H1        -0.1725    8.1900    1.5846 H         1 RES1    0.0000
     24 H2        -3.8437    9.9354    4.1406 H         1 RES1    0.0000
     25 H3        -4.3447   12.2626    3.9913 H         1 RES1    0.0000
     26 H4        -3.1210   13.6835    2.6924 H         1 RES1    0.0000
     27 H5        -1.2895   12.9563    1.3968 H         1 RES1    0.0000
     28 H6         0.2218   11.2668   -0.0161 H         1 RES1    0.0000
     29 H7         1.0020    9.7564    0.1927 H         1 RES1    0.0000
     30 H8         1.4127   12.0276    1.8287 H         1 RES1    0.0000
     31 H9         2.0368   10.6626    2.0872 H         1 RES1    0.0000
     32 H10        5.5274    9.0963   -1.0002 H         1 RES1    0.0000
     33 H11        7.4329    8.4026   -2.2317 H         1 RES1    0.0000
     34 H12        8.6730   10.0249   -3.4358 H         1 RES1    0.0000
     35 H13        8.0571   12.2850   -3.4518 H         1 RES1    0.0000
     36 H14        6.1188   13.0570   -2.1835 H         1 RES1    0.0000
@<TRIPOS>BOND
     1    1    2 1
     2    2    3 2
     3    3    8 1
     4    4    5 ar
     5    5    6 ar
     6    6    7 ar
     7    7    9 ar
     8    8    4 ar
     9    9    1 1
    10   10    1 1
    11   11   10 1
    12   12   11 1
    13   13   12 1
    14   14   13 2
    15   15   14 1
    16   16   12 2
    17   17   14 1
    18   18   17 ar
    19   19   18 ar
    20   20   19 ar
    21   21   20 ar
    22   22   17 ar
    23   23    2 1
    24   24    4 1
    25   25    5 1
    26   26    6 1
    27   27    7 1
    28   28   10 1
    29   29   10 1
    30   30   11 1
    31   31   11 1
    32   32   18 1
    33   33   19 1
    34   34   20 1
    35   35   21 1
    36   36   22 1
    37    8    9 ar
    38   15   16 1
    39   21   22 ar
@<TRIPOS>SUBSTRUCTURE
     1 RES1 1

@<TRIPOS>CRYSIN
   8.2131   11.1885   16.0551  90.0000  90.0000  90.0000  33 1

