# MOL2 file generated by ConQuest
# Please check atom types

@<TRIPOS>MOLECULE
VIRDEH
    47    51     1
SMALL
NO_CHARGES
****
Generated from CSD

@<TRIPOS>ATOM
      1 O1         3.0104    8.8306    6.8845 O.3       1 RES1    0.0000
      2 H1         3.0994    8.7443    7.6956 H         1 RES1    0.0000
      3 C1        -0.9424    5.1199   12.4165 C.3       1 RES1    0.0000
      4 C2         0.7472    3.7187   11.1882 C.3       1 RES1    0.0000
      5 C3        -0.2058    6.6426    5.4877 C.ar      1 RES1    0.0000
      6 H2        -1.5190    5.9249    4.0511 H         1 RES1    0.0000
      7 H3        -3.7853   11.9634   11.6916 H         1 RES1    0.0000
      8 H4         0.2182   11.3446   14.1324 H         1 RES1    0.0000
      9 H5        -1.0331   13.3510   14.3711 H         1 RES1    0.0000
     10 H6        -2.9485   13.6576   13.2976 H         1 RES1    0.0000
     11 H7        -2.4649   10.0320   11.4905 H         1 RES1    0.0000
     12 H8        -2.8910    4.6725    5.5528 H         1 RES1    0.0000
     13 H9         0.1740    2.9568   11.1968 H         1 RES1    0.0000
     14 H10        1.2015    3.7039   11.9651 H         1 RES1    0.0000
     15 H11       -1.5121    4.3716   12.4570 H         1 RES1    0.0000
     16 H12        1.2364    3.5325   10.4127 H         1 RES1    0.0000
     17 H13       -0.4979    5.0529   13.2383 H         1 RES1    0.0000
     18 H14       -1.3875    5.8591   12.3991 H         1 RES1    0.0000
     19 H15        1.9464    6.0532   11.3488 H         1 RES1    0.0000
     20 H16       -0.9462    8.3367   10.7483 H         1 RES1    0.0000
     21 H17        0.3615    7.2716    4.8931 H         1 RES1    0.0000
     22 H18       -2.1973    4.4806    7.8576 H         1 RES1    0.0000
     23 O2        -0.8366    5.0729    9.9997 O.3       1 RES1    0.0000
     24 O3         2.7050    7.9325    9.2039 O.2       1 RES1    0.0000
     25 C4         0.9136    6.4473    9.5857 C.2       1 RES1    0.0000
     26 N1         0.6124    7.4283   11.7921 N.3       1 RES1    0.0000
     27 C5         1.7165    7.2773    8.7749 C.2       1 RES1    0.0000
     28 N2         1.2667    7.7451   12.9326 N.2       1 RES1    0.0000
     29 N3         0.7301    8.8488   13.3976 N.2       1 RES1    0.0000
     30 C6        -1.7044    5.0926    7.2673 C.ar      1 RES1    0.0000
     31 C7        -0.6063    5.8296    7.7178 C.ar      1 RES1    0.0000
     32 C8         1.3232    7.3772    7.3397 C.2       1 RES1    0.0000
     33 C9         0.1581    6.6130    6.8376 C.ar      1 RES1    0.0000
     34 C10       -1.0699   10.4566   12.7692 C.ar      1 RES1    0.0000
     35 C11       -0.1657    5.7830    9.0990 C.2       1 RES1    0.0000
     36 N4         1.9336    8.1096    6.4669 N.2       1 RES1    0.0000
     37 C12       -2.2915   10.6429   12.1213 C.ar      1 RES1    0.0000
     38 C13       -0.0085    5.0245   11.2417 C.3       1 RES1    0.0000
     39 C14       -1.3147   12.6402   13.7635 C.ar      1 RES1    0.0000
     40 C15       -1.3024    5.9102    5.0522 C.ar      1 RES1    0.0000
     41 C16       -0.3551    8.3253   11.5345 C.2       1 RES1    0.0000
     42 C17       -2.0535    5.1437    5.9334 C.ar      1 RES1    0.0000
     43 C18       -0.5942   11.4706   13.5978 C.ar      1 RES1    0.0000
     44 C19       -0.2894    9.2417   12.5555 C.2       1 RES1    0.0000
     45 C20        0.9925    6.2258   11.0623 C.3       1 RES1    0.0000
     46 C21       -2.5211   12.8150   13.1110 C.ar      1 RES1    0.0000
     47 C22       -2.9918   11.8147   12.2776 C.ar      1 RES1    0.0000
@<TRIPOS>BOND
     1    1    2 1
     2    3   15 1
     3    4   13 1
     4    5   21 1
     5    6   40 1
     6    7   47 1
     7    8   43 1
     8    9   39 1
     9   10   46 1
    10   11   37 1
    11   12   42 1
    12   14    4 1
    13   16    4 1
    14   17    3 1
    15   18    3 1
    16   19   45 1
    17   20   41 1
    18   22   30 1
    19   23   35 1
    20   24   27 2
    21   25   27 1
    22   26   28 1
    23   27   32 1
    24   28   29 2
    25   29   44 1
    26   30   31 ar
    27   31   33 ar
    28   32   33 1
    29   33    5 ar
    30   34   37 ar
    31   35   25 2
    32   36    1 1
    33   37   47 ar
    34   38    3 1
    35   39   43 ar
    36   40    5 ar
    37   41   26 1
    38   42   30 ar
    39   43   34 ar
    40   44   34 1
    41   45   25 1
    42   46   39 ar
    43   47   46 ar
    44    4   38 1
    45   23   38 1
    46   26   45 1
    47   31   35 1
    48   32   36 2
    49   38   45 1
    50   40   42 ar
    51   41   44 2
@<TRIPOS>SUBSTRUCTURE
     1 RES1 1

@<TRIPOS>CRYSIN
   5.6099   11.3548   14.5658  90.0000  96.6410  90.0000   4 1

