# MOL2 file generated by ConQuest
# Please check atom types

@<TRIPOS>MOLECULE
VIRHEJ
    35    37     1
SMALL
USER_CHARGES
****
Generated from CSD

@<TRIPOS>ATOM
      1 N1         1.9068    0.6707    2.2541 N.pl3     1 RES1    1.0000
      2 C1         1.3149    1.6589    1.4804 C.ar      1 RES1    0.0000
      3 C2         0.7412    2.8566    1.8986 C.ar      1 RES1    0.0000
      4 C3         0.1742    3.6518    0.9266 C.ar      1 RES1    0.0000
      5 C4         0.1793    3.2681   -0.4147 C.ar      1 RES1    0.0000
      6 C5         0.7779    2.0957   -0.8260 C.ar      1 RES1    0.0000
      7 C6         1.3707    1.2661    0.1343 C.ar      1 RES1    0.0000
      8 C7         2.0536   -0.0104    0.1112 C.2       1 RES1    0.0000
      9 C8         2.3663   -0.3256    1.4343 C.2       1 RES1    0.0000
     10 C9         3.0502   -1.5292    1.9466 C.ar      1 RES1    0.0000
     11 C10        4.3464   -1.8309    1.5309 C.ar      1 RES1    0.0000
     12 C11        4.9774   -2.9748    1.9985 C.ar      1 RES1    0.0000
     13 C12        4.3344   -3.8209    2.8711 C.ar      1 RES1    0.0000
     14 C13        3.0495   -3.5356    3.2892 C.ar      1 RES1    0.0000
     15 C14        2.4085   -2.3938    2.8285 C.ar      1 RES1    0.0000
     16 C15        2.2857   -0.9043   -0.9774 C.2       1 RES1    0.0000
     17 C16        1.9045   -0.7272   -2.2439 C.2       1 RES1    0.0000
     18 C17        2.0161    0.7659    3.7051 C.3       1 RES1    0.0000
     19 N2         2.1369   -1.7554   -3.2096 N.pl3     1 RES1    1.0000
     20 O1         1.5822   -1.6377   -4.3038 O.2       1 RES1   -1.0000
     21 O2         2.8393   -2.7147   -2.9423 O.2       1 RES1   -1.0000
     22 H1         0.7127    3.1080    2.8182 H         1 RES1    0.0000
     23 H2        -0.2670    4.4970    1.1255 H         1 RES1    0.0000
     24 H3        -0.2918    3.8546   -1.0470 H         1 RES1    0.0000
     25 H4         0.7925    1.8578   -1.7886 H         1 RES1    0.0000
     26 H5         4.8206   -1.2154    0.8987 H         1 RES1    0.0000
     27 H6         5.8541   -3.1948    1.7276 H         1 RES1    0.0000
     28 H7         4.7789   -4.6533    3.2283 H         1 RES1    0.0000
     29 H8         2.5850   -4.1498    3.9437 H         1 RES1    0.0000
     30 H9         1.5042   -2.2051    3.0799 H         1 RES1    0.0000
     31 H10        2.7806   -1.7189   -0.7940 H         1 RES1    0.0000
     32 H11        1.4166   -0.0174   -2.6262 H         1 RES1    0.0000
     33 H12        1.0976    0.9029    4.0920 H         1 RES1    0.0000
     34 H13        2.6164    1.4759    3.8914 H         1 RES1    0.0000
     35 H14        2.3625   -0.1042    4.0920 H         1 RES1    0.0000
@<TRIPOS>BOND
     1    1    2 1
     2    2    3 ar
     3    3    4 ar
     4    4    5 ar
     5    5    6 ar
     6    6    7 ar
     7    7    2 ar
     8    8    7 1
     9    9    1 2
    10   10    9 1
    11   11   10 ar
    12   12   11 ar
    13   13   12 ar
    14   14   13 ar
    15   15   10 ar
    16   16    8 2
    17   17   16 1
    18   18    1 1
    19   19   17 2
    20   20   19 1
    21   21   19 1
    22   22    3 1
    23   23    4 1
    24   24    5 1
    25   25    6 1
    26   26   11 1
    27   27   12 1
    28   28   13 1
    29   29   14 1
    30   30   15 1
    31   31   16 1
    32   32   17 1
    33   33   18 1
    34   34   18 1
    35   35   18 1
    36    8    9 1
    37   14   15 ar
@<TRIPOS>SUBSTRUCTURE
     1 RES1 1

@<TRIPOS>CRYSIN
   9.3010   17.3630    8.9840  90.0000 103.7910  90.0000  14 1

