# MOL2 file generated by ConQuest
# Please check atom types

@<TRIPOS>MOLECULE
VIRVAV
    32    33     1
SMALL
NO_CHARGES
****
Generated from CSD

@<TRIPOS>ATOM
      1 C1         9.0348   -0.2265   11.7560 C.ar      1 RES1    0.0000
      2 H1         8.2406   -0.5979   12.1220 H         1 RES1    0.0000
      3 C2         9.7257    0.7460   12.4339 C.ar      1 RES1    0.0000
      4 H2         9.4029    1.0597   13.2691 H         1 RES1    0.0000
      5 C3        10.8967    1.2747   11.9069 C.ar      1 RES1    0.0000
      6 C4        11.3930    0.8604   10.6567 C.ar      1 RES1    0.0000
      7 C5        10.6651   -0.1163    9.9776 C.ar      1 RES1    0.0000
      8 H3        10.9621   -0.4124    9.1261 H         1 RES1    0.0000
      9 C6         9.5183   -0.6606   10.5222 C.ar      1 RES1    0.0000
     10 H4         9.0518   -1.3402   10.0493 H         1 RES1    0.0000
     11 C7        13.5165    0.6030    9.4757 C.2       1 RES1    0.0000
     12 C8        15.7769    0.7566    8.6368 C.ar      1 RES1    0.0000
     13 C9        16.5657    1.0823    7.5263 C.ar      1 RES1    0.0000
     14 C10       17.7934    0.4775    7.2873 C.ar      1 RES1    0.0000
     15 H5        18.2956    0.7123    6.5150 H         1 RES1    0.0000
     16 C11       18.2866   -0.4650    8.1715 C.ar      1 RES1    0.0000
     17 H6        19.1264   -0.8821    8.0143 H         1 RES1    0.0000
     18 C12       17.5236   -0.7953    9.3047 C.ar      1 RES1    0.0000
     19 H7        17.8507   -1.4398    9.9210 H         1 RES1    0.0000
     20 C13       16.3094   -0.1901    9.5260 C.ar      1 RES1    0.0000
     21 H8        15.8162   -0.4198   10.3046 H         1 RES1    0.0000
     22 N1        11.5862    2.2813   12.7144 N.pl3     1 RES1    0.0000
     23 N2        12.5705    1.3780   10.1008 N.am      1 RES1    0.0000
     24 H9        12.7110    2.2448   10.1537 H         1 RES1    0.0000
     25 N3        14.5381    1.3314    8.9186 N.am      1 RES1    0.0000
     26 H10       14.4075    2.1816    8.7337 H         1 RES1    0.0000
     27 N4        16.1213    2.0525    6.5314 N.pl3     1 RES1    0.0000
     28 O1        13.4583   -0.6210    9.4191 O.2       1 RES1    0.0000
     29 O2        12.4120    3.0051   12.1773 O.2       1 RES1    0.0000
     30 O3        11.3003    2.3542   13.9042 O.2       1 RES1    0.0000
     31 O4        15.1906    2.8081    6.7980 O.2       1 RES1    0.0000
     32 O5        16.7061    2.0824    5.4472 O.2       1 RES1    0.0000
@<TRIPOS>BOND
     1    1    2 1
     2    3    1 ar
     3    4    3 1
     4    5    3 ar
     5    6    5 ar
     6    7    6 ar
     7    8    7 1
     8    9    1 ar
     9   10    9 1
    10   11   23 1
    11   12   13 ar
    12   13   14 ar
    13   14   15 1
    14   16   14 ar
    15   17   16 1
    16   18   16 ar
    17   19   18 1
    18   20   12 ar
    19   21   20 1
    20   22    5 1
    21   23    6 1
    22   24   23 1
    23   25   11 1
    24   26   25 1
    25   27   13 1
    26   28   11 2
    27   29   22 2
    28   30   22 2
    29   31   27 2
    30   32   27 2
    31    7    9 ar
    32   12   25 1
    33   18   20 ar
@<TRIPOS>SUBSTRUCTURE
     1 RES1 1

@<TRIPOS>CRYSIN
  21.8064    4.6133   12.5773  90.0000  90.0000  90.0000  29 1

