# MOL2 file generated by ConQuest
# Please check atom types

@<TRIPOS>MOLECULE
VIRWIC
    32    34     1
SMALL
NO_CHARGES
****
Generated from CSD

@<TRIPOS>ATOM
      1 C1        -0.2274    9.1828    2.7758 C.3       1 RES1    0.0000
      2 C2        -0.1830    8.5356    1.4053 C.3       1 RES1    0.0000
      3 C3        -0.9041    9.5608    0.5141 C.3       1 RES1    0.0000
      4 C4        -1.3769   10.6637    1.4971 C.3       1 RES1    0.0000
      5 C5        -2.4802   10.0760    2.3741 C.3       1 RES1    0.0000
      6 C6        -1.7247    9.0145    3.1911 C.3       1 RES1    0.0000
      7 C7        -0.2144   10.6870    2.4813 C.3       1 RES1    0.0000
      8 C8        -0.1573   11.3187    3.8582 C.3       1 RES1    0.0000
      9 C9         0.6697   10.3219    4.6959 C.3       1 RES1    0.0000
     10 C10        0.7706    8.9964    3.9028 C.3       1 RES1    0.0000
     11 O1         1.1645    8.3984    0.8532 O.3       1 RES1    0.0000
     12 N1         1.8627    7.2593    1.2620 N.pl3     1 RES1    0.0000
     13 O2         1.2876    6.4619    1.9556 O.2       1 RES1    0.0000
     14 O3         2.9768    7.2204    0.8461 O.2       1 RES1    0.0000
     15 O4         1.0793   10.9381    1.8038 O.3       1 RES1    0.0000
     16 N2         1.2768   12.2377    1.3259 N.pl3     1 RES1    0.0000
     17 O5         2.3439   12.3749    0.7970 O.2       1 RES1    0.0000
     18 O6         0.4086   13.0610    1.4861 O.2       1 RES1    0.0000
     19 H1        -0.5531    7.6502    1.4512 H         1 RES1    0.0000
     20 H2        -0.3044    9.9258   -0.1427 H         1 RES1    0.0000
     21 H3        -1.6544    9.1569    0.0730 H         1 RES1    0.0000
     22 H4        -1.6366   11.4766    1.0572 H         1 RES1    0.0000
     23 H5        -2.8679   10.7465    2.9418 H         1 RES1    0.0000
     24 H6        -3.1686    9.6721    1.8406 H         1 RES1    0.0000
     25 H7        -1.8333    9.1777    4.1308 H         1 RES1    0.0000
     26 H8        -2.0404    8.1317    2.9806 H         1 RES1    0.0000
     27 H9         0.2763   12.1730    3.8221 H         1 RES1    0.0000
     28 H10       -1.0395   11.4222    4.2231 H         1 RES1    0.0000
     29 H11        1.5482   10.6766    4.8516 H         1 RES1    0.0000
     30 H12        0.2347   10.1640    5.5368 H         1 RES1    0.0000
     31 H13        0.5345    8.2456    4.4550 H         1 RES1    0.0000
     32 H14        1.6570    8.8722    3.5566 H         1 RES1    0.0000
@<TRIPOS>BOND
     1    1    2 1
     2    2    3 1
     3    3    4 1
     4    4    5 1
     5    5    6 1
     6    6    1 1
     7    7    1 1
     8    8    7 1
     9    9    8 1
    10   10    1 1
    11   11    2 1
    12   12   11 1
    13   13   12 2
    14   14   12 2
    15   15    7 1
    16   16   15 1
    17   17   16 2
    18   18   16 2
    19   19    2 1
    20   20    3 1
    21   21    3 1
    22   22    4 1
    23   23    5 1
    24   24    5 1
    25   25    6 1
    26   26    6 1
    27   27    8 1
    28   28    8 1
    29   29    9 1
    30   30    9 1
    31   31   10 1
    32   32   10 1
    33    4    7 1
    34    9   10 1
@<TRIPOS>SUBSTRUCTURE
     1 RES1 1

@<TRIPOS>CRYSIN
   6.9460   25.8890    6.9740  90.0000 112.1700  90.0000 231 1

