# MOL2 file generated by ConQuest
# Please check atom types

@<TRIPOS>MOLECULE
VISMIV
    71    48     2
SMALL
NO_CHARGES
****
Generated from CSD

@<TRIPOS>ATOM
      1 N1         6.7120   -2.6136    9.8655 N.pl3     1 RES1    0.0000
      2 O1         8.3213    2.9769    3.6260 O.2       1 RES1    0.0000
      3 O2         6.6392   -2.1907   10.9961 O.2       1 RES1    0.0000
      4 O3         6.6103   -3.7992    9.5895 O.2       1 RES1    0.0000
      5 C1         7.4349    0.1037    6.7173 C.ar      1 RES1    0.0000
      6 C2         7.4579   -1.2799    6.4957 C.ar      1 RES1    0.0000
      7 H1         7.6281   -1.6026    5.6399 H         1 RES1    0.0000
      8 C3         7.2360   -2.1657    7.5174 C.ar      1 RES1    0.0000
      9 H2         7.2618   -3.0822    7.3652 H         1 RES1    0.0000
     10 C4         6.9749   -1.6700    8.7727 C.ar      1 RES1    0.0000
     11 C5         6.9665   -0.3198    9.0390 C.ar      1 RES1    0.0000
     12 H3         6.8061   -0.0047    9.8998 H         1 RES1    0.0000
     13 C6         7.1989    0.5503    8.0042 C.ar      1 RES1    0.0000
     14 H4         7.1984    1.4644    8.1731 H         1 RES1    0.0000
     15 C7         7.6763    1.0642    5.6435 C.2       1 RES1    0.0000
     16 H5         7.6737    1.9646    5.8759 H         1 RES1    0.0000
     17 C8         7.8970    0.7785    4.3814 C.2       1 RES1    0.0000
     18 H6         7.9168   -0.1172    4.1292 H         1 RES1    0.0000
     19 C9         8.1152    1.8011    3.3406 C.2       1 RES1    0.0000
     20 C10        8.0586    1.3329    1.9605 C.2       1 RES1    0.0000
     21 H7         8.2328    0.4370    1.7826 H         1 RES1    0.0000
     22 C11        7.7684    2.1398    0.9518 C.2       1 RES1    0.0000
     23 H8         7.6355    3.0260    1.1986 H         1 RES1    0.0000
     24 C12        7.6221    1.8908   -0.4587 C.2       1 RES1    0.0000
     25 C13        6.3283    2.4930   -1.0373 C.3       1 RES1    0.0000
     26 C14        6.1703    2.0548   -2.4933 C.3       1 RES1    0.0000
     27 H9         6.0727    2.8702   -3.0079 H         1 RES1    0.0000
     28 H10        5.3170    1.5968   -2.5439 H         1 RES1    0.0000
     29 C15        7.1738    1.1715   -3.2786 C.3       1 RES1    0.0000
     30 H11        6.6804    0.4299   -3.6626 H         1 RES1    0.0000
     31 H12        7.5196    1.6987   -4.0159 H         1 RES1    0.0000
     32 C16        8.2901    0.6361   -2.5546 C.3       1 RES1    0.0000
     33 H13        9.1001    0.8552   -3.0399 H         1 RES1    0.0000
     34 H14        8.2107   -0.3315   -2.5466 H         1 RES1    0.0000
     35 C17        8.4522    1.1118   -1.1160 C.2       1 RES1    0.0000
     36 C18        6.3906    4.0288   -0.8280 C.3       1 RES1    0.0000
     37 H15        5.6131    4.4377   -1.2146 H         1 RES1    0.0000
     38 H16        7.1799    4.3779   -1.2506 H         1 RES1    0.0000
     39 H17        6.4191    4.2233    0.1120 H         1 RES1    0.0000
     40 C19        5.1218    2.0056   -0.2453 C.3       1 RES1    0.0000
     41 H18        5.2161    2.2680    0.6733 H         1 RES1    0.0000
     42 H19        5.0677    1.0485   -0.3000 H         1 RES1    0.0000
     43 H20        4.3227    2.3934   -0.6080 H         1 RES1    0.0000
     44 C20        9.7076    0.5436   -0.5307 C.3       1 RES1    0.0000
     45 H21        9.9384    1.0298    0.2653 H         1 RES1    0.0000
     46 H22       10.4202    0.6162   -1.1680 H         1 RES1    0.0000
     47 H23        9.5677   -0.3807   -0.3107 H         1 RES1    0.0000
     48 C21        7.6009    1.7291   -0.4707 Du        2 SUP2    0.0000
     49 C22        8.2809    0.4955   -1.0946 Du        2 SUP2    0.0000
     50 C23        8.2391    0.6865   -2.6239 Du        2 SUP2    0.0000
     51 H24        8.8321    1.4070   -2.8879 Du        2 SUP2    0.0000
     52 H25        8.5247   -0.1254   -3.0706 Du        2 SUP2    0.0000
     53 C24        6.7972    1.0192   -3.0106 Du        2 SUP2    0.0000
     54 H26        6.6243    0.8165   -3.9426 Du        2 SUP2    0.0000
     55 H27        6.1631    0.5459   -2.4546 Du        2 SUP2    0.0000
     56 C25        6.7539    2.4332   -2.7693 Du        2 SUP2    0.0000
     57 H28        5.9015    2.7987   -3.0533 Du        2 SUP2    0.0000
     58 H29        7.4634    2.8831   -3.2559 Du        2 SUP2    0.0000
     59 C26        6.9359    2.6172   -1.2840 Du        2 SUP2    0.0000
     60 C27        7.4869   -0.7896   -0.7160 Du        2 SUP2    0.0000
     61 H30        7.9201   -1.5569   -1.0973 Du        2 SUP2    0.0000
     62 H31        6.5923   -0.7252   -1.0586 Du        2 SUP2    0.0000
     63 H32        7.4590   -0.8786    0.2387 Du        2 SUP2    0.0000
     64 C28        9.7656    0.3878   -0.6413 Du        2 SUP2    0.0000
     65 H33        9.8004    0.2331    0.3067 Du        2 SUP2    0.0000
     66 H34       10.2240    1.2043   -0.8480 Du        2 SUP2    0.0000
     67 H35       10.1877   -0.3421   -1.1000 Du        2 SUP2    0.0000
     68 C29        6.2509    3.8800   -0.9213 Du        2 SUP2    0.0000
     69 H36        5.4657    3.6809   -0.4053 Du        2 SUP2    0.0000
     70 H37        5.9990    4.3486   -1.7200 Du        2 SUP2    0.0000
     71 H38        6.8444    4.4283   -0.4027 Du        2 SUP2    0.0000
@<TRIPOS>BOND
     1    1    3 2
     2    2   19 2
     3    4    1 2
     4    5    6 ar
     5    6    7 1
     6    8    6 ar
     7    9    8 1
     8   10    1 1
     9   11   10 ar
    10   12   11 1
    11   13    5 ar
    12   14   13 1
    13   15    5 1
    14   16   15 1
    15   17   15 2
    16   18   17 1
    17   19   17 1
    18   20   19 1
    19   21   20 1
    20   22   20 2
    21   23   22 1
    22   24   22 1
    23   25   24 1
    24   26   25 1
    25   27   26 1
    26   28   26 1
    27   29   26 1
    28   30   29 1
    29   31   29 1
    30   32   29 1
    31   33   32 1
    32   34   32 1
    33   35   24 2
    34   36   25 1
    35   37   36 1
    36   38   36 1
    37   39   36 1
    38   40   25 1
    39   41   40 1
    40   42   40 1
    41   43   40 1
    42   44   35 1
    43   45   44 1
    44   46   44 1
    45   47   44 1
    46    8   10 ar
    47   11   13 ar
    48   32   35 1
@<TRIPOS>SUBSTRUCTURE
     1 RES1 1
     2 SUP2 48

@<TRIPOS>CRYSIN
  11.5940   11.7151   14.2020  90.0000 110.1470  90.0000  14 1

