# MOL2 file generated by ConQuest
# Please check atom types

@<TRIPOS>MOLECULE
VITBAC
    14    14     1
SMALL
NO_CHARGES
****
Generated from CSD

@<TRIPOS>ATOM
      1 O1        -5.2117    0.7410    5.0188 O.2       1 RES1    0.0000
      2 O2        -3.2662    0.6428    4.0495 O.2       1 RES1    0.0000
      3 N1        -1.0871    1.6597    5.7681 N.2       1 RES1    0.0000
      4 N2        -1.5637    0.0383    7.2135 N.2       1 RES1    0.0000
      5 N3        -3.4086    1.1887    6.2052 N.pl3     1 RES1    0.0000
      6 N4         0.0007    1.1020    6.2854 N.3       1 RES1    0.0000
      7 N5        -0.2478    0.1442    7.1558 N.2       1 RES1    0.0000
      8 N6        -3.9901    0.8136    5.0124 N.pl3     1 RES1    0.0000
      9 C1        -2.0398    0.9586    6.3650 C.2       1 RES1    0.0000
     10 C2         1.3605    1.4789    5.9168 C.3       1 RES1    0.0000
     11 H1        -3.9324    1.0050    6.8591 H         1 RES1    0.0000
     12 H2         1.9345    1.1519    6.5707 H         1 RES1    0.0000
     13 H3         1.5714    1.0978    5.1054 H         1 RES1    0.0000
     14 H4         1.4052    2.4352    5.8381 H         1 RES1    0.0000
@<TRIPOS>BOND
     1    1    8 2
     2    2    8 2
     3    3    6 1
     4    4    7 2
     5    5    8 1
     6    6    7 1
     7    9    3 2
     8   10    6 1
     9   11    5 1
    10   12   10 1
    11   13   10 1
    12   14   10 1
    13    4    9 1
    14    5    9 1
@<TRIPOS>SUBSTRUCTURE
     1 RES1 1

@<TRIPOS>CRYSIN
   9.5278    7.7308    8.4598  90.0000 112.8750  90.0000  14 1

