# MOL2 file generated by ConQuest
# Please check atom types

@<TRIPOS>MOLECULE
VITMEQ
    45    47     1
SMALL
NO_CHARGES
****
Generated from CSD

@<TRIPOS>ATOM
      1 O1         5.7407    2.5129    6.5646 O.2       1 RES1    0.0000
      2 O2         4.2183    2.1080    8.0290 O.2       1 RES1    0.0000
      3 N1        10.9848    2.2869    9.4386 N.3       1 RES1    0.0000
      4 N2         5.3922    2.1552    7.6730 N.pl3     1 RES1    0.0000
      5 C1        11.4539    1.9932   10.7994 C.3       1 RES1    0.0000
      6 C2        10.3444    1.6143   11.7840 C.3       1 RES1    0.0000
      7 C3         9.4260    0.4360   11.3959 C.3       1 RES1    0.0000
      8 C4         8.3615    0.8980   10.4221 C.ar      1 RES1    0.0000
      9 C5         8.7258    1.2938    9.1228 C.ar      1 RES1    0.0000
     10 C6        10.1901    1.2924    8.7143 C.3       1 RES1    0.0000
     11 C7        10.4175    1.5023    7.2234 C.3       1 RES1    0.0000
     12 C8         8.8878   -0.2535   12.6539 C.3       1 RES1    0.0000
     13 C9        12.5241    0.8945   10.7328 C.3       1 RES1    0.0000
     14 C10       13.7546    1.3065    9.9485 C.3       1 RES1    0.0000
     15 C11       14.3725    2.5700   10.4993 C.3       1 RES1    0.0000
     16 C12       13.3579    3.6814   10.5480 C.3       1 RES1    0.0000
     17 C13       12.1166    3.2849   11.3160 C.3       1 RES1    0.0000
     18 C14        7.0192    0.9614   10.7932 C.ar      1 RES1    0.0000
     19 C15        6.0497    1.3790    9.9149 C.ar      1 RES1    0.0000
     20 C16        6.4216    1.7431    8.6436 C.ar      1 RES1    0.0000
     21 C17        7.7372    1.7143    8.2357 C.ar      1 RES1    0.0000
     22 H1        10.5500    3.0933    9.4682 H         1 RES1    0.0000
     23 H2        10.7457    1.3910   12.6120 H         1 RES1    0.0000
     24 H3         9.7392    2.4362   11.9301 H         1 RES1    0.0000
     25 H4         9.9353   -0.2134   10.9108 H         1 RES1    0.0000
     26 H5        10.5211    0.4064    8.9459 H         1 RES1    0.0000
     27 H6        11.3980    1.4642    6.9777 H         1 RES1    0.0000
     28 H7         9.9296    0.8487    6.6586 H         1 RES1    0.0000
     29 H8        10.1433    2.4207    6.9559 H         1 RES1    0.0000
     30 H9         8.2864   -0.9339   12.4642 H         1 RES1    0.0000
     31 H10        9.5888   -0.5036   13.2384 H         1 RES1    0.0000
     32 H11        8.3454    0.4381   13.1678 H         1 RES1    0.0000
     33 H12       12.1223    0.0521   10.3532 H         1 RES1    0.0000
     34 H13       12.7762    0.7085   11.5943 H         1 RES1    0.0000
     35 H14       13.5006    1.4635    8.9862 H         1 RES1    0.0000
     36 H15       14.3586    0.5620    9.9737 H         1 RES1    0.0000
     37 H16       14.7154    2.4214   11.4683 H         1 RES1    0.0000
     38 H17       15.0738    2.8595    9.9401 H         1 RES1    0.0000
     39 H18       13.7334    4.5378   10.9763 H         1 RES1    0.0000
     40 H19       13.0898    3.9469    9.6462 H         1 RES1    0.0000
     41 H20       12.3383    3.1644   12.2156 H         1 RES1    0.0000
     42 H21       11.4402    4.0279   11.2869 H         1 RES1    0.0000
     43 H22        6.7773    0.6712   11.7185 H         1 RES1    0.0000
     44 H23        5.1908    1.4290   10.1567 H         1 RES1    0.0000
     45 H24        7.9783    1.9502    7.3136 H         1 RES1    0.0000
@<TRIPOS>BOND
     1    1    4 2
     2    2    4 2
     3    3    5 1
     4    4   20 1
     5    5    6 1
     6    6    7 1
     7    7    8 1
     8    8    9 ar
     9    9   10 1
    10   10    3 1
    11   11   10 1
    12   12    7 1
    13   13    5 1
    14   14   13 1
    15   15   14 1
    16   16   15 1
    17   17    5 1
    18   18    8 ar
    19   19   18 ar
    20   20   19 ar
    21   21    9 ar
    22   22    3 1
    23   23    6 1
    24   24    6 1
    25   25    7 1
    26   26   10 1
    27   27   11 1
    28   28   11 1
    29   29   11 1
    30   30   12 1
    31   31   12 1
    32   32   12 1
    33   33   13 1
    34   34   13 1
    35   35   14 1
    36   36   14 1
    37   37   15 1
    38   38   15 1
    39   39   16 1
    40   40   16 1
    41   41   17 1
    42   42   17 1
    43   43   18 1
    44   44   19 1
    45   45   21 1
    46   16   17 1
    47   20   21 ar
@<TRIPOS>SUBSTRUCTURE
     1 RES1 1

@<TRIPOS>CRYSIN
  13.6690    7.0430   16.7940  90.0000  90.4200  90.0000  14 1

