# MOL2 file generated by ConQuest
# Please check atom types

@<TRIPOS>MOLECULE
VITNIW
    23    23     1
SMALL
USER_CHARGES
****
Generated from CSD

@<TRIPOS>ATOM
      1 O1         8.1970    6.4093    7.4747 O.3       1 RES1    0.0000
      2 O2         1.2884    5.8561    3.0127 O.2       1 RES1    0.0000
      3 O3         1.7280    7.7756    2.0981 O.2       1 RES1    0.0000
      4 N1         7.0045    6.2257    6.7813 N.2       1 RES1    0.0000
      5 N2         1.9686    6.8744    2.8950 N.pl3     1 RES1    0.0000
      6 N3         7.4320    8.4325    5.8400 N.2       1 RES1    0.0000
      7 N4         8.5159    8.6430    6.4466 N.1       1 RES1    1.0000
      8 N5         9.4727    9.0449    6.8700 N.2       1 RES1   -1.0000
      9 C1         6.7279    7.2369    6.0384 C.2       1 RES1    0.0000
     10 C2         5.4718    7.1702    5.2469 C.ar      1 RES1    0.0000
     11 C3         4.6397    6.0489    5.3572 C.ar      1 RES1    0.0000
     12 H1         4.8735    5.3462    5.9522 H         1 RES1    0.0000
     13 C4         3.4801    5.9547    4.6081 C.ar      1 RES1    0.0000
     14 H2         2.9161    5.1936    4.6772 H         1 RES1    0.0000
     15 C5         3.1612    7.0013    3.7522 C.ar      1 RES1    0.0000
     16 C6         3.9449    8.1328    3.6380 C.ar      1 RES1    0.0000
     17 H3         3.6956    8.8399    3.0546 H         1 RES1    0.0000
     18 C7         5.1069    8.2138    4.3959 C.ar      1 RES1    0.0000
     19 H4         5.6566    8.9858    4.3339 H         1 RES1    0.0000
     20 C8         8.5420    5.1825    8.1446 C.3       1 RES1    0.0000
     21 H5         7.8114    4.9199    8.7420 H         1 RES1    0.0000
     22 H6         9.3599    5.3146    8.6678 H         1 RES1    0.0000
     23 H7         8.6904    4.4776    7.4799 H         1 RES1    0.0000
@<TRIPOS>BOND
     1    1    4 1
     2    2    5 2
     3    3    5 2
     4    4    9 2
     5    5   15 1
     6    6    7 2
     7    7    8 2
     8    9    6 1
     9   10    9 1
    10   11   10 ar
    11   12   11 1
    12   13   11 ar
    13   14   13 1
    14   15   13 ar
    15   16   15 ar
    16   17   16 1
    17   18   10 ar
    18   19   18 1
    19   20    1 1
    20   21   20 1
    21   22   20 1
    22   23   20 1
    23   16   18 ar
@<TRIPOS>SUBSTRUCTURE
     1 RES1 1

@<TRIPOS>CRYSIN
  11.7530   11.3100    7.3510  90.0000 103.8050  90.0000  14 1

