# MOL2 file generated by ConQuest
# Please check atom types

@<TRIPOS>MOLECULE
VITTEX
    17    16     1
SMALL
NO_CHARGES
****
Generated from CSD

@<TRIPOS>ATOM
      1 C1        13.8315    1.9485    2.1572 C.2       1 RES1    0.0000
      2 C2        12.5226    1.3929    2.6164 C.2       1 RES1    0.0000
      3 C3        11.6306    2.2839    3.2700 C.1       1 RES1    0.0000
      4 C4        14.9569   -0.2738    2.2220 C.3       1 RES1    0.0000
      5 C5        16.0807    1.7808    1.3428 C.3       1 RES1    0.0000
      6 O1        13.8782    3.1874    1.9309 O.2       1 RES1    0.0000
      7 O2        10.9142   -0.1118    2.7001 O.3       1 RES1    0.0000
      8 N1        12.1813    0.1734    2.2955 N.2       1 RES1    0.0000
      9 N2        10.8900    2.9786    3.8028 N.1       1 RES1    0.0000
     10 N3        14.8877    1.1750    1.9352 N.am      1 RES1    0.0000
     11 H1        10.8675   -0.7073    2.4600 H         1 RES1    0.0000
     12 H2        15.8907   -0.5362    2.4818 H         1 RES1    0.0000
     13 H3        14.7959   -0.8784    1.5357 H         1 RES1    0.0000
     14 H4        14.6510   -0.5362    2.8311 H         1 RES1    0.0000
     15 H5        15.7619    2.2816    0.4585 H         1 RES1    0.0000
     16 H6        16.2449    2.3500    1.8049 H         1 RES1    0.0000
     17 H7        16.8245    1.1408    1.1645 H         1 RES1    0.0000
@<TRIPOS>BOND
     1    1    2 1
     2    2    3 1
     3    3    9 3
     4    4   10 1
     5    5   10 1
     6    6    1 2
     7    7    8 1
     8    8    2 2
     9   10    1 1
    10   11    7 1
    11   12    4 1
    12   13    4 1
    13   14    4 1
    14   15    5 1
    15   16    5 1
    16   17    5 1
@<TRIPOS>SUBSTRUCTURE
     1 RES1 1

@<TRIPOS>CRYSIN
  16.1000   11.4080    7.2780  90.0000  90.0000  90.0000  61 1

