# MOL2 file generated by ConQuest
# Please check atom types

@<TRIPOS>MOLECULE
VIWGEO
    73    79     1
SMALL
NO_CHARGES
****
Generated from CSD

@<TRIPOS>ATOM
      1 O1        -6.6936  -11.6229  -10.2105 O.3       1 RES1    0.0000
      2 O2        -6.3807   -4.9664  -16.5156 O.2       1 RES1    0.0000
      3 O3        -4.8448   -6.3221  -17.1572 O.2       1 RES1    0.0000
      4 N1        -8.5325   -8.0122   -7.1568 N.3       1 RES1    0.0000
      5 N2        -9.0356   -9.1956   -6.7536 N.2       1 RES1    0.0000
      6 N3        -9.3110  -12.6340   -7.4793 N.ar      1 RES1    0.0000
      7 N4        -7.2926   -5.6945   -7.3953 N.ar      1 RES1    0.0000
      8 N5        -7.0409   -9.3394  -12.0673 N.2       1 RES1    0.0000
      9 N6        -5.7484   -6.0106  -16.4168 N.pl3     1 RES1    0.0000
     10 C1        -8.4379  -12.6420  -11.6550 C.3       1 RES1    0.0000
     11 C2        -7.8900  -11.3673  -10.9532 C.3       1 RES1    0.0000
     12 C3        -7.5340  -10.5034  -12.1797 C.2       1 RES1    0.0000
     13 C4        -7.9218  -11.2851  -13.4119 C.3       1 RES1    0.0000
     14 C5        -9.4691  -11.2965  -13.4221 C.3       1 RES1    0.0000
     15 C6        -9.8150  -12.2517  -12.2581 C.3       1 RES1    0.0000
     16 C7        -7.5671  -12.7287  -12.9599 C.3       1 RES1    0.0000
     17 C8        -6.0542  -12.9113  -12.7191 C.3       1 RES1    0.0000
     18 C9        -8.0314  -13.8049  -13.9502 C.3       1 RES1    0.0000
     19 C10       -8.4753  -13.8756  -10.7658 C.3       1 RES1    0.0000
     20 C11       -6.9128  -11.4186   -8.8091 C.3       1 RES1    0.0000
     21 C12       -7.9844  -10.3265   -8.7228 C.3       1 RES1    0.0000
     22 C13       -8.8518  -10.6917   -9.9482 C.3       1 RES1    0.0000
     23 C14       -7.3168   -8.9857   -8.9113 C.2       1 RES1    0.0000
     24 C15       -7.6085   -7.9244   -8.1777 C.2       1 RES1    0.0000
     25 C16       -8.7958  -10.2729   -7.4271 C.2       1 RES1    0.0000
     26 C17       -9.4821  -11.4643   -6.8649 C.ar      1 RES1    0.0000
     27 C18       -9.9638  -13.7147   -6.9910 C.ar      1 RES1    0.0000
     28 C19      -10.7826  -13.6531   -5.8974 C.ar      1 RES1    0.0000
     29 C20      -10.9688  -12.4663   -5.2909 C.ar      1 RES1    0.0000
     30 C21      -10.3219  -11.3536   -5.7645 C.ar      1 RES1    0.0000
     31 C22       -7.0137   -6.5732   -8.3481 C.ar      1 RES1    0.0000
     32 C23       -6.2210   -6.2388   -9.4133 C.ar      1 RES1    0.0000
     33 C24       -5.6486   -4.9710   -9.4667 C.ar      1 RES1    0.0000
     34 C25       -5.9247   -4.0877   -8.4912 C.ar      1 RES1    0.0000
     35 C26       -6.7394   -4.4723   -7.4850 C.ar      1 RES1    0.0000
     36 C27       -6.7176   -8.5520  -13.1904 C.ar      1 RES1    0.0000
     37 C28       -7.3730   -7.3469  -13.3539 C.ar      1 RES1    0.0000
     38 C29       -7.0600   -6.5093  -14.3976 C.ar      1 RES1    0.0000
     39 C30       -6.0681   -6.8882  -15.2811 C.ar      1 RES1    0.0000
     40 C31       -5.3825   -8.0613  -15.1335 C.ar      1 RES1    0.0000
     41 C32       -5.6980   -8.8909  -14.0773 C.ar      1 RES1    0.0000
     42 H1        -6.6019   -8.9052   -9.6589 H         1 RES1    0.0000
     43 H2        -8.8249   -7.1876   -6.6863 H         1 RES1    0.0000
     44 H3        -9.8192  -14.6554   -7.4661 H         1 RES1    0.0000
     45 H4       -11.2463  -14.5398   -5.5394 H         1 RES1    0.0000
     46 H5       -11.6156  -12.4015   -4.4820 H         1 RES1    0.0000
     47 H6       -10.4462  -10.4411   -5.3026 H         1 RES1    0.0000
     48 H7        -6.0294   -6.9547  -10.1755 H         1 RES1    0.0000
     49 H8        -5.0313   -4.7302  -10.2722 H         1 RES1    0.0000
     50 H9        -5.5217   -3.1481   -8.5217 H         1 RES1    0.0000
     51 H10       -6.9687   -3.7988   -6.7388 H         1 RES1    0.0000
     52 H11       -8.1079   -7.0878  -12.6734 H         1 RES1    0.0000
     53 H12       -7.5565   -5.6218  -14.5238 H         1 RES1    0.0000
     54 H13       -4.6298   -8.3370  -15.8024 H         1 RES1    0.0000
     55 H14       -5.1736   -9.7990  -13.9494 H         1 RES1    0.0000
     56 H15       -7.5471  -10.8459  -14.2677 H         1 RES1    0.0000
     57 H16       -9.8488  -10.3581  -13.2581 H         1 RES1    0.0000
     58 H17       -9.8340  -11.6772  -14.3278 H         1 RES1    0.0000
     59 H18      -10.4011  -11.7833  -11.5375 H         1 RES1    0.0000
     60 H19      -10.3242  -13.1100  -12.5948 H         1 RES1    0.0000
     61 H20       -5.7183  -12.2049  -12.0472 H         1 RES1    0.0000
     62 H21       -5.8688  -13.8726  -12.3307 H         1 RES1    0.0000
     63 H22       -5.5442  -12.8177  -13.6215 H         1 RES1    0.0000
     64 H23       -9.0483  -13.7327  -14.1104 H         1 RES1    0.0000
     65 H24       -7.5163  -13.7138  -14.8432 H         1 RES1    0.0000
     66 H25       -7.8250  -14.7679  -13.5479 H         1 RES1    0.0000
     67 H26       -9.1283  -13.7306   -9.9740 H         1 RES1    0.0000
     68 H27       -8.8112  -14.7107  -11.3241 H         1 RES1    0.0000
     69 H28       -7.5255  -14.0919  -10.4032 H         1 RES1    0.0000
     70 H29       -7.2449  -12.3164   -8.3617 H         1 RES1    0.0000
     71 H30       -6.0355  -11.1242   -8.3444 H         1 RES1    0.0000
     72 H31       -9.6077  -11.3676   -9.6747 H         1 RES1    0.0000
     73 H32       -9.2675   -9.8540  -10.3656 H         1 RES1    0.0000
@<TRIPOS>BOND
     1    1   11 1
     2    2    9 2
     3    3    9 2
     4    4    5 1
     5    5   25 2
     6    6   26 ar
     7    7   31 ar
     8    8   12 2
     9    9   39 1
    10   10   11 1
    11   11   12 1
    12   12   13 1
    13   13   14 1
    14   14   15 1
    15   15   10 1
    16   16   10 1
    17   17   16 1
    18   18   16 1
    19   19   10 1
    20   20    1 1
    21   21   20 1
    22   22   11 1
    23   23   21 1
    24   24    4 1
    25   25   21 1
    26   26   25 1
    27   27    6 ar
    28   28   27 ar
    29   29   28 ar
    30   30   26 ar
    31   31   24 1
    32   32   31 ar
    33   33   32 ar
    34   34   33 ar
    35   35    7 ar
    36   36    8 1
    37   37   36 ar
    38   38   37 ar
    39   39   38 ar
    40   40   39 ar
    41   41   36 ar
    42   42   23 1
    43   43    4 1
    44   44   27 1
    45   45   28 1
    46   46   29 1
    47   47   30 1
    48   48   32 1
    49   49   33 1
    50   50   34 1
    51   51   35 1
    52   52   37 1
    53   53   38 1
    54   54   40 1
    55   55   41 1
    56   56   13 1
    57   57   14 1
    58   58   14 1
    59   59   15 1
    60   60   15 1
    61   61   17 1
    62   62   17 1
    63   63   17 1
    64   64   18 1
    65   65   18 1
    66   66   18 1
    67   67   19 1
    68   68   19 1
    69   69   19 1
    70   70   20 1
    71   71   20 1
    72   72   22 1
    73   73   22 1
    74   13   16 1
    75   21   22 1
    76   23   24 2
    77   29   30 ar
    78   34   35 ar
    79   40   41 ar
@<TRIPOS>SUBSTRUCTURE
     1 RES1 1

@<TRIPOS>CRYSIN
  21.5666   11.4118   12.9156  90.0000 118.4450  90.0000   5 1

