# MOL2 file generated by ConQuest
# Please check atom types

@<TRIPOS>MOLECULE
VIWRAV
    11    11     1
SMALL
NO_CHARGES
****
Generated from CSD

@<TRIPOS>ATOM
      1 O1         6.5292    5.0844    4.7380 O.2       1 RES1    0.0000
      2 O2         4.5610    4.1627    4.8544 O.2       1 RES1    0.0000
      3 N1         3.8771    1.0477    7.1524 N.2       1 RES1    0.0000
      4 N2         5.7611    4.2094    5.1482 N.pl3     1 RES1    0.0000
      5 N3         6.3441    3.2826    5.9592 N.2       1 RES1    0.0000
      6 N4         5.9883    1.2790    7.1026 N.3       1 RES1    0.0000
      7 N5         4.9685    0.4999    7.5283 N.2       1 RES1    0.0000
      8 N6         4.1896    2.1800    6.4716 N.pl3     1 RES1    0.0000
      9 C1         5.5204    2.3428    6.4446 C.2       1 RES1    0.0000
     10 H1         3.5455    2.7294    6.1839 H         1 RES1    0.0000
     11 H2         6.9181    1.0434    7.2812 H         1 RES1    0.0000
@<TRIPOS>BOND
     1    1    4 2
     2    2    4 2
     3    3    7 2
     4    4    5 1
     5    5    9 2
     6    6    7 1
     7    8    3 1
     8    9    6 1
     9   10    8 1
    10   11    6 1
    11    8    9 1
@<TRIPOS>SUBSTRUCTURE
     1 RES1 1

@<TRIPOS>CRYSIN
   9.4010    5.4918    9.3150  90.0000 105.7620  90.0000  14 1

