# MOL2 file generated by ConQuest
# Please check atom types

@<TRIPOS>MOLECULE
VIYBAI
    53    57     1
SMALL
NO_CHARGES
****
Generated from CSD

@<TRIPOS>ATOM
      1 O1        -1.3238    6.1546   -2.3579 O.2       1 RES1    0.0000
      2 O2        -0.4218    4.2596   -2.6322 O.2       1 RES1    0.0000
      3 N1        -1.7412    1.0239    5.1847 N.2       1 RES1    0.0000
      4 N2        -2.6730    1.4769    4.3762 N.2       1 RES1    0.0000
      5 N3        -2.2580    2.6597    3.9269 N.3       1 RES1    0.0000
      6 N4        -1.0748    5.0313   -1.9740 N.pl3     1 RES1    0.0000
      7 C1         3.6489    6.6138   11.0867 C.2       1 RES1    0.0000
      8 H1         3.8556    6.0880   12.0011 H         1 RES1    0.0000
      9 H2         4.3823    7.2667   10.7741 H         1 RES1    0.0000
     10 C2         2.5774    6.3781   10.4093 C.2       1 RES1    0.0000
     11 C3         1.4929    6.1587    9.7656 C.2       1 RES1    0.0000
     12 H3         0.7941    6.7235    9.9505 H         1 RES1    0.0000
     13 C4         0.2453    4.0956    9.1403 C.ar      1 RES1    0.0000
     14 C5        -0.5113    4.1847   10.3505 C.ar      1 RES1    0.0000
     15 H4        -0.2167    4.9094   10.9590 H         1 RES1    0.0000
     16 C6        -1.4702    3.2982   10.6615 C.ar      1 RES1    0.0000
     17 H5        -1.9524    3.4027   11.4800 H         1 RES1    0.0000
     18 C7        -1.7388    2.2415    9.7841 C.ar      1 RES1    0.0000
     19 H6        -2.4676    1.6604   10.0093 H         1 RES1    0.0000
     20 C8        -1.0459    2.0867    8.6445 C.ar      1 RES1    0.0000
     21 H7        -1.1676    1.4144    8.0797 H         1 RES1    0.0000
     22 C9        -0.0185    2.9969    8.2540 C.ar      1 RES1    0.0000
     23 C10        1.6803    3.8342    6.7272 C.ar      1 RES1    0.0000
     24 C11        2.4126    3.7830    5.5013 C.ar      1 RES1    0.0000
     25 H8         2.2238    3.0235    4.8744 H         1 RES1    0.0000
     26 C12        3.3518    4.7013    5.1887 C.ar      1 RES1    0.0000
     27 H9         3.7870    4.5506    4.3365 H         1 RES1    0.0000
     28 C13        3.6304    5.7519    6.0661 C.ar      1 RES1    0.0000
     29 H10        4.2534    6.4262    5.7988 H         1 RES1    0.0000
     30 C14        2.9638    5.8677    7.2343 C.ar      1 RES1    0.0000
     31 H11        3.1523    6.5800    7.9335 H         1 RES1    0.0000
     32 C15        1.9648    4.9176    7.6266 C.ar      1 RES1    0.0000
     33 C16        1.2452    5.0272    8.8200 C.ar      1 RES1    0.0000
     34 C17        0.7132    2.8636    7.0633 C.ar      1 RES1    0.0000
     35 C18        0.4522    1.7003    6.1451 C.3       1 RES1    0.0000
     36 H12        1.2509    1.5271    5.5787 H         1 RES1    0.0000
     37 H13        0.2425    0.9122    6.6678 H         1 RES1    0.0000
     38 C19       -0.7318    1.9156    5.2494 C.2       1 RES1    0.0000
     39 C20       -1.0595    2.9579    4.4559 C.2       1 RES1    0.0000
     40 H14       -0.6252    3.7205    4.2222 H         1 RES1    0.0000
     41 C21       -3.1374    3.4776    3.0978 C.3       1 RES1    0.0000
     42 H15       -3.3571    4.3149    3.6306 H         1 RES1    0.0000
     43 H16       -3.9712    2.9518    2.9549 H         1 RES1    0.0000
     44 C22       -2.5394    3.8650    1.7894 C.ar      1 RES1    0.0000
     45 C23       -1.7843    2.9774    1.0320 C.ar      1 RES1    0.0000
     46 H17       -1.6325    2.1728    1.3951 H         1 RES1    0.0000
     47 C24       -1.3053    3.3597   -0.2017 C.ar      1 RES1    0.0000
     48 H18       -0.7617    2.8493   -0.6925 H         1 RES1    0.0000
     49 C25       -1.5811    4.6121   -0.6706 C.ar      1 RES1    0.0000
     50 C26       -2.3097    5.4977    0.0639 C.ar      1 RES1    0.0000
     51 H19       -2.4333    6.2725   -0.2857 H         1 RES1    0.0000
     52 C27       -2.7830    5.1226    1.2825 C.ar      1 RES1    0.0000
     53 H20       -3.2725    5.7191    1.8489 H         1 RES1    0.0000
@<TRIPOS>BOND
     1    1    6 2
     2    2    6 2
     3    3    4 2
     4    4    5 1
     5    5   39 1
     6    6   49 1
     7    7    8 1
     8    9    7 1
     9   10    7 2
    10   11   10 2
    11   12   11 1
    12   13   14 ar
    13   14   15 1
    14   16   14 ar
    15   17   16 1
    16   18   16 ar
    17   19   18 1
    18   20   18 ar
    19   21   20 1
    20   22   13 ar
    21   23   24 ar
    22   24   25 1
    23   26   24 ar
    24   27   26 1
    25   28   26 ar
    26   29   28 1
    27   30   28 ar
    28   31   30 1
    29   32   23 ar
    30   33   11 1
    31   34   22 ar
    32   35   34 1
    33   36   35 1
    34   37   35 1
    35   38    3 1
    36   39   38 2
    37   40   39 1
    38   41    5 1
    39   42   41 1
    40   43   41 1
    41   44   41 1
    42   45   44 ar
    43   46   45 1
    44   47   45 ar
    45   48   47 1
    46   49   47 ar
    47   50   49 ar
    48   51   50 1
    49   52   44 ar
    50   53   52 1
    51   13   33 ar
    52   20   22 ar
    53   23   34 ar
    54   30   32 ar
    55   32   33 ar
    56   35   38 1
    57   50   52 ar
@<TRIPOS>SUBSTRUCTURE
     1 RES1 1

@<TRIPOS>CRYSIN
  12.4688   10.2492   16.9379  90.0000  97.0940  90.0000 231 1

