# MOL2 file generated by ConQuest
# Please check atom types

@<TRIPOS>MOLECULE
VIYMOH
    25    25     1
SMALL
NO_CHARGES
****
Generated from CSD

@<TRIPOS>ATOM
      1 O1         3.6507    6.1855    5.6441 O.2       1 RES1    0.0000
      2 N1         4.1236    5.1063    5.2971 N.2       1 RES1    0.0000
      3 C1         5.6494    4.1665    8.5676 C.ar      1 RES1    0.0000
      4 C2         6.2425    2.9392    8.2035 C.ar      1 RES1    0.0000
      5 C3         6.1128    2.4409    6.8962 C.ar      1 RES1    0.0000
      6 C4         5.4019    3.1655    5.9265 C.ar      1 RES1    0.0000
      7 C5         4.8342    4.3891    6.3081 C.ar      1 RES1    0.0000
      8 C6         4.9478    4.8774    7.6143 C.ar      1 RES1    0.0000
      9 H1         4.5400    5.7034    7.8470 H         1 RES1    0.0000
     10 C7         5.7330    4.6957    9.9809 C.3       1 RES1    0.0000
     11 H2         5.2716    5.5590   10.0334 H         1 RES1    0.0000
     12 H3         6.6735    4.8124   10.2307 H         1 RES1    0.0000
     13 H4         5.3083    4.0603   10.5936 H         1 RES1    0.0000
     14 C8         7.0115    2.1348    9.2254 C.3       1 RES1    0.0000
     15 H5         6.5613    1.2770    9.3724 H         1 RES1    0.0000
     16 H6         7.0511    2.6314   10.0696 H         1 RES1    0.0000
     17 H7         7.9206    1.9739    8.8980 H         1 RES1    0.0000
     18 C9         6.7300    1.1090    6.5512 C.3       1 RES1    0.0000
     19 H8         6.6022    0.9275    5.5972 H         1 RES1    0.0000
     20 H9         6.3003    0.4033    7.0790 H         1 RES1    0.0000
     21 H10        7.6881    1.1306    6.7537 H         1 RES1    0.0000
     22 C10        5.2522    2.6286    4.5231 C.3       1 RES1    0.0000
     23 H11        6.1374    2.5402    4.1110 H         1 RES1    0.0000
     24 H12        4.7057    3.2454    3.9935 H         1 RES1    0.0000
     25 H13        4.8172    1.7508    4.5537 H         1 RES1    0.0000
@<TRIPOS>BOND
     1    1    2 2
     2    2    7 1
     3    3    4 ar
     4    4    5 ar
     5    5    6 ar
     6    6    7 ar
     7    7    8 ar
     8    8    3 ar
     9    9    8 1
    10   10    3 1
    11   11   10 1
    12   12   10 1
    13   13   10 1
    14   14    4 1
    15   15   14 1
    16   16   14 1
    17   17   14 1
    18   18    5 1
    19   19   18 1
    20   20   18 1
    21   21   18 1
    22   22    6 1
    23   23   22 1
    24   24   22 1
    25   25   22 1
@<TRIPOS>SUBSTRUCTURE
     1 RES1 1

@<TRIPOS>CRYSIN
   8.4095    6.9065   15.0933  90.0000  93.8950  90.0000 231 1

