# MOL2 file generated by ConQuest
# Please check atom types

@<TRIPOS>MOLECULE
VIYNOH
    52    53     2
SMALL
NO_CHARGES
****
Generated from CSD

@<TRIPOS>ATOM
      1 N1         4.0475    5.1635    3.2337 N.pl3     1 RES1    0.0000
      2 H1         3.5914    5.8909    3.1846 H         1 RES1    0.0000
      3 C1         4.5265    4.7619    4.4809 C.2       1 RES1    0.0000
      4 C2         5.4294    3.7784    4.5444 C.2       1 RES1    0.0000
      5 C3         6.0590    3.1913    3.2930 C.3       1 RES1    0.0000
      6 H2         6.1449    2.2232    3.4144 H         1 RES1    0.0000
      7 C4         5.1852    3.4505    2.0714 C.2       1 RES1    0.0000
      8 C5         4.2684    4.4484    2.0789 C.2       1 RES1    0.0000
      9 C6         3.4102    4.9094    0.9358 C.3       1 RES1    0.0000
     10 H3         3.9703    5.1491    0.1924 H         1 RES1    0.0000
     11 H4         2.8965    5.6727    1.2085 H         1 RES1    0.0000
     12 H5         2.8175    4.2005    0.6743 H         1 RES1    0.0000
     13 C7         3.9141    5.4893    5.6371 C.3       1 RES1    0.0000
     14 H6         4.2730    5.1440    6.4570 H         1 RES1    0.0000
     15 H7         2.9618    5.3643    5.6259 H         1 RES1    0.0000
     16 H8         4.1149    6.4257    5.5680 H         1 RES1    0.0000
     17 C8         5.9613    3.2313    5.8257 C.2       1 RES1    0.0000
     18 O1         5.7587    2.0664    6.1668 O.2       1 RES1    0.0000
     19 N2         6.7541    4.0703    6.5261 N.am      1 RES1    0.0000
     20 H9         6.7881    4.8828    6.2460 H         1 RES1    0.0000
     21 C9         7.5387    3.7702    7.6674 C.ar      1 RES1    0.0000
     22 C10        8.6919    4.5191    7.8618 C.ar      1 RES1    0.0000
     23 H10        8.9189    5.1819    7.2509 H         1 RES1    0.0000
     24 C11        9.5061    4.2886    8.9562 C.ar      1 RES1    0.0000
     25 H11       10.2721    4.8018    9.0813 H         1 RES1    0.0000
     26 C12        9.1915    3.3122    9.8527 C.ar      1 RES1    0.0000
     27 H12        9.7412    3.1524   10.5849 H         1 RES1    0.0000
     28 C13        8.0582    2.5674    9.6622 C.ar      1 RES1    0.0000
     29 H13        7.8538    1.8902   10.2655 H         1 RES1    0.0000
     30 C14        7.2033    2.8010    8.5864 C.ar      1 RES1    0.0000
     31 H14        6.4190    2.3092    8.4892 H         1 RES1    0.0000
     32 C15        5.5050    2.5613    0.9563 C.2       1 RES1    0.0000
     33 O2         6.3074    1.6597    1.0497 O.2       1 RES1    0.0000
     34 O3         4.8693    2.8123   -0.2004 O.3       1 RES1    0.0000
     35 C16        5.2243    1.9640   -1.3131 C.3       1 RES1    0.0000
     36 H15        6.1380    2.1279   -1.5634 H         1 RES1    0.0000
     37 H16        4.6501    2.1566   -2.0583 H         1 RES1    0.0000
     38 H17        5.1218    1.0440   -1.0609 H         1 RES1    0.0000
     39 C17        7.4613    3.7876    3.1534 C.ar      1 RES1    0.0000
     40 C18        7.6359    5.0907    2.7057 C.ar      1 RES1    0.0000
     41 H18        6.8960    5.5743    2.4170 H         1 RES1    0.0000
     42 C19        8.8779    5.6850    2.6784 C.ar      1 RES1    0.0000
     43 H19        8.9660    6.5548    2.3609 H         1 RES1    0.0000
     44 C20        9.9955    4.9965    3.1174 C.ar      1 RES1    0.0000
     45 H20       10.8350    5.3960    3.1267 H         1 RES1    0.0000
     46 C21        9.8178    3.6933    3.5414 C.ar      1 RES1    0.0000
     47 C22        8.5746    3.0745    3.5657 C.ar      1 RES1    0.0000
     48 H21        8.4912    2.1935    3.8514 H         1 RES1    0.0000
     49 N3        10.9934    2.9147    3.9374 N.pl3     1 RES1    0.0000
     50 O4        12.0864    3.4731    3.9224 O.2       1 RES1    0.0000
     51 O5        11.8809    3.5345    4.5761 Du        2 SUP2    0.0000
     52 O6        10.8884    1.7089    4.0289 O.2       1 RES1    0.0000
@<TRIPOS>BOND
     1    1    2 1
     2    3    1 1
     3    4    3 2
     4    5    4 1
     5    6    5 1
     6    7    5 1
     7    8    1 1
     8    9    8 1
     9   10    9 1
    10   11    9 1
    11   12    9 1
    12   13    3 1
    13   14   13 1
    14   15   13 1
    15   16   13 1
    16   17    4 1
    17   18   17 2
    18   19   17 1
    19   20   19 1
    20   21   19 1
    21   22   21 ar
    22   23   22 1
    23   24   22 ar
    24   25   24 1
    25   26   24 ar
    26   27   26 1
    27   28   26 ar
    28   29   28 1
    29   30   21 ar
    30   31   30 1
    31   32    7 1
    32   33   32 2
    33   34   32 1
    34   35   34 1
    35   36   35 1
    36   37   35 1
    37   38   35 1
    38   39    5 1
    39   40   39 ar
    40   41   40 1
    41   42   40 ar
    42   43   42 1
    43   44   42 ar
    44   45   44 1
    45   46   44 ar
    46   47   39 ar
    47   48   47 1
    48   49   46 1
    49   50   49 2
    50   52   49 2
    51    7    8 2
    52   28   30 ar
    53   46   47 ar
@<TRIPOS>SUBSTRUCTURE
     1 RES1 1
     2 SUP2 51

@<TRIPOS>CRYSIN
  10.5960   10.2450   19.5790  90.0000 107.4480  90.0000  14 1

