# MOL2 file generated by ConQuest
# Please check atom types

@<TRIPOS>MOLECULE
VIYYIL
    70    72     1
SMALL
NO_CHARGES
****
Generated from CSD

@<TRIPOS>ATOM
      1 O1         5.3913    3.6147    0.4638 O.3       1 RES1    0.0000
      2 O2         4.1327    1.7170    2.9586 O.2       1 RES1    0.0000
      3 O3         2.8300    2.6155    1.6011 O.2       1 RES1    0.0000
      4 O4         9.9799    4.4125   -0.4961 O.3       1 RES1    0.0000
      5 O5         9.5442    7.1149   -3.1520 O.2       1 RES1    0.0000
      6 O6         8.6051    5.2172   -2.6541 O.2       1 RES1    0.0000
      7 O7         8.7879    1.8370    3.3132 O.3       1 RES1    0.0000
      8 O8        12.4959    2.2539    4.7227 O.2       1 RES1    0.0000
      9 O9        11.3654    1.4727    3.1359 O.2       1 RES1    0.0000
     10 N1         8.1411    1.5513   -0.0627 N.3       1 RES1    0.0000
     11 N2         3.7553    2.6458    2.3461 N.pl3     1 RES1    0.0000
     12 N3         9.1202    6.2606   -2.3389 N.pl3     1 RES1    0.0000
     13 N4        11.4822    2.2663    4.0045 N.pl3     1 RES1    0.0000
     14 C1         6.8800    1.4464   -0.7934 C.3       1 RES1    0.0000
     15 C2         6.4664    2.7590   -1.4632 C.3       1 RES1    0.0000
     16 C3         6.3947    3.9391   -0.5247 C.3       1 RES1    0.0000
     17 C4         5.2662    4.4346    1.4865 C.ar      1 RES1    0.0000
     18 C5         4.4143    3.9474    2.5324 C.ar      1 RES1    0.0000
     19 C6         4.2352    4.6485    3.5997 C.ar      1 RES1    0.0000
     20 C7         4.8439    5.8755    3.7878 C.ar      1 RES1    0.0000
     21 C8         5.6259    6.4000    2.8816 C.ar      1 RES1    0.0000
     22 C9         5.8804    5.6781    1.6656 C.ar      1 RES1    0.0000
     23 C10        9.2935    1.6204   -0.9796 C.3       1 RES1    0.0000
     24 C11       10.5755    2.0993   -0.3224 C.3       1 RES1    0.0000
     25 C12       10.3948    3.3925    0.4370 C.3       1 RES1    0.0000
     26 C13        9.6416    5.6257   -0.0269 C.ar      1 RES1    0.0000
     27 C14        9.2389    6.5822   -0.9277 C.ar      1 RES1    0.0000
     28 C15        8.8877    7.8506   -0.5480 C.ar      1 RES1    0.0000
     29 C16        8.9390    8.2053    0.8023 C.ar      1 RES1    0.0000
     30 C17        9.3461    7.2654    1.7354 C.ar      1 RES1    0.0000
     31 C18        9.7043    6.0025    1.3127 C.ar      1 RES1    0.0000
     32 C19        8.2846    0.3961    0.8561 C.3       1 RES1    0.0000
     33 C20        7.3581    0.4306    2.0237 C.3       1 RES1    0.0000
     34 C21        7.4301    1.7142    2.8153 C.3       1 RES1    0.0000
     35 C22        9.1162    3.0144    3.8952 C.ar      1 RES1    0.0000
     36 C23       10.4403    3.2435    4.2284 C.ar      1 RES1    0.0000
     37 C24       10.8303    4.4291    4.8301 C.ar      1 RES1    0.0000
     38 C25        9.8857    5.4283    5.1149 C.ar      1 RES1    0.0000
     39 C26        8.5744    5.2103    4.8068 C.ar      1 RES1    0.0000
     40 C27        8.1604    4.0247    4.2266 C.ar      1 RES1    0.0000
     41 H1         6.1964    1.1911   -0.1827 H         1 RES1    0.0000
     42 H2         6.9716    0.7784   -1.4632 H         1 RES1    0.0000
     43 H3         5.6133    2.6362   -1.8572 H         1 RES1    0.0000
     44 H4         7.1048    2.9564   -2.1401 H         1 RES1    0.0000
     45 H5         7.2350    4.0785   -0.1057 H         1 RES1    0.0000
     46 H6         6.1441    4.7217   -1.0011 H         1 RES1    0.0000
     47 H7         3.6566    4.3104    4.2767 H         1 RES1    0.0000
     48 H8         4.6828    6.3503    4.5955 H         1 RES1    0.0000
     49 H9         6.0293    7.2488    3.0249 H         1 RES1    0.0000
     50 H10        6.4514    6.0356    0.9975 H         1 RES1    0.0000
     51 H11        9.0779    2.2166   -1.6853 H         1 RES1    0.0000
     52 H12        9.4448    0.7522   -1.3342 H         1 RES1    0.0000
     53 H13       11.2297    2.2318   -0.9958 H         1 RES1    0.0000
     54 H14       10.8742    1.4299    0.2812 H         1 RES1    0.0000
     55 H15        9.7315    3.2821    1.1068 H         1 RES1    0.0000
     56 H16       11.2165    3.6437    0.8417 H         1 RES1    0.0000
     57 H17        8.6089    8.4827   -1.1981 H         1 RES1    0.0000
     58 H18        8.6950    9.0803    1.0763 H         1 RES1    0.0000
     59 H19        9.3824    7.4890    2.6577 H         1 RES1    0.0000
     60 H20       10.0030    5.3690    1.9539 H         1 RES1    0.0000
     61 H21        9.1757    0.3837    1.1838 H         1 RES1    0.0000
     62 H22        8.1162   -0.3989    0.3653 H         1 RES1    0.0000
     63 H23        7.5757   -0.2912    2.6004 H         1 RES1    0.0000
     64 H24        6.4693    0.3230    1.7050 H         1 RES1    0.0000
     65 H25        7.2192    2.4526    2.2566 H         1 RES1    0.0000
     66 H26        6.8184    1.6811    3.5424 H         1 RES1    0.0000
     67 H27       11.7422    4.5657    5.0522 H         1 RES1    0.0000
     68 H28       10.1565    6.2454    5.5160 H         1 RES1    0.0000
     69 H29        7.9327    5.8852    4.9931 H         1 RES1    0.0000
     70 H30        7.2376    3.8811    4.0457 H         1 RES1    0.0000
@<TRIPOS>BOND
     1    1   16 1
     2    2   11 2
     3    3   11 2
     4    4   25 1
     5    5   12 2
     6    6   12 2
     7    7   34 1
     8    8   13 2
     9    9   13 2
    10   10   14 1
    11   11   18 1
    12   12   27 1
    13   13   36 1
    14   14   15 1
    15   15   16 1
    16   16   45 1
    17   17    1 1
    18   18   17 ar
    19   19   18 ar
    20   20   19 ar
    21   21   20 ar
    22   22   17 ar
    23   23   10 1
    24   24   23 1
    25   25   24 1
    26   26    4 1
    27   27   26 ar
    28   28   27 ar
    29   29   28 ar
    30   30   29 ar
    31   31   26 ar
    32   32   10 1
    33   33   32 1
    34   34   33 1
    35   35    7 1
    36   36   35 ar
    37   37   36 ar
    38   38   37 ar
    39   39   38 ar
    40   40   35 ar
    41   41   14 1
    42   42   14 1
    43   43   15 1
    44   44   15 1
    45   46   16 1
    46   47   19 1
    47   48   20 1
    48   49   21 1
    49   50   22 1
    50   51   23 1
    51   52   23 1
    52   53   24 1
    53   54   24 1
    54   55   25 1
    55   56   25 1
    56   57   28 1
    57   58   29 1
    58   59   30 1
    59   60   31 1
    60   61   32 1
    61   62   32 1
    62   63   33 1
    63   64   33 1
    64   65   34 1
    65   66   34 1
    66   67   37 1
    67   68   38 1
    68   69   39 1
    69   70   40 1
    70   21   22 ar
    71   30   31 ar
    72   39   40 ar
@<TRIPOS>SUBSTRUCTURE
     1 RES1 1

@<TRIPOS>CRYSIN
  11.0800   13.8020   18.4150  90.0000 103.4600  90.0000  14 1

