# MOL2 file generated by ConQuest
# Please check atom types

@<TRIPOS>MOLECULE
VIZMAU
    36    38     1
SMALL
NO_CHARGES
****
Generated from CSD

@<TRIPOS>ATOM
      1 O1         3.2345    5.6561    4.8527 O.2       1 RES1    0.0000
      2 O2         3.2355    6.8033    3.0358 O.2       1 RES1    0.0000
      3 N1         1.3613    4.4900    2.2599 N.2       1 RES1    0.0000
      4 N2         0.5308    6.7240    1.9484 N.2       1 RES1    0.0000
      5 N3         2.6843    6.3844    4.0525 N.pl3     1 RES1    0.0000
      6 N4         2.1754    2.3657    1.7980 N.3       1 RES1    0.0000
      7 C1         1.8129    3.5735    1.3952 C.2       1 RES1    0.0000
      8 C2         1.8430    4.1226   -0.0130 C.ar      1 RES1    0.0000
      9 C3         2.2815    3.5842   -1.2465 C.ar      1 RES1    0.0000
     10 H1         2.6253    2.7225   -1.3154 H         1 RES1    0.0000
     11 C4         2.1655    4.4262   -2.3537 C.ar      1 RES1    0.0000
     12 H2         2.4633    4.1291   -3.1825 H         1 RES1    0.0000
     13 C5         1.6246    5.6757   -2.2478 C.ar      1 RES1    0.0000
     14 H3         1.5401    6.1945   -3.0149 H         1 RES1    0.0000
     15 C6         1.1943    6.2003   -1.0306 C.ar      1 RES1    0.0000
     16 H4         0.8393    7.0570   -0.9615 H         1 RES1    0.0000
     17 C7         1.3271    5.3697    0.0694 C.ar      1 RES1    0.0000
     18 C8         1.0337    5.6266    1.5277 C.2       1 RES1    0.0000
     19 C9         0.3448    6.9351    3.3287 C.ar      1 RES1    0.0000
     20 C10       -0.9210    7.3655    3.7443 C.ar      1 RES1    0.0000
     21 H5        -1.6054    7.4343    3.1173 H         1 RES1    0.0000
     22 C11       -1.1772    7.6904    5.0622 C.ar      1 RES1    0.0000
     23 H6        -2.0330    7.9629    5.3034 H         1 RES1    0.0000
     24 C12       -0.2002    7.6225    6.0246 C.ar      1 RES1    0.0000
     25 H7        -0.3841    7.8655    6.9028 H         1 RES1    0.0000
     26 C13        1.0614    7.1871    5.6675 C.ar      1 RES1    0.0000
     27 H8         1.7386    7.1405    6.3021 H         1 RES1    0.0000
     28 C14        1.3112    6.8148    4.3407 C.ar      1 RES1    0.0000
     29 C15        2.1653    2.0548    3.2398 C.3       1 RES1    0.0000
     30 H9         2.3390    2.8550    3.7412 H         1 RES1    0.0000
     31 H10        2.8441    1.4034    3.4316 H         1 RES1    0.0000
     32 H11        1.3063    1.7029    3.4852 H         1 RES1    0.0000
     33 C16        2.5254    1.2954    0.8917 C.3       1 RES1    0.0000
     34 H12        1.8343    1.1955    0.2328 H         1 RES1    0.0000
     35 H13        2.6183    0.4771    1.3852 H         1 RES1    0.0000
     36 H14        3.3554    1.5032    0.4563 H         1 RES1    0.0000
@<TRIPOS>BOND
     1    1    5 2
     2    2    5 2
     3    3    7 2
     4    4   18 2
     5    5   28 1
     6    6    7 1
     7    7    8 1
     8    8    9 ar
     9    9   10 1
    10   11    9 ar
    11   12   11 1
    12   13   11 ar
    13   14   13 1
    14   15   13 ar
    15   16   15 1
    16   17    8 ar
    17   18    3 1
    18   19    4 1
    19   20   19 ar
    20   21   20 1
    21   22   20 ar
    22   23   22 1
    23   24   22 ar
    24   25   24 1
    25   26   24 ar
    26   27   26 1
    27   28   19 ar
    28   29    6 1
    29   30   29 1
    30   31   29 1
    31   32   29 1
    32   33    6 1
    33   34   33 1
    34   35   33 1
    35   36   33 1
    36   15   17 ar
    37   17   18 1
    38   26   28 ar
@<TRIPOS>SUBSTRUCTURE
     1 RES1 1

@<TRIPOS>CRYSIN
   7.4530    8.1830   23.3070  90.0000  92.7100  90.0000  14 1

