# MOL2 file generated by ConQuest
# Please check atom types

@<TRIPOS>MOLECULE
VOBGEY
    25    26     1
SMALL
NO_CHARGES
****
Generated from CSD

@<TRIPOS>ATOM
      1 O1        12.1433    5.4996    2.5693 O.3       1 RES1    0.0000
      2 N1         9.4443    3.4804    0.1945 N.3       1 RES1    0.0000
      3 N2        10.2949    4.1815    0.9651 N.2       1 RES1    0.0000
      4 N3        13.1250    5.7921    3.5377 N.2       1 RES1    0.0000
      5 N4        12.9618    3.5643    3.2819 N.2       1 RES1    0.0000
      6 C1         8.4373    4.1116   -0.5108 C.ar      1 RES1    0.0000
      7 C2         7.5775    3.3148   -1.2748 C.ar      1 RES1    0.0000
      8 C3         6.5912    3.9137   -2.0160 C.ar      1 RES1    0.0000
      9 C4         6.4096    5.2545   -2.0168 C.ar      1 RES1    0.0000
     10 C5         7.2602    6.0286   -1.2552 C.ar      1 RES1    0.0000
     11 C6         8.2718    5.4792   -0.5197 C.ar      1 RES1    0.0000
     12 C7        11.1639    3.4998    1.6213 C.2       1 RES1    0.0000
     13 C8        12.1249    4.1578    2.4933 C.2       1 RES1    0.0000
     14 C9        13.5480    4.6395    3.9160 C.2       1 RES1    0.0000
     15 C10       14.5757    4.4449    4.9506 C.3       1 RES1    0.0000
     16 H1         7.7200    2.3439   -1.2348 H         1 RES1    0.0000
     17 H2         6.1521    3.3213   -2.4679 H         1 RES1    0.0000
     18 H3         5.7843    5.6932   -2.5750 H         1 RES1    0.0000
     19 H4         7.2212    6.9039   -1.2585 H         1 RES1    0.0000
     20 H5         8.7707    6.0093    0.0498 H         1 RES1    0.0000
     21 H6        11.2950    2.5783    1.5331 H         1 RES1    0.0000
     22 H7         9.4949    2.5848    0.1986 H         1 RES1    0.0000
     23 H8        14.2446    3.8696    5.7702 H         1 RES1    0.0000
     24 H9        14.7987    5.1835    5.4434 H         1 RES1    0.0000
     25 H10       15.1504    4.1922    4.5322 H         1 RES1    0.0000
@<TRIPOS>BOND
     1    1    4 1
     2    2    3 1
     3    3   12 2
     4    4   14 2
     5    5   13 2
     6    6    2 1
     7    7    6 ar
     8    8    7 ar
     9    9    8 ar
    10   10    9 ar
    11   11    6 ar
    12   12   13 1
    13   13    1 1
    14   14    5 1
    15   15   14 1
    16   16    7 1
    17   17    8 1
    18   18    9 1
    19   19   10 1
    20   20   11 1
    21   21   12 1
    22   22    2 1
    23   23   15 1
    24   24   15 1
    25   25   15 1
    26   10   11 ar
@<TRIPOS>SUBSTRUCTURE
     1 RES1 1

@<TRIPOS>CRYSIN
  22.9900   10.7520    8.1720  90.0000  90.0000  90.0000  61 1

