# MOL2 file generated by ConQuest
# Please check atom types

@<TRIPOS>MOLECULE
VOBTOV02
    19    19     1
SMALL
USER_CHARGES
****
Generated from CSD

@<TRIPOS>ATOM
      1 O1         2.2953    0.8803    8.7712 O.2       1 RES1   -1.0000
      2 N1         1.1724    1.5204    8.8799 N.pl3     1 RES1    1.0000
      3 C1         0.7599    2.2423    7.6726 C.3       1 RES1    0.0000
      4 C2         0.4333    1.5758    9.9552 C.2       1 RES1    0.0000
      5 C3         0.7428    0.9948   11.2445 C.ar      1 RES1    0.0000
      6 C4         1.8598    0.1765   11.5253 C.ar      1 RES1    0.0000
      7 C5         2.0834   -0.2693   12.8253 C.ar      1 RES1    0.0000
      8 C6         1.2197    0.0867   13.8589 C.ar      1 RES1    0.0000
      9 C7         0.0890    0.8655   13.5819 C.ar      1 RES1    0.0000
     10 C8        -0.1495    1.3103   12.2884 C.ar      1 RES1    0.0000
     11 H1         1.4765    3.0489    7.5199 H         1 RES1    0.0000
     12 H2        -0.2376    2.6425    7.7857 H         1 RES1    0.0000
     13 H3         0.7931    1.5341    6.8438 H         1 RES1    0.0000
     14 H4        -0.5001    2.1298    9.8619 H         1 RES1    0.0000
     15 H5         2.5273   -0.0977   10.7244 H         1 RES1    0.0000
     16 H6         2.9443   -0.8981   13.0355 H         1 RES1    0.0000
     17 H7         1.4135   -0.2505   14.8702 H         1 RES1    0.0000
     18 H8        -0.6108    1.1300   14.3790 H         1 RES1    0.0000
     19 H9        -1.0212    1.9157   12.0576 H         1 RES1    0.0000
@<TRIPOS>BOND
     1    1    2 1
     2    2    3 1
     3    3   11 1
     4    4    2 2
     5    5    4 1
     6    6    5 ar
     7    7    6 ar
     8    8    7 ar
     9    9    8 ar
    10   10    5 ar
    11   12    3 1
    12   13    3 1
    13   14    4 1
    14   15    6 1
    15   16    7 1
    16   17    8 1
    17   18    9 1
    18   19   10 1
    19    9   10 ar
@<TRIPOS>SUBSTRUCTURE
     1 RES1 1

@<TRIPOS>CRYSIN
   9.5440    7.7560   19.1060  90.0000  90.0000  90.0000  61 1

