# MOL2 file generated by ConQuest
# Please check atom types

@<TRIPOS>MOLECULE
VOBVAL
    51    55     1
SMALL
NO_CHARGES
****
Generated from CSD

@<TRIPOS>ATOM
      1 C1         9.7987    1.6049    7.2364 C.ar      1 RES1    0.0000
      2 C2         9.9515    1.6101    5.8610 C.ar      1 RES1    0.0000
      3 H1         9.1967    1.7360    5.2978 H         1 RES1    0.0000
      4 C3        11.2171    1.4304    5.3059 C.ar      1 RES1    0.0000
      5 H2        11.3303    1.4540    4.3633 H         1 RES1    0.0000
      6 C4        12.3078    1.2188    6.1269 C.ar      1 RES1    0.0000
      7 H3        13.1678    1.0909    5.7450 H         1 RES1    0.0000
      8 C5        12.1571    1.1915    7.5028 C.ar      1 RES1    0.0000
      9 H4        12.9077    1.0249    8.0600 H         1 RES1    0.0000
     10 C6        10.9079    1.4078    8.0661 C.ar      1 RES1    0.0000
     11 C7        10.6115    1.4850    9.5513 C.3       1 RES1    0.0000
     12 C8        11.8293    1.2632   10.4407 C.3       1 RES1    0.0000
     13 H5        12.1898    0.3650   10.2841 H         1 RES1    0.0000
     14 H6        11.5673    1.3498   11.3810 H         1 RES1    0.0000
     15 H7        12.5141    1.9315   10.2295 H         1 RES1    0.0000
     16 C9         9.4660    0.5122    9.8130 C.ar      1 RES1    0.0000
     17 C10        9.4740   -0.4991   10.7606 C.ar      1 RES1    0.0000
     18 H8        10.2260   -0.6150   11.3300 H         1 RES1    0.0000
     19 C11        8.3714   -1.3437   10.8720 C.ar      1 RES1    0.0000
     20 H9         8.3793   -2.0477   11.5106 H         1 RES1    0.0000
     21 C12        7.2665   -1.1660   10.0618 C.ar      1 RES1    0.0000
     22 H10        6.5196   -1.7470   10.1471 H         1 RES1    0.0000
     23 C13        7.2437   -0.1426    9.1244 C.ar      1 RES1    0.0000
     24 H11        6.4779   -0.0138    8.5775 H         1 RES1    0.0000
     25 C14        8.3482    0.6948    8.9896 C.ar      1 RES1    0.0000
     26 C15        8.4887    1.8137    7.9719 C.3       1 RES1    0.0000
     27 C16        7.2859    1.9907    7.0566 C.3       1 RES1    0.0000
     28 H12        7.4458    2.7427    6.4492 H         1 RES1    0.0000
     29 H13        6.4888    2.1711    7.5970 H         1 RES1    0.0000
     30 H14        7.1495    1.1721    6.5353 H         1 RES1    0.0000
     31 C17        8.7121    3.1438    8.8586 C.3       1 RES1    0.0000
     32 C18        7.4731    3.3526    9.6417 C.1       1 RES1    0.0000
     33 C19        8.8478    4.2959    7.9438 C.1       1 RES1    0.0000
     34 C20        9.9944    2.9602    9.8212 C.3       1 RES1    0.0000
     35 C21        9.5167    2.9373   11.2254 C.1       1 RES1    0.0000
     36 C22       11.0560    4.0673    9.6799 C.ar      1 RES1    0.0000
     37 C23       11.7381    4.2736    8.4749 C.ar      1 RES1    0.0000
     38 H15       11.4863    3.7817    7.7024 H         1 RES1    0.0000
     39 C24       12.7776    5.1886    8.3983 C.ar      1 RES1    0.0000
     40 H16       13.2661    5.3004    7.5909 H         1 RES1    0.0000
     41 C25       13.0886    5.9346    9.5187 C.ar      1 RES1    0.0000
     42 C26       12.4153    5.7862   10.7113 C.ar      1 RES1    0.0000
     43 H17       12.6399    6.3191   11.4658 H         1 RES1    0.0000
     44 C27       11.4015    4.8400   10.7867 C.ar      1 RES1    0.0000
     45 H18       10.9364    4.7176   11.6064 H         1 RES1    0.0000
     46 N1         6.4835    3.4389   10.2067 N.1       1 RES1    0.0000
     47 N2         8.8902    5.1377    7.1659 N.1       1 RES1    0.0000
     48 N3         9.1716    2.9139   12.3160 N.1       1 RES1    0.0000
     49 N4        14.1820    6.9216    9.4400 N.pl3     1 RES1    0.0000
     50 O1        14.9167    6.8912    8.4579 O.2       1 RES1    0.0000
     51 O2        14.2975    7.7297   10.3494 O.2       1 RES1    0.0000
@<TRIPOS>BOND
     1    1    2 ar
     2    2    3 1
     3    4    2 ar
     4    5    4 1
     5    6    4 ar
     6    7    6 1
     7    8    6 ar
     8    9    8 1
     9   10    1 ar
    10   11   10 1
    11   12   11 1
    12   13   12 1
    13   14   12 1
    14   15   12 1
    15   16   11 1
    16   17   16 ar
    17   18   17 1
    18   19   17 ar
    19   20   19 1
    20   21   19 ar
    21   22   21 1
    22   23   21 ar
    23   24   23 1
    24   25   16 ar
    25   26    1 1
    26   27   26 1
    27   28   27 1
    28   29   27 1
    29   30   27 1
    30   31   26 1
    31   32   31 1
    32   33   31 1
    33   34   11 1
    34   35   34 1
    35   36   34 1
    36   37   36 ar
    37   38   37 1
    38   39   37 ar
    39   40   39 1
    40   41   39 ar
    41   42   41 ar
    42   43   42 1
    43   44   36 ar
    44   45   44 1
    45   46   32 3
    46   47   33 3
    47   48   35 3
    48   49   41 1
    49   50   49 2
    50   51   49 2
    51    8   10 ar
    52   23   25 ar
    53   25   26 1
    54   31   34 1
    55   42   44 ar
@<TRIPOS>SUBSTRUCTURE
     1 RES1 1

@<TRIPOS>CRYSIN
   8.5514   10.1353   12.6000  89.0030  74.2690  79.1040   2 1

