# MOL2 file generated by ConQuest
# Please check atom types

@<TRIPOS>MOLECULE
VOBVOX
    43    46     1
SMALL
NO_CHARGES
****
Generated from CSD

@<TRIPOS>ATOM
      1 C1         4.1617    2.9926    4.4922 C.3       1 RES1    0.0000
      2 N1         5.6072    3.1229    4.4467 N.am      1 RES1    0.0000
      3 C2         6.1918    2.5579    3.2381 C.3       1 RES1    0.0000
      4 C3         5.3935    2.8288    1.9923 C.2       1 RES1    0.0000
      5 O1         5.8684    2.4516    0.9285 O.2       1 RES1    0.0000
      6 N2         4.2354    3.4937    2.0971 N.am      1 RES1    0.0000
      7 C4         3.5396    3.9188    0.8913 C.3       1 RES1    0.0000
      8 C5         2.2727    3.1269    0.7464 C.3       1 RES1    0.0000
      9 C6         1.4468    3.2268    1.9992 C.ar      1 RES1    0.0000
     10 C7         0.0674    3.0230    1.9578 C.ar      1 RES1    0.0000
     11 C8        -0.7133    3.1285    3.0863 C.ar      1 RES1    0.0000
     12 C9        -0.1230    3.4433    4.2991 C.ar      1 RES1    0.0000
     13 C10        1.2400    3.6407    4.3625 C.ar      1 RES1    0.0000
     14 C11        2.0507    3.5312    3.2271 C.ar      1 RES1    0.0000
     15 C12        3.5346    3.7917    3.3512 C.3       1 RES1    0.0000
     16 C13        6.2745    3.8732    5.3518 C.2       1 RES1    0.0000
     17 O2         5.6942    4.5093    6.2279 O.2       1 RES1    0.0000
     18 C14        7.7723    3.8948    5.3021 C.ar      1 RES1    0.0000
     19 C15        8.5190    2.7321    5.1407 C.ar      1 RES1    0.0000
     20 C16        9.8926    2.8128    5.1848 C.ar      1 RES1    0.0000
     21 N3        10.6607    1.5750    5.0000 N.pl3     1 RES1    0.0000
     22 O3        10.0432    0.5314    4.8151 O.2       1 RES1    0.0000
     23 O4        11.8720    1.6422    5.0179 O.2       1 RES1    0.0000
     24 C17       10.5615    3.9931    5.3987 C.ar      1 RES1    0.0000
     25 C18        9.8278    5.1406    5.5767 C.ar      1 RES1    0.0000
     26 C19        8.4372    5.0983    5.5215 C.ar      1 RES1    0.0000
     27 H1         3.9227    2.0673    4.4026 H         1 RES1    0.0000
     28 H2         3.8382    3.3267    5.3325 H         1 RES1    0.0000
     29 H3         7.0680    2.9319    3.1222 H         1 RES1    0.0000
     30 H4         6.2607    1.6078    3.3526 H         1 RES1    0.0000
     31 H5         3.3298    4.8529    0.9534 H         1 RES1    0.0000
     32 H6         4.1013    3.7670    0.1269 H         1 RES1    0.0000
     33 H7         1.7672    3.4721    0.0069 H         1 RES1    0.0000
     34 H8         2.4901    2.2063    0.5836 H         1 RES1    0.0000
     35 H9        -0.3469    2.8056    1.1189 H         1 RES1    0.0000
     36 H10       -1.6612    2.9838    3.0339 H         1 RES1    0.0000
     37 H11       -0.6592    3.5240    5.0910 H         1 RES1    0.0000
     38 H12        1.6435    3.8573    5.2055 H         1 RES1    0.0000
     39 H13        3.6311    4.7259    3.5485 H         1 RES1    0.0000
     40 H14        8.0841    1.8883    4.9986 H         1 RES1    0.0000
     41 H15       11.5209    4.0163    5.4235 H         1 RES1    0.0000
     42 H16       10.2736    5.9749    5.7395 H         1 RES1    0.0000
     43 H17        7.9310    5.9061    5.6374 H         1 RES1    0.0000
@<TRIPOS>BOND
     1    1    2 1
     2    2    3 1
     3    3    4 1
     4    4    5 2
     5    6    4 1
     6    7    6 1
     7    8    7 1
     8    9    8 1
     9   10    9 ar
    10   11   10 ar
    11   12   11 ar
    12   13   12 ar
    13   14    9 ar
    14   15    1 1
    15   16    2 1
    16   17   16 2
    17   18   16 1
    18   19   18 ar
    19   20   19 ar
    20   21   20 1
    21   22   21 2
    22   23   21 2
    23   24   20 ar
    24   25   24 ar
    25   26   18 ar
    26   27    1 1
    27   28    1 1
    28   29    3 1
    29   30    3 1
    30   31    7 1
    31   32    7 1
    32   33    8 1
    33   34    8 1
    34   35   10 1
    35   36   11 1
    36   37   12 1
    37   38   13 1
    38   39   15 1
    39   40   19 1
    40   41   24 1
    41   42   25 1
    42   43   26 1
    43    6   15 1
    44   13   14 ar
    45   14   15 1
    46   25   26 ar
@<TRIPOS>SUBSTRUCTURE
     1 RES1 1

@<TRIPOS>CRYSIN
  14.8030    7.9910   15.2530  90.0000 115.2400  90.0000 231 1

