# MOL2 file generated by ConQuest
# Please check atom types

@<TRIPOS>MOLECULE
VOBZOD
    44    45     1
SMALL
NO_CHARGES
****
Generated from CSD

@<TRIPOS>ATOM
      1 O1         0.7754   -0.2559    7.4079 O.3       1 RES1    0.0000
      2 O2         2.1278    2.0189   10.7415 O.2       1 RES1    0.0000
      3 O3         2.5332    0.1454    9.5465 O.3       1 RES1    0.0000
      4 N1        -0.8535    1.2548    7.5015 N.2       1 RES1    0.0000
      5 O4        -0.2121    3.1101    9.5697 O.2       1 RES1    0.0000
      6 C1         1.3799    1.8539    8.4527 C.3       1 RES1    0.0000
      7 O5         1.1061    4.1606    8.1906 O.2       1 RES1    0.0000
      8 N2         2.4930    2.1497    7.4463 N.pl3     1 RES1    0.0000
      9 N3        -0.3390   -0.8317    6.7616 N.2       1 RES1    0.0000
     10 C2         0.3582    0.9640    7.7932 C.2       1 RES1    0.0000
     11 O6         3.5507    2.5198    7.9140 O.2       1 RES1    0.0000
     12 C3         2.0575    1.3544    9.7599 C.2       1 RES1    0.0000
     13 N4         0.6939    3.1806    8.7561 N.pl3     1 RES1    0.0000
     14 O7         2.2187    2.0189    6.2802 O.2       1 RES1    0.0000
     15 C4         3.1977   -0.5213   10.6925 C.3       1 RES1    0.0000
     16 C5        -1.2517    0.0923    6.8645 C.2       1 RES1    0.0000
     17 C6         3.7825   -1.7753   10.1715 C.3       1 RES1    0.0000
     18 H1         4.1959   -2.2828   10.9221 H         1 RES1    0.0000
     19 H2         2.4804   -0.5889   11.3046 H         1 RES1    0.0000
     20 H3         3.8848    0.1236   11.0540 H         1 RES1    0.0000
     21 H4         3.0806   -2.3773    9.8932 H         1 RES1    0.0000
     22 H5         4.4833   -1.5485    9.5766 H         1 RES1    0.0000
     23 O1B       -4.6209    0.2559    5.7830 O.3       1 RES1    0.0000
     24 O2B       -5.9733   -2.0189    2.4494 O.2       1 RES1    0.0000
     25 O3B       -6.3787   -0.1454    3.6444 O.3       1 RES1    0.0000
     26 N1B       -2.9920   -1.2548    5.6894 N.2       1 RES1    0.0000
     27 O4B       -3.6334   -3.1101    3.6212 O.2       1 RES1    0.0000
     28 C1B       -5.2254   -1.8538    4.7382 C.3       1 RES1    0.0000
     29 O5B       -4.9517   -4.1606    5.0003 O.2       1 RES1    0.0000
     30 N2B       -6.3386   -2.1497    5.7446 N.pl3     1 RES1    0.0000
     31 N3B       -3.5065    0.8317    6.4292 N.2       1 RES1    0.0000
     32 C2B       -4.2038   -0.9640    5.3977 C.2       1 RES1    0.0000
     33 O6B       -7.3962   -2.5198    5.2769 O.2       1 RES1    0.0000
     34 C3B       -5.9031   -1.3544    3.4309 C.2       1 RES1    0.0000
     35 N4B       -4.5394   -3.1806    4.4348 N.pl3     1 RES1    0.0000
     36 O7B       -6.0642   -2.0189    6.9107 O.2       1 RES1    0.0000
     37 C4B       -7.0432    0.5213    2.4984 C.3       1 RES1    0.0000
     38 C5B       -2.5938   -0.0923    6.3263 C.2       1 RES1    0.0000
     39 C6B       -7.6281    1.7753    3.0194 C.3       1 RES1    0.0000
     40 H1B       -8.0414    2.2828    2.2688 H         1 RES1    0.0000
     41 H2B       -6.3260    0.5889    1.8863 H         1 RES1    0.0000
     42 H3B       -7.7304   -0.1236    2.1369 H         1 RES1    0.0000
     43 H4B       -6.9262    2.3773    3.2977 H         1 RES1    0.0000
     44 H5B       -8.3288    1.5485    3.6143 H         1 RES1    0.0000
@<TRIPOS>BOND
     1    1    9 1
     2    2   12 2
     3    3   12 1
     4    4   10 2
     5    5   13 2
     6    6    8 1
     7    7   13 2
     8    8   11 2
     9    9   16 2
    10   10    1 1
    11   12    6 1
    12   13    6 1
    13   14    8 2
    14   15    3 1
    15   16    4 1
    16   17   15 1
    17   18   17 1
    18   19   15 1
    19   20   15 1
    20   21   17 1
    21   22   17 1
    22   23   31 1
    23   24   34 2
    24   25   34 1
    25   26   32 2
    26   27   35 2
    27   28   30 1
    28   29   35 2
    29   30   33 2
    30   31   38 2
    31   32   23 1
    32   34   28 1
    33   35   28 1
    34   36   30 2
    35   37   25 1
    36   38   16 1
    37   39   37 1
    38   40   39 1
    39   41   37 1
    40   42   37 1
    41   43   39 1
    42   44   39 1
    43    6   10 1
    44   26   38 1
    45   28   32 1
@<TRIPOS>SUBSTRUCTURE
     1 RES1 1

@<TRIPOS>CRYSIN
  10.4829    7.2700   13.7400  90.0000 106.2530  90.0000 231 1

