# MOL2 file generated by ConQuest
# Please check atom types

@<TRIPOS>MOLECULE
VOCHUR
    32    33     1
SMALL
USER_CHARGES
****
Generated from CSD

@<TRIPOS>ATOM
      1 O1         0.5718    7.0877    9.3672 O.2       1 RES1    0.0000
      2 O2        -3.3441    5.8278   10.9430 O.2       1 RES1    0.0000
      3 N1        -1.2530    5.3601   10.2015 N.am      1 RES1    0.0000
      4 N2         1.3501    6.1305    9.1337 N.pl3     1 RES1    0.0000
      5 N3        -0.3245    3.2183   10.5215 N.2       1 RES1    0.0000
      6 N4        -2.5195    3.7306   11.2134 N.am      1 RES1    0.0000
      7 N5         1.9895    3.8426    9.2605 N.pl3     1 RES1    1.0000
      8 O3         2.4474    6.2985    8.5680 O.2       1 RES1    0.0000
      9 C1        -0.2262    4.4655   10.0949 C.2       1 RES1    0.0000
     10 N6        -1.6281    1.5988   11.4960 N.pl3     1 RES1    1.0000
     11 O4         2.9167    3.7436   10.0179 O.2       1 RES1   -1.0000
     12 C2        -2.4350    5.0287   10.7940 C.2       1 RES1    0.0000
     13 O5         1.8663    3.1386    8.2940 O.2       1 RES1   -1.0000
     14 C3        -1.4833    2.8362   11.0727 C.2       1 RES1    0.0000
     15 C4         0.9793    4.8657    9.5035 C.2       1 RES1    0.0000
     16 C5        -0.5956    0.5726   11.2344 C.3       1 RES1    0.0000
     17 C6        -0.2521   -0.1792   12.4801 C.3       1 RES1    0.0000
     18 C7        -2.8353    1.0632   12.1443 C.3       1 RES1    0.0000
     19 C8        -2.4917    0.3244   13.3848 C.3       1 RES1    0.0000
     20 C9        -1.4725   -0.7388   13.1647 C.3       1 RES1    0.0000
     21 H1        -3.3631    3.4274   11.4419 H         1 RES1    0.0000
     22 H2        -1.1180    6.2420    9.9092 H         1 RES1    0.0000
     23 H3         0.3588   -0.8797   12.2386 H         1 RES1    0.0000
     24 H4        -3.3659    1.8028   12.4499 H         1 RES1    0.0000
     25 H5         0.1882    1.1050   11.0789 H         1 RES1    0.0000
     26 H6        -3.2550   -0.0460   13.8359 H         1 RES1    0.0000
     27 H7         0.2347    0.3970   13.0739 H         1 RES1    0.0000
     28 H8        -0.9951   -0.0418   10.6140 H         1 RES1    0.0000
     29 H9        -1.8692   -1.3999   12.5927 H         1 RES1    0.0000
     30 H10       -3.0999    0.4903   11.4219 H         1 RES1    0.0000
     31 H11       -1.2036   -1.1060   14.0104 H         1 RES1    0.0000
     32 H12       -2.1292    1.0409   13.9100 H         1 RES1    0.0000
@<TRIPOS>BOND
     1    1    4 2
     2    2   12 2
     3    3    9 1
     4    4    8 2
     5    5    9 2
     6    6   12 1
     7    7   11 1
     8    9   15 1
     9   10   14 2
    10   12    3 1
    11   13    7 1
    12   14    5 1
    13   15    4 1
    14   16   10 1
    15   17   16 1
    16   18   10 1
    17   19   18 1
    18   20   17 1
    19   21    6 1
    20   22    3 1
    21   23   17 1
    22   24   18 1
    23   25   16 1
    24   26   19 1
    25   27   17 1
    26   28   16 1
    27   29   20 1
    28   30   18 1
    29   31   20 1
    30   32   19 1
    31    6   14 1
    32    7   15 2
    33   19   20 1
@<TRIPOS>SUBSTRUCTURE
     1 RES1 1

@<TRIPOS>CRYSIN
  11.5260    9.2110   12.1820  90.0000 110.6900  90.0000 231 1

