# MOL2 file generated by ConQuest
# Please check atom types

@<TRIPOS>MOLECULE
VOCMUV
    35    34     2
SMALL
NO_CHARGES
****
Generated from CSD

@<TRIPOS>ATOM
      1 C1         2.0674    6.5033    1.3838 C.3       1 RES1    0.0000
      2 C2         2.2334    7.9766    1.2168 C.3       1 RES1    0.0000
      3 C3         1.5300    8.7362    2.3639 C.3       1 RES1    0.0000
      4 C4         0.0924    8.2900    2.5635 C.3       1 RES1    0.0000
      5 C5         0.0257    6.7757    2.6128 C.3       1 RES1    0.0000
      6 C6        -1.4016    6.2015    2.6421 C.3       1 RES1    0.0000
      7 C7         2.7143    4.5412    0.4129 C.3       1 RES1    0.0000
      8 C8        -1.4307    9.6238    3.8008 C.3       1 RES1    0.0000
      9 O1         2.5911    5.9094    0.2489 O.3       1 RES1    0.0000
     10 O2         3.6093    8.3933    1.2573 O.3       1 RES1    0.0000
     11 O3         1.4769   10.1422    1.9783 O.3       1 RES1    0.0000
     12 O4        -0.3611    8.7690    3.8111 O.3       1 RES1    0.0000
     13 O5         0.6743    6.2031    1.4321 O.3       1 RES1    0.0000
     14 O6        -2.0485    6.8200    1.4955 O.3       1 RES1    0.0000
     15 O7         2.7502   10.5983    3.7593 O.2       1 RES1    0.0000
     16 O8         2.0674   12.1683    2.3356 O.2       1 RES1    0.0000
     17 O9        -3.8849    5.7519    2.1696 O.2       1 RES1    0.0000
     18 O10       -3.9105    6.9233    0.3734 O.2       1 RES1    0.0000
     19 N1         2.1718   11.0429    2.7983 N.pl3     1 RES1    0.0000
     20 N2        -3.3800    6.4689    1.3584 N.pl3     1 RES1    0.0000
     21 H1         2.5671    6.1522    2.2745 H         1 RES1    0.0000
     22 H2         1.7970    8.2850    0.2733 H         1 RES1    0.0000
     23 H3         2.0879    8.6296    3.2849 H         1 RES1    0.0000
     24 H4        -0.5305    8.6624    1.7669 H         1 RES1    0.0000
     25 H5         0.5476    6.4312    3.4948 H         1 RES1    0.0000
     26 H6        -1.3862    5.1351    2.5430 H         1 RES1    0.0000
     27 H7        -1.8997    6.4640    3.5582 H         1 RES1    0.0000
     28 H8         3.1319    4.0687   -0.4735 H         1 RES1    0.0000
     29 H9         1.7456    4.1179    0.6101 H         1 RES1    0.0000
     30 H10        3.3715    4.3476    1.2495 H         1 RES1    0.0000
     31 H11       -1.7799    9.9913    4.7541 H         1 RES1    0.0000
     32 H12       -2.2590    9.1053    3.3288 H         1 RES1    0.0000
     33 H13       -1.1638   10.4834    3.2068 H         1 RES1    0.0000
     34 H14        4.2100    7.8421    2.0403 H         1 RES1    0.0000
     35 H15        4.2614    8.9741    2.0305 Du        2 SUP2    0.0000
@<TRIPOS>BOND
     1    1    2 1
     2    2    3 1
     3    3    4 1
     4    4    5 1
     5    5    6 1
     6    6   14 1
     7    7    9 1
     8    8   12 1
     9    9    1 1
    10   10    2 1
    11   11    3 1
    12   12    4 1
    13   13    1 1
    14   14   20 1
    15   15   19 2
    16   16   19 2
    17   17   20 2
    18   18   20 2
    19   19   11 1
    20   21    1 1
    21   22    2 1
    22   23    3 1
    23   24    4 1
    24   25    5 1
    25   26    6 1
    26   27    6 1
    27   28    7 1
    28   29    7 1
    29   30    7 1
    30   31    8 1
    31   32    8 1
    32   33    8 1
    33   34   10 1
    34    5   13 1
@<TRIPOS>SUBSTRUCTURE
     1 RES1 1
     2 SUP2 35

@<TRIPOS>CRYSIN
  17.1140   16.4060    4.8810  90.0000  90.0000  90.0000  19 1

