# MOL2 file generated by ConQuest
# Please check atom types

@<TRIPOS>MOLECULE
VOFBID
    29    30     1
SMALL
NO_CHARGES
****
Generated from CSD

@<TRIPOS>ATOM
      1 C1         6.7832   -1.2293    5.5745 C.ar      1 RES1    0.0000
      2 C2         7.8338   -1.7141    4.8015 C.ar      1 RES1    0.0000
      3 C3         8.0225   -3.0556    4.5634 C.ar      1 RES1    0.0000
      4 H1         8.7506   -3.3520    4.0661 H         1 RES1    0.0000
      5 C4         7.1101   -3.9508    5.0774 C.ar      1 RES1    0.0000
      6 H2         7.2232   -4.8614    4.9267 H         1 RES1    0.0000
      7 C5         6.0370   -3.5113    5.8077 C.ar      1 RES1    0.0000
      8 H3         5.4090   -4.1204    6.1237 H         1 RES1    0.0000
      9 C6         5.8868   -2.1584    6.0758 C.ar      1 RES1    0.0000
     10 H4         5.1738   -1.8712    6.5990 H         1 RES1    0.0000
     11 C7         6.6989    0.2007    6.0201 C.2       1 RES1    0.0000
     12 C8         5.1355    2.0654    6.3280 C.ar      1 RES1    0.0000
     13 C9         5.9451    3.1766    6.1742 C.ar      1 RES1    0.0000
     14 H5         6.7624    3.0996    5.7368 H         1 RES1    0.0000
     15 C10        5.5401    4.3978    6.6705 C.ar      1 RES1    0.0000
     16 H6         6.0845    5.1449    6.5642 H         1 RES1    0.0000
     17 C11        4.3259    4.5158    7.3255 C.ar      1 RES1    0.0000
     18 C12        3.4999    3.4138    7.4495 C.ar      1 RES1    0.0000
     19 H7         2.6745    3.4950    7.8701 H         1 RES1    0.0000
     20 C13        3.9025    2.1917    6.9465 C.ar      1 RES1    0.0000
     21 H8         3.3440    1.4522    7.0237 H         1 RES1    0.0000
     22 N1         8.7278   -0.7710    4.1347 N.pl3     1 RES1    0.0000
     23 N2         5.5096    0.7782    5.8374 N.am      1 RES1    0.0000
     24 H9         4.9086    0.3096    5.4636 H         1 RES1    0.0000
     25 O1         9.8974   -1.0831    4.0050 O.2       1 RES1    0.0000
     26 O2         8.2789    0.2737    3.7277 O.2       1 RES1    0.0000
     27 O3         7.6468    0.7496    6.5604 O.2       1 RES1    0.0000
     28 O4         3.9963    5.7346    7.8490 O.3       1 RES1    0.0000
     29 H10        3.2516    5.6323    8.3360 H         1 RES1    0.0000
@<TRIPOS>BOND
     1    1    2 ar
     2    2    3 ar
     3    3    4 1
     4    5    3 ar
     5    6    5 1
     6    7    5 ar
     7    8    7 1
     8    9    1 ar
     9   10    9 1
    10   11    1 1
    11   12   13 ar
    12   13   14 1
    13   15   13 ar
    14   16   15 1
    15   17   15 ar
    16   18   17 ar
    17   19   18 1
    18   20   12 ar
    19   21   20 1
    20   22    2 1
    21   23   11 1
    22   24   23 1
    23   25   22 2
    24   26   22 2
    25   27   11 2
    26   28   17 1
    27   29   28 1
    28    7    9 ar
    29   12   23 1
    30   18   20 ar
@<TRIPOS>SUBSTRUCTURE
     1 RES1 1

@<TRIPOS>CRYSIN
  11.9986   12.4333   15.7908  90.0000  90.0000  90.0000  61 1

