# MOL2 file generated by ConQuest
# Please check atom types

@<TRIPOS>MOLECULE
VOFROY
    50    52     1
SMALL
NO_CHARGES
****
Generated from CSD

@<TRIPOS>ATOM
      1 N1        -2.9637   -0.0224    8.5764 N.3       1 RES1    0.0000
      2 N2        -6.9828   -0.9022    7.7415 N.pl3     1 RES1    0.0000
      3 O1        -3.1637    2.0294    4.9683 O.2       1 RES1    0.0000
      4 O2        -1.8049    2.2788    9.6163 O.2       1 RES1    0.0000
      5 O3        -0.1920    2.2608    8.0702 O.3       1 RES1    0.0000
      6 O4        -6.2383   -2.0146    7.5616 O.2       1 RES1    0.0000
      7 O5        -7.9642   -1.0358    7.3505 O.2       1 RES1    0.0000
      8 C1        -5.0447    1.2101   10.1045 C.ar      1 RES1    0.0000
      9 C2        -5.9998    1.3681   11.0941 C.ar      1 RES1    0.0000
     10 C3        -7.2361    0.7806   11.0005 C.ar      1 RES1    0.0000
     11 C4        -7.5452    0.0325    9.8862 C.ar      1 RES1    0.0000
     12 C5        -6.5900   -0.1225    8.9122 C.ar      1 RES1    0.0000
     13 C6        -5.3172    0.4396    8.9794 C.ar      1 RES1    0.0000
     14 C7        -4.2344    0.3147    7.9082 C.3       1 RES1    0.0000
     15 H1        -4.4752   -0.4136    7.2977 H         1 RES1    0.0000
     16 C8        -4.1223    1.6044    7.1154 C.3       1 RES1    0.0000
     17 C9        -3.0568    1.4983    6.0598 C.2       1 RES1    0.0000
     18 C10       -1.8732    0.6868    6.4341 C.3       1 RES1    0.0000
     19 C11       -1.7577    0.5124    7.9550 C.3       1 RES1    0.0000
     20 C12       -2.8776   -1.4593    8.8750 C.3       1 RES1    0.0000
     21 C13       -1.8554   -1.7875    9.9174 C.ar      1 RES1    0.0000
     22 C14       -0.9914   -2.8596    9.7555 C.ar      1 RES1    0.0000
     23 C15       -0.0969   -3.2029   10.7462 C.ar      1 RES1    0.0000
     24 C16       -0.0630   -2.4849   11.8965 C.ar      1 RES1    0.0000
     25 C17       -0.8930   -1.4163   12.0981 C.ar      1 RES1    0.0000
     26 C18       -1.7976   -1.0656   11.1049 C.ar      1 RES1    0.0000
     27 C19       -1.2862    1.7829    8.6531 C.2       1 RES1    0.0000
     28 C20        0.3632    3.4545    8.6615 C.3       1 RES1    0.0000
     29 C21        1.6464    3.7684    7.9778 C.3       1 RES1    0.0000
     30 H2        -4.1245    1.6624   10.1633 H         1 RES1    0.0000
     31 H3        -5.7806    1.7931   11.7682 H         1 RES1    0.0000
     32 H4        -7.9252    0.9330   11.6734 H         1 RES1    0.0000
     33 H5        -8.4187   -0.4580    9.7555 H         1 RES1    0.0000
     34 H6        -4.9398    1.7373    6.8083 H         1 RES1    0.0000
     35 H7        -3.8928    2.4019    7.7091 H         1 RES1    0.0000
     36 H8        -1.0136    1.0157    6.0682 H         1 RES1    0.0000
     37 H9        -2.0066   -0.1276    6.1378 H         1 RES1    0.0000
     38 H10       -1.0181   -0.1269    8.1493 H         1 RES1    0.0000
     39 H11       -3.7434   -1.6902    9.2205 H         1 RES1    0.0000
     40 H12       -1.1112   -3.3324    8.9434 H         1 RES1    0.0000
     41 H13        0.4061   -4.1653   10.4752 H         1 RES1    0.0000
     42 H14        0.4401   -2.8111   12.3883 H         1 RES1    0.0000
     43 H15       -1.0538   -0.9075   13.0277 H         1 RES1    0.0000
     44 H16       -2.4631   -0.3314   11.3376 H         1 RES1    0.0000
     45 H17        0.4294    3.2005    9.5839 H         1 RES1    0.0000
     46 H18       -0.2269    4.1582    8.6531 H         1 RES1    0.0000
     47 H19        1.3745    3.9992    6.9834 H         1 RES1    0.0000
     48 H20        2.0384    4.8930    8.4072 H         1 RES1    0.0000
     49 H21       -2.6667   -2.0331    8.0114 H         1 RES1    0.0000
     50 H22        2.1420    3.2675    8.0078 H         1 RES1    0.0000
@<TRIPOS>BOND
     1    1   14 1
     2    2    6 2
     3    3   17 2
     4    4   27 2
     5    5   27 1
     6    7    2 2
     7    8    9 ar
     8    9   10 ar
     9   10   11 ar
    10   11   12 ar
    11   12    2 1
    12   13    8 ar
    13   14   13 1
    14   15   14 1
    15   16   14 1
    16   17   16 1
    17   18   17 1
    18   19    1 1
    19   20    1 1
    20   21   20 1
    21   22   21 ar
    22   23   22 ar
    23   24   23 ar
    24   25   24 ar
    25   26   21 ar
    26   27   19 1
    27   28    5 1
    28   29   28 1
    29   30    8 1
    30   31    9 1
    31   32   10 1
    32   33   11 1
    33   34   16 1
    34   35   16 1
    35   36   18 1
    36   37   18 1
    37   38   19 1
    38   39   20 1
    39   40   22 1
    40   41   23 1
    41   42   24 1
    42   43   25 1
    43   44   26 1
    44   45   28 1
    45   46   28 1
    46   47   29 1
    47   48   29 1
    48   49   20 1
    49   50   29 1
    50   12   13 ar
    51   18   19 1
    52   25   26 ar
@<TRIPOS>SUBSTRUCTURE
     1 RES1 1

@<TRIPOS>CRYSIN
   9.2290    9.2670   12.5180  96.5800 102.2000 108.7600   2 1

