# MOL2 file generated by ConQuest
# Please check atom types

@<TRIPOS>MOLECULE
VOFRIS
    41    44     1
SMALL
NO_CHARGES
****
Generated from CSD

@<TRIPOS>ATOM
      1 N1         2.8940    8.5279   15.6596 N.3       1 RES1    0.0000
      2 O1        -0.0470    9.2935   19.3117 O.3       1 RES1    0.0000
      3 C1         0.4379   10.4947   18.7070 C.3       1 RES1    0.0000
      4 C2        -0.7435   11.3564   18.3691 C.3       1 RES1    0.0000
      5 H1        -0.4573   12.1597   17.9667 H         1 RES1    0.0000
      6 H2        -1.2152   11.5868   19.1554 H         1 RES1    0.0000
      7 H3        -1.3593   10.9671   17.6977 H         1 RES1    0.0000
      8 C3         1.4558   11.1846   19.5989 C.3       1 RES1    0.0000
      9 H4         0.9709   11.4699   20.3873 H         1 RES1    0.0000
     10 H5         1.7727   12.0077   19.1554 H         1 RES1    0.0000
     11 H6         2.3302   10.6046   19.8124 H         1 RES1    0.0000
     12 O2         1.0874   10.0690   17.5006 O.3       1 RES1    0.0000
     13 C4         0.8889    8.2651   18.9563 C.3       1 RES1    0.0000
     14 H7         0.3821    7.4595   18.9912 H         1 RES1    0.0000
     15 H8         1.6850    8.3013   19.5968 H         1 RES1    0.0000
     16 O3         2.3891    7.2582   15.1188 O.3       1 RES1    0.0000
     17 C5         1.2873    8.6521   17.5265 C.3       1 RES1    0.0000
     18 H9         0.6765    8.2312   16.8744 H         1 RES1    0.0000
     19 C6         2.6992    8.2768   17.1288 C.3       1 RES1    0.0000
     20 H10        3.3137    8.8356   17.5951 H         1 RES1    0.0000
     21 C7         2.9673    6.7439   17.2937 C.3       1 RES1    0.0000
     22 H11        3.7208    6.6060   17.8702 H         1 RES1    0.0000
     23 H12        2.1861    6.2669   17.6669 H         1 RES1    0.0000
     24 C8         3.2842    6.3675   15.8555 C.3       1 RES1    0.0000
     25 H13        3.0568    5.4719   15.5563 H         1 RES1    0.0000
     26 C9         4.6435    6.8632   15.4299 C.3       1 RES1    0.0000
     27 H14        4.8671    6.5358   14.5483 H         1 RES1    0.0000
     28 H15        5.3119    6.6995   16.0984 H         1 RES1    0.0000
     29 C10        4.3535    8.4089   15.3350 C.3       1 RES1    0.0000
     30 H16        4.8483    8.9362   16.0327 H         1 RES1    0.0000
     31 C11        4.7074    8.9880   13.9755 C.ar      1 RES1    0.0000
     32 C12        5.9790    9.5231   13.7652 C.ar      1 RES1    0.0000
     33 H17        6.5208    9.5874   14.5318 H         1 RES1    0.0000
     34 C13        6.3379   10.0282   12.5104 C.ar      1 RES1    0.0000
     35 H18        7.1848   10.3591   12.4151 H         1 RES1    0.0000
     36 C14        5.4384   10.0095   11.4653 C.ar      1 RES1    0.0000
     37 H19        5.7065   10.3825   10.6186 H         1 RES1    0.0000
     38 C15        4.1781    9.4881   11.6583 C.ar      1 RES1    0.0000
     39 H20        3.5893    9.4354   10.9492 H         1 RES1    0.0000
     40 C16        3.8054    8.9701   12.9043 C.ar      1 RES1    0.0000
     41 H21        2.9817    8.5819   13.0495 H         1 RES1    0.0000
@<TRIPOS>BOND
     1    1   16 1
     2    2    3 1
     3    3    4 1
     4    4    5 1
     5    6    4 1
     6    7    4 1
     7    8    3 1
     8    9    8 1
     9   10    8 1
    10   11    8 1
    11   12    3 1
    12   13    2 1
    13   14   13 1
    14   15   13 1
    15   16   24 1
    16   17   12 1
    17   18   17 1
    18   19    1 1
    19   20   19 1
    20   21   19 1
    21   22   21 1
    22   23   21 1
    23   24   21 1
    24   25   24 1
    25   26   24 1
    26   27   26 1
    27   28   26 1
    28   29    1 1
    29   30   29 1
    30   31   29 1
    31   32   31 ar
    32   33   32 1
    33   34   32 ar
    34   35   34 1
    35   36   34 ar
    36   37   36 1
    37   38   36 ar
    38   39   38 1
    39   40   31 ar
    40   41   40 1
    41   13   17 1
    42   17   19 1
    43   26   29 1
    44   38   40 ar
@<TRIPOS>SUBSTRUCTURE
     1 RES1 1

@<TRIPOS>CRYSIN
   6.2640   11.6920   20.5310  90.0000  90.0000  90.0000  19 1

