# MOL2 file generated by ConQuest
# Please check atom types

@<TRIPOS>MOLECULE
VOGCOL01
    51    53     1
SMALL
NO_CHARGES
****
Generated from CSD

@<TRIPOS>ATOM
      1 C1        11.6313    0.7130   10.8632 C.3       1 RES1    0.0000
      2 H1        11.5617    1.6753   11.0364 H         1 RES1    0.0000
      3 H2        12.4827    0.3786   11.2135 H         1 RES1    0.0000
      4 H3        10.8908    0.2477   11.3052 H         1 RES1    0.0000
      5 C2        11.5677    0.4678    9.4009 C.3       1 RES1    0.0000
      6 H4        12.3048    0.9423    8.9414 H         1 RES1    0.0000
      7 H5        11.6505   -0.5004    9.2114 H         1 RES1    0.0000
      8 C3        10.1120    1.0624    7.6361 C.2       1 RES1    0.0000
      9 C4         8.8047    1.6745    7.2633 C.2       1 RES1    0.0000
     10 C5         7.1539    2.5576    6.1531 C.2       1 RES1    0.0000
     11 C6         8.3565    1.9864    5.9686 C.2       1 RES1    0.0000
     12 H6         8.8036    1.8288    5.1458 H         1 RES1    0.0000
     13 C7         6.1226    3.1505    5.2585 C.3       1 RES1    0.0000
     14 H7         5.9593    4.0879    5.5301 H         1 RES1    0.0000
     15 H8         5.2741    2.6510    5.3669 H         1 RES1    0.0000
     16 C8         6.5307    3.1214    3.8000 C.3       1 RES1    0.0000
     17 H9         7.4312    3.5233    3.7064 H         1 RES1    0.0000
     18 H10        6.5867    2.1807    3.4979 H         1 RES1    0.0000
     19 C9         5.5673    3.8644    2.9209 C.3       1 RES1    0.0000
     20 H11        5.4829    4.8009    3.2304 H         1 RES1    0.0000
     21 H12        5.9009    3.8744    1.9895 H         1 RES1    0.0000
     22 C10        3.3037    3.9198    2.2818 C.ar      1 RES1    0.0000
     23 C11        3.2002    3.7714    0.8973 C.ar      1 RES1    0.0000
     24 C12        2.2290    4.5043    0.2326 C.ar      1 RES1    0.0000
     25 H13        2.1575    4.4348   -0.7121 H         1 RES1    0.0000
     26 C13        1.3548    5.3431    0.9279 C.ar      1 RES1    0.0000
     27 C14        1.4490    5.4352    2.3173 C.ar      1 RES1    0.0000
     28 H14        0.8370    5.9859    2.7933 H         1 RES1    0.0000
     29 C15        2.4240    4.7330    3.0146 C.ar      1 RES1    0.0000
     30 C16        2.5254    4.8309    4.5142 C.3       1 RES1    0.0000
     31 H15        1.8821    5.4939    4.8431 H         1 RES1    0.0000
     32 H16        3.4329    5.1044    4.7627 H         1 RES1    0.0000
     33 H17        2.3276    3.9578    4.9122 H         1 RES1    0.0000
     34 C17        4.0959    2.8362    0.1315 C.3       1 RES1    0.0000
     35 H18        3.6174    2.4934   -0.6519 H         1 RES1    0.0000
     36 H19        4.3563    2.0873    0.7084 H         1 RES1    0.0000
     37 H20        4.8983    3.3173   -0.1608 H         1 RES1    0.0000
     38 C18        0.3509    6.0965    0.1648 C.2       1 RES1    0.0000
     39 C19       -0.6611    6.8881   -1.4837 C.2       1 RES1    0.0000
     40 C20       -1.1692    7.3210   -2.8014 C.3       1 RES1    0.0000
     41 H21       -0.9373    8.2625   -2.9478 H         1 RES1    0.0000
     42 H22       -2.1437    7.2167   -2.8260 H         1 RES1    0.0000
     43 H23       -0.7633    6.7723   -3.5042 H         1 RES1    0.0000
     44 N1         7.9584    2.0414    8.1901 N.2       1 RES1    0.0000
     45 N2        -0.6085    6.7901    0.7282 N.2       1 RES1    0.0000
     46 N3         0.3516    6.1291   -1.2158 N.2       1 RES1    0.0000
     47 O1        10.2804    0.9636    8.9351 O.3       1 RES1    0.0000
     48 O2        10.9175    0.7547    6.8149 O.2       1 RES1    0.0000
     49 O3         6.8866    2.6060    7.4748 O.3       1 RES1    0.0000
     50 O4         4.2787    3.2116    2.9746 O.3       1 RES1    0.0000
     51 O5        -1.3004    7.3342   -0.3902 O.3       1 RES1    0.0000
@<TRIPOS>BOND
     1    1    2 1
     2    3    1 1
     3    4    1 1
     4    5    1 1
     5    6    5 1
     6    7    5 1
     7    8    9 1
     8    9   11 1
     9   10   11 2
    10   11   12 1
    11   13   10 1
    12   14   13 1
    13   15   13 1
    14   16   13 1
    15   17   16 1
    16   18   16 1
    17   19   16 1
    18   20   19 1
    19   21   19 1
    20   22   23 ar
    21   23   24 ar
    22   24   25 1
    23   26   24 ar
    24   27   26 ar
    25   28   27 1
    26   29   22 ar
    27   30   29 1
    28   31   30 1
    29   32   30 1
    30   33   30 1
    31   34   23 1
    32   35   34 1
    33   36   34 1
    34   37   34 1
    35   38   26 1
    36   39   40 1
    37   40   41 1
    38   42   40 1
    39   43   40 1
    40   44    9 2
    41   45   38 2
    42   46   38 1
    43   47    5 1
    44   48    8 2
    45   49   10 1
    46   50   19 1
    47   51   39 1
    48    8   47 1
    49   22   50 1
    50   27   29 ar
    51   39   46 2
    52   44   49 1
    53   45   51 1
@<TRIPOS>SUBSTRUCTURE
     1 RES1 1

@<TRIPOS>CRYSIN
  18.6194    8.3392   12.7669  90.0000 100.3310  90.0000  14 1

