# MOL2 file generated by ConQuest
# Please check atom types

@<TRIPOS>MOLECULE
VOHLEK
    37    38     1
SMALL
NO_CHARGES
****
Generated from CSD

@<TRIPOS>ATOM
      1 O1        -5.9784   13.7338   17.3923 O.3       1 RES1    0.0000
      2 N1        -4.6209   13.7172   17.7396 N.2       1 RES1    0.0000
      3 N2        -5.2746   11.2028   20.5021 N.3       1 RES1    0.0000
      4 C1        -5.5387   13.5637   19.9997 C.ar      1 RES1    0.0000
      5 C2        -5.8954   12.4395   20.7558 C.ar      1 RES1    0.0000
      6 C3        -6.8400   12.6301   21.7700 C.ar      1 RES1    0.0000
      7 C4        -7.4024   13.8622   22.0023 C.ar      1 RES1    0.0000
      8 C5        -7.0840   14.9641   21.2413 C.ar      1 RES1    0.0000
      9 C6        -6.1412   14.7895   20.2350 C.ar      1 RES1    0.0000
     10 C7        -4.4322   13.5533   19.0039 C.2       1 RES1    0.0000
     11 C8        -3.0319   13.4941   19.4667 C.ar      1 RES1    0.0000
     12 C9        -1.9733   13.3642   18.5728 C.ar      1 RES1    0.0000
     13 C10       -0.6773   13.3817   19.0166 C.ar      1 RES1    0.0000
     14 C11       -0.3917   13.5139   20.3606 C.ar      1 RES1    0.0000
     15 C12       -1.4237   13.6146   21.2589 C.ar      1 RES1    0.0000
     16 C13       -2.7332   13.6049   20.8217 C.ar      1 RES1    0.0000
     17 C14       -7.7126   16.3137   21.4518 C.3       1 RES1    0.0000
     18 C15       -5.4842   10.6387   19.1776 C.3       1 RES1    0.0000
     19 C16       -5.4244   10.1832   21.5327 C.3       1 RES1    0.0000
     20 H1        -7.0900   11.8608   22.2703 H         1 RES1    0.0000
     21 H2        -8.1008   13.9904   22.6885 H         1 RES1    0.0000
     22 H3        -5.8478   15.5754   19.7159 H         1 RES1    0.0000
     23 H4        -8.2414   16.3010   22.2390 H         1 RES1    0.0000
     24 H5        -7.0314   16.9827   21.6585 H         1 RES1    0.0000
     25 H6        -8.3948   16.5023   20.7654 H         1 RES1    0.0000
     26 H7        -6.4406   10.1845   19.1511 H         1 RES1    0.0000
     27 H8        -4.7130    9.9833   18.9244 H         1 RES1    0.0000
     28 H9        -5.4757   11.3212   18.5393 H         1 RES1    0.0000
     29 H10       -4.7560    9.4420   21.3107 H         1 RES1    0.0000
     30 H11       -6.3664    9.8226   21.5354 H         1 RES1    0.0000
     31 H12       -5.2384   10.6328   22.3504 H         1 RES1    0.0000
     32 H13       -5.9347   13.9701   16.4775 H         1 RES1    0.0000
     33 H14       -2.1797   13.2377   17.5876 H         1 RES1    0.0000
     34 H15        0.0703   13.2885   18.3889 H         1 RES1    0.0000
     35 H16        0.5479   13.5337   20.6618 H         1 RES1    0.0000
     36 H17       -1.2383   13.7316   22.2214 H         1 RES1    0.0000
     37 H18       -3.4825   13.7012   21.4651 H         1 RES1    0.0000
@<TRIPOS>BOND
     1    1    2 1
     2    2   10 2
     3    3    5 1
     4    4    5 ar
     5    5    6 ar
     6    6    7 ar
     7    7    8 ar
     8    8    9 ar
     9    9    4 ar
    10   10    4 1
    11   11   10 1
    12   12   11 ar
    13   13   12 ar
    14   14   13 ar
    15   15   14 ar
    16   16   11 ar
    17   17    8 1
    18   18    3 1
    19   19    3 1
    20   20    6 1
    21   21    7 1
    22   22    9 1
    23   23   17 1
    24   24   17 1
    25   25   17 1
    26   26   18 1
    27   27   18 1
    28   28   18 1
    29   29   19 1
    30   30   19 1
    31   31   19 1
    32   32    1 1
    33   33   12 1
    34   34   13 1
    35   35   14 1
    36   36   15 1
    37   37   16 1
    38   15   16 ar
@<TRIPOS>SUBSTRUCTURE
     1 RES1 1

@<TRIPOS>CRYSIN
  19.5318   19.5318   19.5439  90.0000  90.0000 120.0000 233 1

