# MOL2 file generated by ConQuest
# Please check atom types

@<TRIPOS>MOLECULE
VOHVUL
    59    65     1
SMALL
NO_CHARGES
****
Generated from CSD

@<TRIPOS>ATOM
      1 O1        -1.8873    1.2821    2.5853 O.3       1 RES1    0.0000
      2 O2        -3.6483    1.3193    3.9824 O.2       1 RES1    0.0000
      3 O3        -0.9751    4.9739    6.1367 O.2       1 RES1    0.0000
      4 O4        -1.5330    3.5414    4.6220 O.2       1 RES1    0.0000
      5 O5         0.1646   -2.1184    5.8157 O.2       1 RES1    0.0000
      6 N1        -0.3304    0.1587    3.7927 N.2       1 RES1    0.0000
      7 N2        -2.5450   -0.8932    6.4530 N.3       1 RES1    0.0000
      8 N3        -0.8254    3.9123    5.5564 N.pl3     1 RES1    0.0000
      9 C1        -2.5285    0.9793    3.7752 C.2       1 RES1    0.0000
     10 C2        -1.5208    0.2296    4.6403 C.3       1 RES1    0.0000
     11 C3        -0.5971    0.7875    2.7239 C.2       1 RES1    0.0000
     12 C4         0.3276    1.1006    1.6356 C.ar      1 RES1    0.0000
     13 C5        -0.1062    1.6733    0.4476 C.ar      1 RES1    0.0000
     14 H1        -1.0169    1.8687    0.3191 H         1 RES1    0.0000
     15 C6         0.8210    1.9551   -0.5532 C.ar      1 RES1    0.0000
     16 H2         0.5366    2.3478   -1.3584 H         1 RES1    0.0000
     17 C7         2.1471    1.6617   -0.3669 C.ar      1 RES1    0.0000
     18 H3         2.7646    1.8331   -1.0555 H         1 RES1    0.0000
     19 C8         2.5815    1.1166    0.8233 C.ar      1 RES1    0.0000
     20 H4         3.4956    0.9379    0.9523 H         1 RES1    0.0000
     21 C9         1.6753    0.8331    1.8239 C.ar      1 RES1    0.0000
     22 H5         1.9713    0.4588    2.6330 H         1 RES1    0.0000
     23 C10       -1.2813    1.0251    5.9876 C.3       1 RES1    0.0000
     24 H6        -1.9622    1.7430    6.0347 H         1 RES1    0.0000
     25 C11       -1.6011    0.0126    7.0938 C.3       1 RES1    0.0000
     26 H7        -0.7942   -0.4630    7.3818 H         1 RES1    0.0000
     27 H8        -2.0063    0.4535    7.8701 H         1 RES1    0.0000
     28 C12       -2.8687   -2.0693    7.2553 C.3       1 RES1    0.0000
     29 H9        -2.0715   -2.6096    7.3737 H         1 RES1    0.0000
     30 H10       -3.5496   -2.5917    6.8033 H         1 RES1    0.0000
     31 H11       -3.1996   -1.7881    8.1230 H         1 RES1    0.0000
     32 C13       -2.0287   -1.1799    5.1151 C.3       1 RES1    0.0000
     33 C14        0.0763    1.6769    6.1007 C.ar      1 RES1    0.0000
     34 C15        0.2816    3.0475    5.9641 C.ar      1 RES1    0.0000
     35 C16        1.5071    3.6615    6.1696 C.ar      1 RES1    0.0000
     36 H12        1.5898    4.5960    6.1056 H         1 RES1    0.0000
     37 C17        2.5960    2.8836    6.4670 C.ar      1 RES1    0.0000
     38 H13        3.4382    3.2812    6.5938 H         1 RES1    0.0000
     39 C18        2.4523    1.5149    6.5788 C.ar      1 RES1    0.0000
     40 H14        3.2013    0.9811    6.7695 H         1 RES1    0.0000
     41 C19        1.2128    0.9256    6.4108 C.ar      1 RES1    0.0000
     42 H15        1.1326   -0.0061    6.5084 H         1 RES1    0.0000
     43 C20       -0.8035   -2.1904    5.0973 C.2       1 RES1    0.0000
     44 C21       -1.1333   -3.2673    4.1426 C.ar      1 RES1    0.0000
     45 C22       -0.4495   -4.3949    3.7470 C.ar      1 RES1    0.0000
     46 H16        0.4269   -4.5601    4.0430 H         1 RES1    0.0000
     47 C23       -1.1039   -5.2864    2.8900 C.ar      1 RES1    0.0000
     48 H17       -0.6382   -6.0450    2.5863 H         1 RES1    0.0000
     49 C24       -2.3917   -5.0984    2.4774 C.ar      1 RES1    0.0000
     50 H18       -2.7907   -5.7310    1.9079 H         1 RES1    0.0000
     51 C25       -3.1373   -3.9672    2.8908 C.ar      1 RES1    0.0000
     52 C26       -4.4966   -3.6664    2.6185 C.ar      1 RES1    0.0000
     53 H19       -5.0000   -4.2297    2.0594 H         1 RES1    0.0000
     54 C27       -5.0711   -2.5603    3.1667 C.ar      1 RES1    0.0000
     55 H20       -5.9769   -2.3876    2.9859 H         1 RES1    0.0000
     56 C28       -4.3638   -1.6597    3.9966 C.ar      1 RES1    0.0000
     57 H21       -4.7982   -0.9161    4.3749 H         1 RES1    0.0000
     58 C29       -3.0387   -1.8886    4.2402 C.ar      1 RES1    0.0000
     59 C30       -2.4506   -3.0532    3.7052 C.ar      1 RES1    0.0000
@<TRIPOS>BOND
     1    1    9 1
     2    2    9 2
     3    3    8 2
     4    4    8 2
     5    5   43 2
     6    6   10 1
     7    7   25 1
     8    8   34 1
     9    9   10 1
    10   10   23 1
    11   11    1 1
    12   12   11 1
    13   13   12 ar
    14   14   13 1
    15   15   13 ar
    16   16   15 1
    17   17   15 ar
    18   18   17 1
    19   19   17 ar
    20   20   19 1
    21   21   12 ar
    22   22   21 1
    23   23   24 1
    24   25   23 1
    25   26   25 1
    26   27   25 1
    27   28    7 1
    28   29   28 1
    29   30   28 1
    30   31   28 1
    31   32    7 1
    32   33   23 1
    33   34   33 ar
    34   35   34 ar
    35   36   35 1
    36   37   35 ar
    37   38   37 1
    38   39   37 ar
    39   40   39 1
    40   41   33 ar
    41   42   41 1
    42   43   32 1
    43   44   43 1
    44   45   44 ar
    45   46   45 1
    46   47   45 ar
    47   48   47 1
    48   49   47 ar
    49   50   49 1
    50   51   49 ar
    51   52   51 ar
    52   53   52 1
    53   54   52 ar
    54   55   54 1
    55   56   54 ar
    56   57   56 1
    57   58   32 1
    58   59   44 ar
    59    6   11 2
    60   10   32 1
    61   19   21 ar
    62   39   41 ar
    63   51   59 ar
    64   56   58 ar
    65   58   59 ar
@<TRIPOS>SUBSTRUCTURE
     1 RES1 1

@<TRIPOS>CRYSIN
   7.8331   10.4430   16.6900 101.9530  94.0640 111.5380   2 1

