# MOL2 file generated by ConQuest
# Please check atom types

@<TRIPOS>MOLECULE
VOHYUN
    34    35     1
SMALL
NO_CHARGES
****
Generated from CSD

@<TRIPOS>ATOM
      1 N1         1.9615   -4.6071   19.7532 N.pl3     1 RES1    0.0000
      2 O1         1.6024   -4.3036   20.8734 O.2       1 RES1    0.0000
      3 O2         2.3006   -5.7328   19.4429 O.2       1 RES1    0.0000
      4 O3         1.6310    0.6848   16.2418 O.3       1 RES1    0.0000
      5 O4         1.0137    2.8958   17.3493 O.3       1 RES1    0.0000
      6 O5         1.4870    6.4371   13.5637 O.2       1 RES1    0.0000
      7 C1         1.3310    2.9849   16.0214 C.ar      1 RES1    0.0000
      8 C2         1.3467    4.1352   15.2799 C.ar      1 RES1    0.0000
      9 H1         1.1352    4.9478   15.6795 H         1 RES1    0.0000
     10 C3         1.6798    4.0922   13.9187 C.ar      1 RES1    0.0000
     11 C4         2.0040    2.8973   13.3402 C.ar      1 RES1    0.0000
     12 H2         2.2346    2.8735   12.4387 H         1 RES1    0.0000
     13 C5         1.9951    1.7223   14.0701 C.ar      1 RES1    0.0000
     14 H3         2.2126    0.9144   13.6643 H         1 RES1    0.0000
     15 C6         1.6596    1.7623   15.4111 C.ar      1 RES1    0.0000
     16 C7         1.6904    5.3348   13.1367 C.2       1 RES1    0.0000
     17 H4         1.8704    5.2597   12.2274 H         1 RES1    0.0000
     18 C8         0.7091    4.1110   18.0263 C.3       1 RES1    0.0000
     19 H5         1.4719    4.6935   17.9978 H         1 RES1    0.0000
     20 H6         0.4865    3.9206   18.9399 H         1 RES1    0.0000
     21 H7        -0.0371    4.5382   17.5981 H         1 RES1    0.0000
     22 C9         1.9305   -0.5875   15.6929 C.3       1 RES1    0.0000
     23 H8         2.7940   -0.5599   15.2519 H         1 RES1    0.0000
     24 H9         1.2602   -0.8267   15.0340 H         1 RES1    0.0000
     25 C10        1.9530   -1.6085   16.7897 C.ar      1 RES1    0.0000
     26 C11        2.2275   -2.9280   16.4546 C.ar      1 RES1    0.0000
     27 H10        2.3995   -3.1515   15.5681 H         1 RES1    0.0000
     28 C12        2.2477   -3.9079   17.4198 C.ar      1 RES1    0.0000
     29 H11        2.4421   -4.7899   17.1966 H         1 RES1    0.0000
     30 C13        1.9762   -3.5588   18.7194 C.ar      1 RES1    0.0000
     31 C14        1.7087   -2.2722   19.0834 C.ar      1 RES1    0.0000
     32 H12        1.5351   -2.0593   19.9721 H         1 RES1    0.0000
     33 C15        1.6984   -1.2929   18.1125 C.ar      1 RES1    0.0000
     34 H13        1.5186   -0.4121   18.3501 H         1 RES1    0.0000
@<TRIPOS>BOND
     1    1    2 2
     2    3    1 2
     3    4   15 1
     4    5    7 1
     5    6   16 2
     6    7    8 ar
     7    8    9 1
     8   10    8 ar
     9   11   10 ar
    10   12   11 1
    11   13   11 ar
    12   14   13 1
    13   15    7 ar
    14   16   10 1
    15   17   16 1
    16   18    5 1
    17   19   18 1
    18   20   18 1
    19   21   18 1
    20   22    4 1
    21   23   22 1
    22   24   22 1
    23   25   22 1
    24   26   25 ar
    25   27   26 1
    26   28   26 ar
    27   29   28 1
    28   30    1 1
    29   31   30 ar
    30   32   31 1
    31   33   25 ar
    32   34   33 1
    33   13   15 ar
    34   28   30 ar
    35   31   33 ar
@<TRIPOS>SUBSTRUCTURE
     1 RES1 1

@<TRIPOS>CRYSIN
  13.7430   12.5260   16.3840  90.0000  90.0000  90.0000  61 1

