# MOL2 file generated by ConQuest
# Please check atom types

@<TRIPOS>MOLECULE
VOHZEY
    43    43     1
SMALL
NO_CHARGES
****
Generated from CSD

@<TRIPOS>ATOM
      1 N1         8.8800   12.2581    3.3523 N.am      1 RES1    0.0000
      2 N2         6.7047   13.3420    0.6725 N.2       1 RES1    0.0000
      3 N3         9.5703   11.8618   -0.0955 N.am      1 RES1    0.0000
      4 H1        10.1107   11.2719   -0.4129 H         1 RES1    0.0000
      5 H2         8.7374   11.8377   -0.3055 H         1 RES1    0.0000
      6 O1        10.5334   10.9733    4.0655 O.3       1 RES1    0.0000
      7 O2         8.6566   10.0049    3.2439 O.2       1 RES1    0.0000
      8 O3         5.5570   12.6815    1.1897 O.3       1 RES1    0.0000
      9 O4        11.2051   12.8775    1.0454 O.2       1 RES1    0.0000
     10 C1         7.5675   12.4755    2.7902 C.3       1 RES1    0.0000
     11 H3         7.0264   12.9852    3.4146 H         1 RES1    0.0000
     12 H4         7.1313   11.6209    2.6430 H         1 RES1    0.0000
     13 C2         7.6681   13.2172    1.4938 C.2       1 RES1    0.0000
     14 C3         9.0059   13.8591    1.1881 C.3       1 RES1    0.0000
     15 C4         9.4868   14.4787    2.5054 C.3       1 RES1    0.0000
     16 H5        10.3366   14.9220    2.3533 H         1 RES1    0.0000
     17 H6         8.8492   15.1524    2.7879 H         1 RES1    0.0000
     18 C5         9.6556   13.4562    3.6260 C.3       1 RES1    0.0000
     19 H7        10.5921   13.2224    3.7116 H         1 RES1    0.0000
     20 H8         9.3647   13.8452    4.4650 H         1 RES1    0.0000
     21 C6         9.3075   10.9874    3.5286 C.2       1 RES1    0.0000
     22 C7        11.3025    9.7350    4.2065 C.3       1 RES1    0.0000
     23 C8        11.4451    9.0652    2.8616 C.3       1 RES1    0.0000
     24 H9        10.5921    8.7237    2.5815 H         1 RES1    0.0000
     25 H10       12.0726    8.3427    2.9292 H         1 RES1    0.0000
     26 H11       11.7601    9.7047    2.2180 H         1 RES1    0.0000
     27 C9        12.6222   10.2542    4.7222 C.3       1 RES1    0.0000
     28 H12       13.0103   10.8453    4.0714 H         1 RES1    0.0000
     29 H13       13.2179    9.5176    4.8792 H         1 RES1    0.0000
     30 H14       12.4810   10.7312    5.5421 H         1 RES1    0.0000
     31 C10       10.6487    8.8526    5.2414 C.3       1 RES1    0.0000
     32 H15       10.5373    9.3442    6.0576 H         1 RES1    0.0000
     33 H16       11.2012    8.0849    5.4032 H         1 RES1    0.0000
     34 H17        9.7891    8.5663    4.9214 H         1 RES1    0.0000
     35 C11        4.5113   12.6817    0.2182 C.3       1 RES1    0.0000
     36 H18        4.1474   13.5669    0.1389 H         1 RES1    0.0000
     37 H19        3.8189   12.0749    0.4926 H         1 RES1    0.0000
     38 H20        4.8637   12.4034   -0.6303 H         1 RES1    0.0000
     39 C12       10.0215   12.8036    0.7162 C.2       1 RES1    0.0000
     40 C13        8.9117   14.9234    0.0916 C.3       1 RES1    0.0000
     41 H21        8.5800   14.5228   -0.7160 H         1 RES1    0.0000
     42 H22        9.7822   15.2961   -0.0688 H         1 RES1    0.0000
     43 H23        8.3131   15.6201    0.3719 H         1 RES1    0.0000
@<TRIPOS>BOND
     1    1   10 1
     2    2    8 1
     3    3    4 1
     4    5    3 1
     5    6   21 1
     6    7   21 2
     7    8   35 1
     8    9   39 2
     9   10   11 1
    10   12   10 1
    11   13    2 2
    12   14   13 1
    13   15   14 1
    14   16   15 1
    15   17   15 1
    16   18    1 1
    17   19   18 1
    18   20   18 1
    19   21    1 1
    20   22    6 1
    21   23   22 1
    22   24   23 1
    23   25   23 1
    24   26   23 1
    25   27   22 1
    26   28   27 1
    27   29   27 1
    28   30   27 1
    29   31   22 1
    30   32   31 1
    31   33   31 1
    32   34   31 1
    33   35   36 1
    34   37   35 1
    35   38   35 1
    36   39    3 1
    37   40   14 1
    38   41   40 1
    39   42   40 1
    40   43   40 1
    41   10   13 1
    42   14   39 1
    43   15   18 1
@<TRIPOS>SUBSTRUCTURE
     1 RES1 1

@<TRIPOS>CRYSIN
  22.8130   22.8130   12.0742  90.0000  90.0000  90.0000  88 1

