# MOL2 file generated by ConQuest
# Please check atom types

@<TRIPOS>MOLECULE
VOKPAN
    53    55     1
SMALL
NO_CHARGES
****
Generated from CSD

@<TRIPOS>ATOM
      1 O1         6.1431    2.8104    8.7369 O.3       1 RES1    0.0000
      2 O2         7.6804    3.1747    7.1265 O.2       1 RES1    0.0000
      3 O3        11.0864    1.2684   13.1937 O.2       1 RES1    0.0000
      4 O4        12.5198    2.3847   12.0170 O.2       1 RES1    0.0000
      5 N1        11.3960    1.9351   12.2088 N.pl3     1 RES1    0.0000
      6 C1         9.7137    3.1271    9.1229 C.ar      1 RES1    0.0000
      7 C2        10.6989    2.8825   10.0531 C.ar      1 RES1    0.0000
      8 C3        10.3515    2.2165   11.2112 C.ar      1 RES1    0.0000
      9 C4         9.0607    1.7995   11.4693 C.ar      1 RES1    0.0000
     10 C5         8.0783    2.0578   10.5368 C.ar      1 RES1    0.0000
     11 C6         8.4023    2.7158    9.3485 C.ar      1 RES1    0.0000
     12 C7         7.3902    2.9352    8.2764 C.2       1 RES1    0.0000
     13 C8         5.0581    2.9280    7.7660 C.3       1 RES1    0.0000
     14 C9         4.7138    4.3855    7.5532 C.3       1 RES1    0.0000
     15 C10        3.6106    4.4959    6.5172 C.3       1 RES1    0.0000
     16 C11        2.3485    3.7159    6.9090 C.3       1 RES1    0.0000
     17 C12        2.7555    2.2562    7.2369 C.3       1 RES1    0.0000
     18 C13        3.9026    2.0621    8.2625 C.3       1 RES1    0.0000
     19 C14        3.5230    2.3919    9.7159 C.3       1 RES1    0.0000
     20 C15        4.3697    0.5938    8.2195 C.3       1 RES1    0.0000
     21 C16        1.6321    4.4749    8.0416 C.3       1 RES1    0.0000
     22 C17        1.4973    1.4192    7.4730 C.3       1 RES1    0.0000
     23 C18        0.6606    1.3731    6.2114 C.3       1 RES1    0.0000
     24 C19        0.6171    2.6242    5.4358 C.2       1 RES1    0.0000
     25 C20        1.4006    3.6632    5.7335 C.2       1 RES1    0.0000
     26 C21       -0.3254    2.6567    4.2568 C.3       1 RES1    0.0000
     27 H1         9.9311    3.5817    8.3171 H         1 RES1    0.0000
     28 H2        11.5919    3.1639    9.9019 H         1 RES1    0.0000
     29 H3         8.8526    1.3413   12.2751 H         1 RES1    0.0000
     30 H4         7.1821    1.7887   10.7031 H         1 RES1    0.0000
     31 H5         5.3776    2.5528    6.8951 H         1 RES1    0.0000
     32 H6         5.5141    4.8783    7.2439 H         1 RES1    0.0000
     33 H7         4.4120    4.7874    8.4067 H         1 RES1    0.0000
     34 H8         3.9476    4.1524    5.6509 H         1 RES1    0.0000
     35 H9         3.3786    5.4497    6.3939 H         1 RES1    0.0000
     36 H10        3.1279    1.9048    6.3777 H         1 RES1    0.0000
     37 H11        4.2166    2.0571   10.3194 H         1 RES1    0.0000
     38 H12        2.6665    1.9654    9.9333 H         1 RES1    0.0000
     39 H13        3.4380    3.3623    9.8194 H         1 RES1    0.0000
     40 H14        5.1708    0.4899    8.7752 H         1 RES1    0.0000
     41 H15        4.5783    0.3442    7.2951 H         1 RES1    0.0000
     42 H16        3.6568    0.0144    8.5625 H         1 RES1    0.0000
     43 H17        1.2274    5.2917    7.6823 H         1 RES1    0.0000
     44 H18        2.2800    4.7109    8.7380 H         1 RES1    0.0000
     45 H19        0.9332    3.9056    8.4264 H         1 RES1    0.0000
     46 H20        1.7541    0.5000    7.7369 H         1 RES1    0.0000
     47 H21        0.9666    1.8154    8.2102 H         1 RES1    0.0000
     48 H22        1.0145    0.6551    5.6277 H         1 RES1    0.0000
     49 H23       -0.2650    1.1256    6.4591 H         1 RES1    0.0000
     50 H24        1.3579    4.4237    5.1661 H         1 RES1    0.0000
     51 H25       -0.2719    3.5326    3.8208 H         1 RES1    0.0000
     52 H26       -1.2415    2.5008    4.5673 H         1 RES1    0.0000
     53 H27       -0.0729    1.9575    3.6185 H         1 RES1    0.0000
@<TRIPOS>BOND
     1    1   12 1
     2    2   12 2
     3    3    5 2
     4    4    5 2
     5    5    8 1
     6    6    7 ar
     7    7    8 ar
     8    8    9 ar
     9    9   10 ar
    10   10   11 ar
    11   11    6 ar
    12   12   11 1
    13   13    1 1
    14   14   13 1
    15   15   14 1
    16   16   15 1
    17   17   16 1
    18   18   13 1
    19   19   18 1
    20   20   18 1
    21   21   16 1
    22   22   17 1
    23   23   22 1
    24   24   23 1
    25   25   16 1
    26   26   24 1
    27   27    6 1
    28   28    7 1
    29   29    9 1
    30   30   10 1
    31   31   13 1
    32   32   14 1
    33   33   14 1
    34   34   15 1
    35   35   15 1
    36   36   17 1
    37   37   19 1
    38   38   19 1
    39   39   19 1
    40   40   20 1
    41   41   20 1
    42   42   20 1
    43   43   21 1
    44   44   21 1
    45   45   21 1
    46   46   22 1
    47   47   22 1
    48   48   23 1
    49   49   23 1
    50   50   25 1
    51   51   26 1
    52   52   26 1
    53   53   26 1
    54   17   18 1
    55   24   25 2
@<TRIPOS>SUBSTRUCTURE
     1 RES1 1

@<TRIPOS>CRYSIN
  23.1170    7.2153   11.9010  90.0000 102.3080  90.0000  14 1

