# MOL2 file generated by ConQuest
# Please check atom types

@<TRIPOS>MOLECULE
VOKRET
    47    52     1
SMALL
NO_CHARGES
****
Generated from CSD

@<TRIPOS>ATOM
      1 O1        -2.8803    3.0139   13.7082 O.3       1 RES1    0.0000
      2 O2        -4.0243    4.8940   14.0242 O.2       1 RES1    0.0000
      3 O3        -6.3859    5.3768    8.1811 O.2       1 RES1    0.0000
      4 O4        -7.1198    5.7182   10.1965 O.2       1 RES1    0.0000
      5 O5        -1.0982    2.4514    9.1259 O.2       1 RES1    0.0000
      6 O6        -2.5639    2.4709    7.5974 O.2       1 RES1    0.0000
      7 N1        -6.3039    5.2866    9.4193 N.pl3     1 RES1    0.0000
      8 N2        -2.2114    2.6920    8.7357 N.pl3     1 RES1    0.0000
      9 C1        -2.8345    2.7662   15.1109 C.ar      1 RES1    0.0000
     10 C2        -3.9167    2.1118   15.6817 C.ar      1 RES1    0.0000
     11 C3        -3.7910    1.8412   17.0587 C.ar      1 RES1    0.0000
     12 C4        -2.6918    2.2197   17.7681 C.ar      1 RES1    0.0000
     13 C5        -1.6521    2.8511   17.1554 C.ar      1 RES1    0.0000
     14 C6        -1.7033    3.1536   15.7946 C.ar      1 RES1    0.0000
     15 C7        -0.5901    3.9813   15.1819 C.3       1 RES1    0.0000
     16 C8        -3.5706    4.0715   13.2890 C.2       1 RES1    0.0000
     17 C9        -3.7452    4.0609   11.8089 C.ar      1 RES1    0.0000
     18 C10       -4.8520    4.7189   11.3058 C.ar      1 RES1    0.0000
     19 C11       -5.0810    4.6517    9.9450 C.ar      1 RES1    0.0000
     20 C12       -4.2523    3.9937    9.0808 C.ar      1 RES1    0.0000
     21 C13       -3.1541    3.3871    9.6161 C.ar      1 RES1    0.0000
     22 C14       -2.8824    3.3888   10.9737 C.ar      1 RES1    0.0000
     23 O7         0.2503    1.2858   14.5112 O.3       1 RES1    0.0000
     24 C15        0.4101    2.2940   13.5502 C.ar      1 RES1    0.0000
     25 C16       -0.0107    3.5869   13.8404 C.ar      1 RES1    0.0000
     26 C17        0.1129    4.5438   12.8569 C.ar      1 RES1    0.0000
     27 C18        0.7329    4.2343   11.6476 C.ar      1 RES1    0.0000
     28 C19        1.0886    2.9467   11.3703 C.ar      1 RES1    0.0000
     29 C20        0.9331    1.9456   12.3184 C.ar      1 RES1    0.0000
     30 C21        1.2569    0.5041   11.9572 C.3       1 RES1    0.0000
     31 C22        1.3517    1.2009   15.4431 C.3       1 RES1    0.0000
     32 O8        -1.1813   -0.5571   13.0987 O.3       1 RES1    0.0000
     33 C23       -1.0055   -0.5978   11.7315 C.ar      1 RES1    0.0000
     34 C24        0.1672   -0.1362   11.1413 C.ar      1 RES1    0.0000
     35 C25        0.2748   -0.2547    9.7547 C.ar      1 RES1    0.0000
     36 C26       -0.7435   -0.7782    9.0066 C.ar      1 RES1    0.0000
     37 C27       -1.8854   -1.2151    9.6032 C.ar      1 RES1    0.0000
     38 C28       -2.0484   -1.1284   10.9898 C.ar      1 RES1    0.0000
     39 C29       -3.3106   -1.5759   11.6541 C.3       1 RES1    0.0000
     40 O9        -3.6060   -0.4478   14.3341 O.3       1 RES1    0.0000
     41 C30       -4.3077    0.1044   13.2858 C.ar      1 RES1    0.0000
     42 C31       -4.2235   -0.4210   12.0056 C.ar      1 RES1    0.0000
     43 C32       -5.0118    0.1769   11.0156 C.ar      1 RES1    0.0000
     44 C33       -5.8501    1.2186   11.2897 C.ar      1 RES1    0.0000
     45 C34       -5.9012    1.6980   12.5602 C.ar      1 RES1    0.0000
     46 C35       -5.1321    1.1780   13.5889 C.ar      1 RES1    0.0000
     47 C36       -5.1918    1.7634   14.9852 C.3       1 RES1    0.0000
@<TRIPOS>BOND
     1    1    9 1
     2    2   16 2
     3    3    7 2
     4    4    7 2
     5    5    8 2
     6    6    8 2
     7    7   19 1
     8    8   21 1
     9    9   10 ar
    10   10   11 ar
    11   11   12 ar
    12   12   13 ar
    13   13   14 ar
    14   14    9 ar
    15   15   14 1
    16   16    1 1
    17   17   16 1
    18   18   17 ar
    19   19   18 ar
    20   20   19 ar
    21   21   20 ar
    22   22   17 ar
    23   23   24 1
    24   24   25 ar
    25   25   15 1
    26   26   25 ar
    27   27   26 ar
    28   28   27 ar
    29   29   24 ar
    30   30   29 1
    31   31   23 1
    32   32   33 1
    33   33   34 ar
    34   34   30 1
    35   35   34 ar
    36   36   35 ar
    37   37   36 ar
    38   38   33 ar
    39   39   38 1
    40   40   41 1
    41   41   42 ar
    42   42   39 1
    43   43   42 ar
    44   44   43 ar
    45   45   44 ar
    46   46   41 ar
    47   47   10 1
    48   21   22 ar
    49   28   29 ar
    50   37   38 ar
    51   45   46 ar
    52   46   47 1
@<TRIPOS>SUBSTRUCTURE
     1 RES1 1

@<TRIPOS>CRYSIN
  10.6520   17.6870   32.2470  90.0000  90.0000  90.0000  61 1

