# MOL2 file generated by ConQuest
# Please check atom types

@<TRIPOS>MOLECULE
VOLJUC
    63    64     1
SMALL
NO_CHARGES
****
Generated from CSD

@<TRIPOS>ATOM
      1 O1        -7.4116   -1.9017   -1.3582 O.2       1 RES1    0.0000
      2 O2        -8.5843   -3.5068   -0.6178 O.2       1 RES1    0.0000
      3 O3       -13.3995   -3.5712   -1.1546 O.2       1 RES1    0.0000
      4 O4       -18.2546   -3.6232   -1.6122 O.3       1 RES1    0.0000
      5 O5        -9.5042    1.5583   -3.9213 O.2       1 RES1    0.0000
      6 O6       -11.6194    1.6040   -4.1526 O.2       1 RES1    0.0000
      7 O7       -14.3104   -1.9616   -2.3832 O.3       1 RES1    0.0000
      8 O8       -20.6121   -5.5333   -2.9803 O.2       1 RES1    0.0000
      9 O9       -19.7773   -4.4196   -4.5718 O.3       1 RES1    0.0000
     10 N1        -8.4752   -2.4236   -1.1555 N.pl3     1 RES1    0.0000
     11 N2       -10.6203    1.1505   -3.7375 N.pl3     1 RES1    0.0000
     12 C1        -9.6790   -1.7904   -1.6626 C.ar      1 RES1    0.0000
     13 C2        -9.5514   -0.6038   -2.3783 C.ar      1 RES1    0.0000
     14 H1        -8.7332   -0.1807   -2.4979 H         1 RES1    0.0000
     15 C3       -10.7365   -0.0943   -2.9012 C.ar      1 RES1    0.0000
     16 C4       -11.9163   -0.6529   -2.6946 C.ar      1 RES1    0.0000
     17 H2       -12.6822   -0.2604   -3.0505 H         1 RES1    0.0000
     18 C5       -12.0277   -1.8243   -1.9483 C.ar      1 RES1    0.0000
     19 C6       -15.6278   -2.6416   -2.3526 C.3       1 RES1    0.0000
     20 H3       -15.5019   -3.6023   -2.2063 H         1 RES1    0.0000
     21 C7       -10.8753   -2.3530   -1.3967 C.ar      1 RES1    0.0000
     22 H4       -10.9274   -3.0974   -0.8412 H         1 RES1    0.0000
     23 C8       -13.3184   -2.5151   -1.7516 C.2       1 RES1    0.0000
     24 C9       -16.2317   -2.4072   -3.7325 C.3       1 RES1    0.0000
     25 H5       -17.0996   -2.8398   -3.7681 H         1 RES1    0.0000
     26 H6       -16.3727   -1.4549   -3.8482 H         1 RES1    0.0000
     27 C10      -15.4030   -2.9053   -4.8782 C.3       1 RES1    0.0000
     28 H7       -14.5269   -2.4682   -4.8307 H         1 RES1    0.0000
     29 C11      -16.4653   -2.0491   -1.2099 C.3       1 RES1    0.0000
     30 H8       -15.8639   -1.7034   -0.5308 H         1 RES1    0.0000
     31 H9       -16.9776   -1.3030   -1.5549 H         1 RES1    0.0000
     32 C12      -17.4143   -3.0398   -0.5654 C.3       1 RES1    0.0000
     33 H10      -16.9130   -3.7401   -0.0988 H         1 RES1    0.0000
     34 C13      -19.6453   -3.4086   -1.2969 C.3       1 RES1    0.0000
     35 H11      -19.9840   -4.1852   -0.8046 H         1 RES1    0.0000
     36 C14      -20.3504   -3.3210   -2.6205 C.3       1 RES1    0.0000
     37 H12      -19.9359   -2.5828   -3.1137 H         1 RES1    0.0000
     38 C15      -15.1829   -4.3580   -4.9078 C.3       1 RES1    0.0000
     39 H13      -15.9945   -4.8093   -4.6617 H         1 RES1    0.0000
     40 H14      -14.4891   -4.5896   -4.2890 H         1 RES1    0.0000
     41 H15      -14.9257   -4.6246   -5.7935 H         1 RES1    0.0000
     42 C16      -19.6093   -2.2451   -0.3895 C.3       1 RES1    0.0000
     43 H16      -19.5998   -1.4193   -0.8995 H         1 RES1    0.0000
     44 H17      -20.3853   -2.2428    0.1898 H         1 RES1    0.0000
     45 C17      -18.4021   -2.3665    0.3865 C.3       1 RES1    0.0000
     46 H18      -18.5514   -2.9127    1.1743 H         1 RES1    0.0000
     47 H19      -18.0780   -1.4950    0.6643 H         1 RES1    0.0000
     48 C18      -21.8215   -2.9262   -2.3872 C.3       1 RES1    0.0000
     49 H20      -22.2438   -3.5848   -1.8317 H         1 RES1    0.0000
     50 H21      -22.2758   -2.8771   -3.2304 H         1 RES1    0.0000
     51 H22      -21.8581   -2.0706   -1.9532 H         1 RES1    0.0000
     52 C19      -16.0933   -2.4654   -6.2275 C.3       1 RES1    0.0000
     53 H23      -15.4745   -2.5766   -6.9540 H         1 RES1    0.0000
     54 H24      -16.3553   -1.5430   -6.1672 H         1 RES1    0.0000
     55 H25      -16.8701   -3.0081   -6.3817 H         1 RES1    0.0000
     56 C20      -20.2043   -4.4924   -3.4310 C.2       1 RES1    0.0000
     57 C21      -19.5927   -5.6779   -5.3517 C.3       1 RES1    0.0000
     58 H26      -18.9339   -6.2377   -4.9118 H         1 RES1    0.0000
     59 H27      -20.4294   -6.1671   -5.3853 H         1 RES1    0.0000
     60 C22      -19.1607   -5.3820   -6.6693 C.3       1 RES1    0.0000
     61 H28      -18.2655   -5.0448   -6.6446 H         1 RES1    0.0000
     62 H29      -19.7421   -4.7212   -7.0548 H         1 RES1    0.0000
     63 H30      -19.1900   -6.1806   -7.2021 H         1 RES1    0.0000
@<TRIPOS>BOND
     1    1   10 2
     2    2   10 2
     3    3   23 2
     4    4   32 1
     5    5   11 2
     6    6   11 2
     7    7   19 1
     8    8   56 2
     9    9   56 1
    10   10   12 1
    11   11   15 1
    12   12   13 ar
    13   13   14 1
    14   15   13 ar
    15   16   15 ar
    16   17   16 1
    17   18   16 ar
    18   19   20 1
    19   21   12 ar
    20   22   21 1
    21   23    7 1
    22   24   19 1
    23   25   24 1
    24   26   24 1
    25   27   24 1
    26   28   27 1
    27   29   19 1
    28   30   29 1
    29   31   29 1
    30   32   29 1
    31   33   32 1
    32   34    4 1
    33   35   34 1
    34   36   34 1
    35   37   36 1
    36   38   27 1
    37   39   38 1
    38   40   38 1
    39   41   38 1
    40   42   34 1
    41   43   42 1
    42   44   42 1
    43   45   32 1
    44   46   45 1
    45   47   45 1
    46   48   36 1
    47   49   48 1
    48   50   48 1
    49   51   48 1
    50   52   27 1
    51   53   52 1
    52   54   52 1
    53   55   52 1
    54   56   36 1
    55   57    9 1
    56   58   57 1
    57   59   57 1
    58   60   57 1
    59   61   60 1
    60   62   60 1
    61   63   60 1
    62   18   21 ar
    63   18   23 1
    64   42   45 1
@<TRIPOS>SUBSTRUCTURE
     1 RES1 1

@<TRIPOS>CRYSIN
  44.6040    5.6480    9.8991  90.0000  93.0730  90.0000   5 1

