# MOL2 file generated by ConQuest
# Please check atom types

@<TRIPOS>MOLECULE
VOLQEU
    48    51     1
SMALL
NO_CHARGES
****
Generated from CSD

@<TRIPOS>ATOM
      1 O1         3.0238    3.9848    3.2940 O.2       1 RES1    0.0000
      2 N1         2.9636    5.1143    3.8877 N.3       1 RES1    0.0000
      3 N2        -2.6303    7.4649    7.1217 N.ar      1 RES1    0.0000
      4 N3         8.1521    9.3879    3.8609 N.ar      1 RES1    0.0000
      5 C1         1.7394    5.5402    4.6196 C.3       1 RES1    0.0000
      6 C2         2.2323    6.8571    5.1907 C.ar      1 RES1    0.0000
      7 C3         1.4826    7.8276    5.8680 C.ar      1 RES1    0.0000
      8 C4         2.0956    9.0463    6.1627 C.ar      1 RES1    0.0000
      9 C5         3.3986    9.3011    5.7769 C.ar      1 RES1    0.0000
     10 C6         4.1709    8.3233    5.1468 C.ar      1 RES1    0.0000
     11 C7         3.5760    7.0965    4.8746 C.ar      1 RES1    0.0000
     12 C8         4.1916    5.8883    4.1824 C.3       1 RES1    0.0000
     13 C9         1.3683    4.4668    5.6419 C.3       1 RES1    0.0000
     14 C10        0.6046    5.7163    3.5930 C.3       1 RES1    0.0000
     15 C11        0.0526    7.6539    6.2784 C.ar      1 RES1    0.0000
     16 C12       -0.3042    6.8612    7.3693 C.ar      1 RES1    0.0000
     17 C13       -1.6486    6.8028    7.7411 C.ar      1 RES1    0.0000
     18 C14       -2.2602    8.2349    6.0919 C.ar      1 RES1    0.0000
     19 C15       -0.9508    8.3655    5.6365 C.ar      1 RES1    0.0000
     20 C16        5.5690    8.6804    4.7267 C.ar      1 RES1    0.0000
     21 C17        6.6932    8.1878    5.3675 C.ar      1 RES1    0.0000
     22 C18        7.9498    8.5651    4.8928 C.ar      1 RES1    0.0000
     23 C19        7.0589    9.8804    3.2747 C.ar      1 RES1    0.0000
     24 C20        5.7564    9.5705    3.6648 C.ar      1 RES1    0.0000
     25 C21        4.9185    6.1748    2.8793 C.3       1 RES1    0.0000
     26 C22        5.0761    5.0599    5.1275 C.3       1 RES1    0.0000
     27 H1         1.6097    9.7116    6.6352 H         1 RES1    0.0000
     28 H2         3.7750   10.1571    5.9430 H         1 RES1    0.0000
     29 H3         1.2696    3.6042    5.1886 H         1 RES1    0.0000
     30 H4         0.5239    4.7077    6.0759 H         1 RES1    0.0000
     31 H5         2.0745    4.4018    6.3180 H         1 RES1    0.0000
     32 H6         0.3105    4.8368    3.2758 H         1 RES1    0.0000
     33 H7         0.9295    6.2453    2.8343 H         1 RES1    0.0000
     34 H8        -0.1479    6.1788    4.0152 H         1 RES1    0.0000
     35 H9         0.3549    6.3711    7.8483 H         1 RES1    0.0000
     36 H10       -1.8801    6.2567    8.4837 H         1 RES1    0.0000
     37 H11       -2.9364    8.7266    5.6408 H         1 RES1    0.0000
     38 H12       -0.7478    8.9311    4.9003 H         1 RES1    0.0000
     39 H13        6.6100    7.6061    6.1134 H         1 RES1    0.0000
     40 H14        8.7141    8.2130    5.3343 H         1 RES1    0.0000
     41 H15        7.1762   10.4792    2.5461 H         1 RES1    0.0000
     42 H16        5.0109    9.9567    3.2190 H         1 RES1    0.0000
     43 H17        5.7397    6.6754    3.0669 H         1 RES1    0.0000
     44 H18        4.3391    6.7038    2.2921 H         1 RES1    0.0000
     45 H19        5.1460    5.3285    2.4400 H         1 RES1    0.0000
     46 H20        5.9298    5.5216    5.2668 H         1 RES1    0.0000
     47 H21        5.2432    4.1787    4.7310 H         1 RES1    0.0000
     48 H22        4.6200    4.9495    5.9880 H         1 RES1    0.0000
@<TRIPOS>BOND
     1    1    2 1
     2    2    5 1
     3    3   17 ar
     4    4   22 ar
     5    5    6 1
     6    6    7 ar
     7    7    8 ar
     8    8    9 ar
     9    9   10 ar
    10   10   11 ar
    11   11    6 ar
    12   12    2 1
    13   13    5 1
    14   14    5 1
    15   15    7 1
    16   16   15 ar
    17   17   16 ar
    18   18    3 ar
    19   19   15 ar
    20   20   10 1
    21   21   20 ar
    22   22   21 ar
    23   23    4 ar
    24   24   20 ar
    25   25   12 1
    26   26   12 1
    27   27    8 1
    28   28    9 1
    29   29   13 1
    30   30   13 1
    31   31   13 1
    32   32   14 1
    33   33   14 1
    34   34   14 1
    35   35   16 1
    36   36   17 1
    37   37   18 1
    38   38   19 1
    39   39   21 1
    40   40   22 1
    41   41   23 1
    42   42   24 1
    43   43   25 1
    44   44   25 1
    45   45   25 1
    46   46   26 1
    47   47   26 1
    48   48   26 1
    49   11   12 1
    50   18   19 ar
    51   23   24 ar
@<TRIPOS>SUBSTRUCTURE
     1 RES1 1

@<TRIPOS>CRYSIN
  21.1250    8.1140   10.7158  90.0000  90.0000  90.0000  33 1

