# MOL2 file generated by ConQuest
# Please check atom types

@<TRIPOS>MOLECULE
VOPMUK
    49    43     2
SMALL
NO_CHARGES
****
Generated from CSD

@<TRIPOS>ATOM
      1 C1        -1.7000    1.1580    9.3518 C.ar      1 RES1    0.0000
      2 C2        -2.2700    0.8773   10.5805 C.ar      1 RES1    0.0000
      3 H1        -3.1890    0.6460   10.6496 H         1 RES1    0.0000
      4 C3        -1.4706    0.9429   11.7013 C.ar      1 RES1    0.0000
      5 H2        -1.8503    0.7676   12.5536 H         1 RES1    0.0000
      6 C4        -0.1145    1.2604   11.6091 C.ar      1 RES1    0.0000
      7 C5         0.4070    1.5838   10.3504 C.ar      1 RES1    0.0000
      8 H3         1.3194    1.8349   10.2736 H         1 RES1    0.0000
      9 C6        -0.3858    1.5425    9.2183 C.ar      1 RES1    0.0000
     10 H4        -0.0309    1.7745    8.3680 H         1 RES1    0.0000
     11 C7         0.6816    1.2604   12.8497 C.2       1 RES1    0.0000
     12 H5         0.2130    1.5396   13.6269 H         1 RES1    0.0000
     13 C8         1.9571    0.9282   13.0497 C.2       1 RES1    0.0000
     14 C9         2.4660    1.0711   14.4489 C.2       1 RES1    0.0000
     15 C10        4.4523    0.9466   15.8442 C.3       1 RES1    0.0000
     16 H6         4.1205    1.7826   16.2571 H         1 RES1    0.0000
     17 H7         5.4212    1.0475   15.6739 H         1 RES1    0.0000
     18 C11        4.2226   -0.1591   16.7263 C.3       1 RES1    0.0000
     19 H8         4.6494    0.0192   17.5907 H         1 RES1    0.0000
     20 H9         4.6031   -0.9731   16.3358 H         1 RES1    0.0000
     21 H10        3.2588   -0.2792   16.8564 H         1 RES1    0.0000
     22 C12        2.9421    0.4206   12.0240 C.3       1 RES1    0.0000
     23 H11        2.4532    0.1716   11.1991 H         1 RES1    0.0000
     24 H12        3.3842   -0.3941   12.3736 H         1 RES1    0.0000
     25 C13        4.0047    1.4578   11.6809 C.2       1 RES1    0.0000
     26 C14        5.2769    1.0129   11.0641 C.ar      1 RES1    0.0000
     27 C15        5.3959   -0.1893   10.4101 C.ar      1 RES1    0.0000
     28 H13        4.6550   -0.7823   10.3684 H         1 RES1    0.0000
     29 C16        6.5911   -0.5370    9.8140 C.ar      1 RES1    0.0000
     30 H14        6.6624   -1.3598    9.3449 H         1 RES1    0.0000
     31 C17        7.6808    0.2969    9.8928 C.ar      1 RES1    0.0000
     32 H15        8.4997    0.0471    9.4830 H         1 RES1    0.0000
     33 C18        7.5856    1.4696   10.5499 C.ar      1 RES1    0.0000
     34 H16        8.3473    2.0316   10.6255 H         1 RES1    0.0000
     35 C19        6.3803    1.8615   11.1174 C.ar      1 RES1    0.0000
     36 H17        6.3087    2.7086   11.5413 H         1 RES1    0.0000
     37 N1        -2.5313    1.0438    8.1395 N.pl3     1 RES1    0.0000
     38 O1        -2.0336    1.3164    7.0565 O.2       1 RES1    0.0000
     39 O2        -3.6980    0.6792    8.2781 O.2       1 RES1    0.0000
     40 O3         1.8290    1.5160   15.3676 O.2       1 RES1    0.0000
     41 O4         3.7416    0.6976   14.5737 O.3       1 RES1    0.0000
     42 O5         3.8049    2.6371   11.9030 O.2       1 RES1    0.0000
     43 C20        4.0715    0.7241   16.0241 Du        2 SUP2    0.0000
     44 H18        4.1239    1.6486   16.3744 Du        2 SUP2    0.0000
     45 H19        3.4250    0.2011   16.5608 Du        2 SUP2    0.0000
     46 C21        5.5051    0.0236   15.9663 Du        2 SUP2    0.0000
     47 H20        5.9653    0.1510   16.8227 Du        2 SUP2    0.0000
     48 H21        6.0352    0.4250   15.2465 Du        2 SUP2    0.0000
     49 H22        5.3928   -0.9348   15.7944 Du        2 SUP2    0.0000
@<TRIPOS>BOND
     1    1    2 ar
     2    2    3 1
     3    4    2 ar
     4    5    4 1
     5    6    4 ar
     6    7    6 ar
     7    8    7 1
     8    9    1 ar
     9   10    9 1
    10   11    6 1
    11   12   11 1
    12   13   11 2
    13   14   13 1
    14   15   16 1
    15   17   15 1
    16   18   15 1
    17   19   18 1
    18   20   18 1
    19   21   18 1
    20   22   13 1
    21   23   22 1
    22   24   22 1
    23   25   22 1
    24   26   25 1
    25   27   26 ar
    26   28   27 1
    27   29   27 ar
    28   30   29 1
    29   31   29 ar
    30   32   31 1
    31   33   31 ar
    32   34   33 1
    33   35   26 ar
    34   36   35 1
    35   37    1 1
    36   38   37 2
    37   39   37 2
    38   40   14 2
    39   41   14 1
    40   42   25 2
    41    7    9 ar
    42   15   41 1
    43   33   35 ar
@<TRIPOS>SUBSTRUCTURE
     1 RES1 1
     2 SUP2 43

@<TRIPOS>CRYSIN
  14.4541    7.3663   16.0706  90.0000  91.1220  90.0000  14 1

