# MOL2 file generated by ConQuest
# Please check atom types

@<TRIPOS>MOLECULE
VOPVUR
    36    38     1
SMALL
NO_CHARGES
****
Generated from CSD

@<TRIPOS>ATOM
      1 C1         0.8273   -0.4754    0.5750 C.3       1 RES1    0.0000
      2 C2         0.1897    0.9230    0.5451 C.3       1 RES1    0.0000
      3 C3         2.3094   -0.5891    0.2916 C.ar      1 RES1    0.0000
      4 C4         2.9908   -1.6898    0.7905 C.ar      1 RES1    0.0000
      5 C5         4.3357   -1.8686    0.5256 C.ar      1 RES1    0.0000
      6 C6         5.0312   -0.9309   -0.2219 C.ar      1 RES1    0.0000
      7 C7         4.3641    0.1726   -0.7160 C.ar      1 RES1    0.0000
      8 C8         3.0095    0.3395   -0.4746 C.ar      1 RES1    0.0000
      9 N1        -0.5021    1.3417    1.8045 N.pl3     1 RES1    0.0000
     10 O1        -0.8323    0.5246    2.6330 O.2       1 RES1    0.0000
     11 O2        -0.7452    2.5415    1.8798 O.2       1 RES1    0.0000
     12 H1         0.5702   -0.9043    1.4360 H         1 RES1    0.0000
     13 H2         0.7972    1.6536    0.3078 H         1 RES1    0.0000
     14 H3         2.5023   -2.3462    1.3331 H         1 RES1    0.0000
     15 H4         4.8028   -2.6722    0.8593 H         1 RES1    0.0000
     16 H5         5.9197   -1.0152   -0.3896 H         1 RES1    0.0000
     17 H6         4.8021    0.7589   -1.2359 H         1 RES1    0.0000
     18 H7         2.5523    1.0254   -0.8877 H         1 RES1    0.0000
     19 C1B       -0.8273    0.4754   -0.5750 C.3       1 RES1    0.0000
     20 C2B       -0.1897   -0.9230   -0.5451 C.3       1 RES1    0.0000
     21 N1B        0.5021   -1.3417   -1.8045 N.pl3     1 RES1    0.0000
     22 O1B        0.8323   -0.5246   -2.6330 O.2       1 RES1    0.0000
     23 O2B        0.7452   -2.5415   -1.8798 O.2       1 RES1    0.0000
     24 H2B       -0.7972   -1.6536   -0.3078 H         1 RES1    0.0000
     25 C3B       -2.3094    0.5891   -0.2916 C.ar      1 RES1    0.0000
     26 C4B       -2.9908    1.6898   -0.7905 C.ar      1 RES1    0.0000
     27 C5B       -4.3357    1.8686   -0.5256 C.ar      1 RES1    0.0000
     28 C6B       -5.0312    0.9309    0.2219 C.ar      1 RES1    0.0000
     29 C7B       -4.3641   -0.1726    0.7160 C.ar      1 RES1    0.0000
     30 C8B       -3.0095   -0.3395    0.4746 C.ar      1 RES1    0.0000
     31 H7B       -2.5523   -1.0254    0.8877 H         1 RES1    0.0000
     32 H6B       -4.8021   -0.7589    1.2359 H         1 RES1    0.0000
     33 H5B       -5.9197    1.0152    0.3896 H         1 RES1    0.0000
     34 H4B       -4.8028    2.6722   -0.8593 H         1 RES1    0.0000
     35 H3B       -2.5023    2.3462   -1.3331 H         1 RES1    0.0000
     36 H1B       -0.5702    0.9043   -1.4360 H         1 RES1    0.0000
@<TRIPOS>BOND
     1    1    2 1
     2    2    9 1
     3    3    1 1
     4    4    3 ar
     5    5    4 ar
     6    6    5 ar
     7    7    6 ar
     8    8    3 ar
     9    9   10 2
    10   11    9 2
    11   12    1 1
    12   13    2 1
    13   14    4 1
    14   15    5 1
    15   16    6 1
    16   17    7 1
    17   18    8 1
    18   19    2 1
    19   20    1 1
    20   21   20 1
    21   22   21 2
    22   23   21 2
    23   24   20 1
    24   25   19 1
    25   26   25 ar
    26   27   26 ar
    27   28   27 ar
    28   29   28 ar
    29   30   25 ar
    30   31   30 1
    31   32   29 1
    32   33   28 1
    33   34   27 1
    34   35   26 1
    35   36   19 1
    36    7    8 ar
    37   19   20 1
    38   29   30 ar
@<TRIPOS>SUBSTRUCTURE
     1 RES1 1

@<TRIPOS>CRYSIN
  15.0810    5.6590    8.2070  90.0000  99.3000  90.0000 231 1

