# MOL2 file generated by ConQuest
# Please check atom types

@<TRIPOS>MOLECULE
VOQSIE
    40    42     1
SMALL
NO_CHARGES
****
Generated from CSD

@<TRIPOS>ATOM
      1 N1         0.4054    8.6064    6.9381 N.3       1 RES1    0.0000
      2 N2        -0.3514    7.5075    7.0588 N.2       1 RES1    0.0000
      3 N3        -0.0093    6.9041    8.1625 N.2       1 RES1    0.0000
      4 C1         0.9850    7.6505    8.7684 C.ar      1 RES1    0.0000
      5 C2         1.6763    7.4479    9.9776 C.ar      1 RES1    0.0000
      6 H1         1.4928    6.6988   10.5336 H         1 RES1    0.0000
      7 C3         2.6204    8.3721   10.3179 C.ar      1 RES1    0.0000
      8 H2         3.1073    8.2608   11.1257 H         1 RES1    0.0000
      9 C4         2.8909    9.4881    9.4999 C.ar      1 RES1    0.0000
     10 H3         3.5573   10.1076    9.7748 H         1 RES1    0.0000
     11 C5         2.2254    9.7132    8.3204 C.ar      1 RES1    0.0000
     12 H4         2.4088   10.4665    7.7721 H         1 RES1    0.0000
     13 C6         1.2626    8.7615    7.9796 C.ar      1 RES1    0.0000
     14 O1         0.1726    9.4976    5.9183 O.3       1 RES1    0.0000
     15 C7         0.9783    9.1671    4.7323 C.3       1 RES1    0.0000
     16 H5         0.6960    8.2977    4.3511 H         1 RES1    0.0000
     17 H6         1.9385    9.1156    4.9675 H         1 RES1    0.0000
     18 C8         0.7340   10.2786    3.7527 C.ar      1 RES1    0.0000
     19 C9         1.4268   11.4886    3.8989 C.ar      1 RES1    0.0000
     20 C10        1.1658   12.5450    3.0158 C.ar      1 RES1    0.0000
     21 C11        0.2090   12.3590    2.0218 C.ar      1 RES1    0.0000
     22 H7         0.0230   13.0784    1.4294 H         1 RES1    0.0000
     23 C12       -0.4853   11.1683    1.8600 C.ar      1 RES1    0.0000
     24 C13       -0.2279   10.1039    2.7346 C.ar      1 RES1    0.0000
     25 C14        2.4595   11.7052    4.9822 C.3       1 RES1    0.0000
     26 H8         2.6591   10.8517    5.4192 H         1 RES1    0.0000
     27 H9         2.1102   12.3371    5.6446 H         1 RES1    0.0000
     28 H10        3.2784   12.0680    4.5853 H         1 RES1    0.0000
     29 C15        1.9109   13.8489    3.1112 C.3       1 RES1    0.0000
     30 H11        2.8634   13.6932    2.9427 H         1 RES1    0.0000
     31 H12        1.7955   14.2261    4.0075 H         1 RES1    0.0000
     32 H13        1.5583   14.4768    2.4456 H         1 RES1    0.0000
     33 C16       -1.5091   11.0514    0.7559 C.3       1 RES1    0.0000
     34 H14       -1.5933   11.9123    0.2960 H         1 RES1    0.0000
     35 H15       -2.3752   10.7989    1.1389 H         1 RES1    0.0000
     36 H16       -1.2237   10.3662    0.1171 H         1 RES1    0.0000
     37 C17       -0.9870    8.8106    2.5805 C.3       1 RES1    0.0000
     38 H17       -1.3446    8.5352    3.4508 H         1 RES1    0.0000
     39 H18       -0.3841    8.1157    2.2413 H         1 RES1    0.0000
     40 H19       -1.7260    8.9388    1.9496 H         1 RES1    0.0000
@<TRIPOS>BOND
     1    1    2 1
     2    2    3 2
     3    3    4 1
     4    4    5 ar
     5    5    6 1
     6    7    5 ar
     7    8    7 1
     8    9    7 ar
     9   10    9 1
    10   11    9 ar
    11   12   11 1
    12   13    1 1
    13   14    1 1
    14   15   14 1
    15   16   15 1
    16   17   15 1
    17   18   15 1
    18   19   18 ar
    19   20   19 ar
    20   21   20 ar
    21   22   21 1
    22   23   21 ar
    23   24   18 ar
    24   25   19 1
    25   26   25 1
    26   27   25 1
    27   28   25 1
    28   29   20 1
    29   30   29 1
    30   31   29 1
    31   32   29 1
    32   33   23 1
    33   34   33 1
    34   35   33 1
    35   36   33 1
    36   37   24 1
    37   38   37 1
    38   39   37 1
    39   40   37 1
    40    4   13 ar
    41   11   13 ar
    42   23   24 ar
@<TRIPOS>SUBSTRUCTURE
     1 RES1 1

@<TRIPOS>CRYSIN
   4.9737   26.3838   11.4900  90.0000 105.9770  90.0000  14 1

