# MOL2 file generated by ConQuest
# Please check atom types

@<TRIPOS>MOLECULE
VORLEU
    30    31     1
SMALL
NO_CHARGES
****
Generated from CSD

@<TRIPOS>ATOM
      1 C1         3.4902    4.7598    7.0717 C.ar      1 RES1    0.0000
      2 C2         3.3460    4.6605    8.4557 C.ar      1 RES1    0.0000
      3 H1         2.9138    5.3320    8.9334 H         1 RES1    0.0000
      4 C3         3.8533    3.5515    9.1101 C.ar      1 RES1    0.0000
      5 C4         4.5147    2.5257    8.4624 C.ar      1 RES1    0.0000
      6 H2         4.8610    1.7938    8.9203 H         1 RES1    0.0000
      7 C5         4.6304    2.6539    7.0881 C.ar      1 RES1    0.0000
      8 C6         4.1374    3.7353    6.3750 C.ar      1 RES1    0.0000
      9 H3         4.2347    3.7779    5.4506 H         1 RES1    0.0000
     10 N1         3.7279    3.4799   10.5741 N.pl3     1 RES1    0.0000
     11 N2         5.3340    1.5843    6.3477 N.pl3     1 RES1    0.0000
     12 O1         3.0475    4.3347   11.1318 O.2       1 RES1    0.0000
     13 O2         4.3186    2.5786   11.1583 O.2       1 RES1    0.0000
     14 O3         5.9182    0.7228    7.0031 O.2       1 RES1    0.0000
     15 O4         5.2931    1.6148    5.1262 O.2       1 RES1    0.0000
     16 C7         3.0597    5.9875    6.3485 C.ar      1 RES1    0.0000
     17 C8         3.4068    7.2355    6.8655 C.ar      1 RES1    0.0000
     18 H4         3.8541    7.3315    7.7011 H         1 RES1    0.0000
     19 C9         3.1643    8.3648    6.1052 C.ar      1 RES1    0.0000
     20 C10        2.5526    8.3346    4.8637 C.ar      1 RES1    0.0000
     21 H5         2.4073    9.1160    4.3572 H         1 RES1    0.0000
     22 C11        2.1594    7.0861    4.4178 C.ar      1 RES1    0.0000
     23 C12        2.4062    5.9125    5.1159 C.ar      1 RES1    0.0000
     24 H6         2.1415    5.0907    4.7691 H         1 RES1    0.0000
     25 N3         3.6449    9.6597    6.6089 N.pl3     1 RES1    0.0000
     26 N4         1.4893    7.0058    3.1027 N.pl3     1 RES1    0.0000
     27 O5         3.8779    9.7541    7.8106 O.2       1 RES1    0.0000
     28 O6         3.7896   10.5704    5.7997 O.2       1 RES1    0.0000
     29 O7         1.2503    8.0561    2.5168 O.2       1 RES1    0.0000
     30 O8         1.2129    5.8930    2.6707 O.2       1 RES1    0.0000
@<TRIPOS>BOND
     1    1    2 ar
     2    2    3 1
     3    4    2 ar
     4    5    4 ar
     5    6    5 1
     6    7    5 ar
     7    8    1 ar
     8    9    8 1
     9   10    4 1
    10   11    7 1
    11   12   10 2
    12   13   10 2
    13   14   11 2
    14   15   11 2
    15   16    1 1
    16   17   16 ar
    17   18   17 1
    18   19   17 ar
    19   20   19 ar
    20   21   20 1
    21   22   20 ar
    22   23   16 ar
    23   24   23 1
    24   25   19 1
    25   26   22 1
    26   27   25 2
    27   28   25 2
    28   29   26 2
    29   30   26 2
    30    7    8 ar
    31   22   23 ar
@<TRIPOS>SUBSTRUCTURE
     1 RES1 1

@<TRIPOS>CRYSIN
  10.0683   15.4640   16.3436  90.0000  90.0000  90.0000  61 1

