# MOL2 file generated by ConQuest
# Please check atom types

@<TRIPOS>MOLECULE
VORPIB01
    45    45     1
SMALL
NO_CHARGES
****
Generated from CSD

@<TRIPOS>ATOM
      1 O1         3.7477    8.5349   -2.8256 O.3       1 RES1    0.0000
      2 O2         6.8701    6.8657   -2.9732 O.3       1 RES1    0.0000
      3 O3         4.9530    5.9996    0.5306 O.3       1 RES1    0.0000
      4 O4         3.1640    8.0469    1.4594 O.3       1 RES1    0.0000
      5 O5         5.0423    9.6597   -1.2283 O.3       1 RES1    0.0000
      6 O6         3.7264   11.8679   -0.1727 O.3       1 RES1    0.0000
      7 O7         3.9148    4.3881   -0.6545 O.2       1 RES1    0.0000
      8 O8         4.4356    8.3713    3.2893 O.2       1 RES1    0.0000
      9 O9         5.2740   13.1818    0.8049 O.2       1 RES1    0.0000
     10 N1         6.1609    6.4649   -1.8229 N.2       1 RES1    0.0000
     11 C1         4.9910    8.6261   -2.1989 C.3       1 RES1    0.0000
     12 C2         5.2527    7.3041   -1.5138 C.2       1 RES1    0.0000
     13 C3         4.3879    7.0226   -0.3008 C.3       1 RES1    0.0000
     14 C4         4.2959    8.2547    0.5877 C.3       1 RES1    0.0000
     15 C5         4.0368    9.5243   -0.2186 C.3       1 RES1    0.0000
     16 C6         4.1314   10.7618    0.6462 C.3       1 RES1    0.0000
     17 C7         3.4214    9.7147   -3.5957 C.3       1 RES1    0.0000
     18 C8         2.1595    9.4332   -4.3700 C.3       1 RES1    0.0000
     19 C9         4.6603    4.7126    0.2326 C.2       1 RES1    0.0000
     20 C10        5.4101    3.7861    1.1364 C.3       1 RES1    0.0000
     21 C11        3.3603    8.1313    2.7949 C.2       1 RES1    0.0000
     22 C12        2.0825    7.8981    3.5358 C.3       1 RES1    0.0000
     23 C13        4.4012   13.0303   -0.0139 C.2       1 RES1    0.0000
     24 C14        3.9254   14.0479   -1.0041 C.3       1 RES1    0.0000
     25 H1         7.4776    6.2584   -3.0902 H         1 RES1    0.0000
     26 H2         5.6675    8.8888   -2.7365 H         1 RES1    0.0000
     27 H3         3.4550    6.7384   -0.6462 H         1 RES1    0.0000
     28 H4         5.0803    8.3378    1.0403 H         1 RES1    0.0000
     29 H5         3.1746    9.5082   -0.5974 H         1 RES1    0.0000
     30 H6         3.5779   10.7363    1.4191 H         1 RES1    0.0000
     31 H7         5.0440   10.8999    0.9400 H         1 RES1    0.0000
     32 H8         4.1536    9.9105   -4.2614 H         1 RES1    0.0000
     33 H9         3.3418   10.4642   -2.9565 H         1 RES1    0.0000
     34 H10        1.9463   10.3060   -4.9061 H         1 RES1    0.0000
     35 H11        1.4034    9.2280   -3.6862 H         1 RES1    0.0000
     36 H12        2.2311    8.6944   -4.9730 H         1 RES1    0.0000
     37 H13        5.5251    4.1830    2.0234 H         1 RES1    0.0000
     38 H14        6.2980    3.6655    0.7339 H         1 RES1    0.0000
     39 H15        4.9512    2.9455    1.2157 H         1 RES1    0.0000
     40 H16        2.0144    6.9944    3.4885 H         1 RES1    0.0000
     41 H17        1.3804    8.3164    2.9426 H         1 RES1    0.0000
     42 H18        2.1365    8.1970    4.4006 H         1 RES1    0.0000
     43 H19        2.9341   13.9285   -1.2032 H         1 RES1    0.0000
     44 H20        4.2959   13.8762   -1.8925 H         1 RES1    0.0000
     45 H21        4.2950   14.9153   -0.7074 H         1 RES1    0.0000
@<TRIPOS>BOND
     1    1   11 1
     2    2   10 1
     3    3   13 1
     4    4   14 1
     5    5   11 1
     6    6   16 1
     7    7   19 2
     8    8   21 2
     9    9   23 2
    10   10   12 2
    11   11   12 1
    12   12   13 1
    13   13   14 1
    14   14   15 1
    15   15    5 1
    16   16   15 1
    17   17    1 1
    18   18   17 1
    19   19    3 1
    20   20   19 1
    21   21    4 1
    22   22   21 1
    23   23    6 1
    24   24   23 1
    25   25    2 1
    26   26   11 1
    27   27   13 1
    28   28   14 1
    29   29   15 1
    30   30   16 1
    31   31   16 1
    32   32   17 1
    33   33   17 1
    34   34   18 1
    35   35   18 1
    36   36   18 1
    37   37   20 1
    38   38   20 1
    39   39   20 1
    40   40   22 1
    41   41   22 1
    42   42   22 1
    43   43   24 1
    44   44   24 1
    45   45   24 1
@<TRIPOS>SUBSTRUCTURE
     1 RES1 1

@<TRIPOS>CRYSIN
   8.8430   13.4070   13.9260  90.0000  90.0000  90.0000  19 1

