# MOL2 file generated by ConQuest
# Please check atom types

@<TRIPOS>MOLECULE
VORPIB
    45    45     1
SMALL
NO_CHARGES
****
Generated from CSD

@<TRIPOS>ATOM
      1 O1         3.8394    8.6825   -2.8377 O.3       1 RES1    0.0000
      2 O2         6.8988    6.9883   -2.9863 O.3       1 RES1    0.0000
      3 O3         5.0299    6.0825    0.4994 O.3       1 RES1    0.0000
      4 O4         3.2843    8.1191    1.4953 O.3       1 RES1    0.0000
      5 O5         5.0893    9.7820   -1.1909 O.3       1 RES1    0.0000
      6 O6         3.7711   11.9645   -0.1276 O.3       1 RES1    0.0000
      7 O7         3.9033    4.5111   -0.6312 O.2       1 RES1    0.0000
      8 O8         4.5818    8.4165    3.2781 O.2       1 RES1    0.0000
      9 O9         5.4015   13.1786    0.7729 O.2       1 RES1    0.0000
     10 N1         6.2041    6.5763   -1.8488 N.2       1 RES1    0.0000
     11 C1         5.0650    8.7507   -2.1644 C.3       1 RES1    0.0000
     12 C2         5.3214    7.4357   -1.5332 C.2       1 RES1    0.0000
     13 C3         4.4594    7.1342   -0.3226 C.3       1 RES1    0.0000
     14 C4         4.3784    8.3401    0.6158 C.3       1 RES1    0.0000
     15 C5         4.0851    9.6142   -0.1922 C.3       1 RES1    0.0000
     16 C6         4.1553   10.8405    0.7056 C.3       1 RES1    0.0000
     17 C7         3.5308    9.8638   -3.6021 C.3       1 RES1    0.0000
     18 C8         2.2657    9.6278   -4.3456 C.3       1 RES1    0.0000
     19 C9         4.6898    4.8098    0.1824 C.2       1 RES1    0.0000
     20 C10        5.4321    3.8700    1.0871 C.3       1 RES1    0.0000
     21 C11        3.5074    8.1914    2.8264 C.2       1 RES1    0.0000
     22 C12        2.2522    7.9759    3.5881 C.3       1 RES1    0.0000
     23 C13        4.4855   13.0899   -0.0070 C.2       1 RES1    0.0000
     24 C14        3.9987   14.1444   -0.9230 C.3       1 RES1    0.0000
     25 H1         5.7407    9.0031   -2.8194 H         1 RES1    0.0000
     26 H2         7.8732    6.8205   -3.2122 H         1 RES1    0.0000
     27 H3         3.6082    6.8069   -0.6733 H         1 RES1    0.0000
     28 H4         5.2278    8.5120    1.0801 H         1 RES1    0.0000
     29 H5         3.2393    9.5351   -0.6172 H         1 RES1    0.0000
     30 H6         3.5182   10.7355    1.4448 H         1 RES1    0.0000
     31 H7         5.0119   10.9401    1.1081 H         1 RES1    0.0000
     32 H8         4.2651    9.9989   -4.2362 H         1 RES1    0.0000
     33 H9         3.4552   10.5991   -3.0439 H         1 RES1    0.0000
     34 H10        1.6556    9.3168   -3.8715 H         1 RES1    0.0000
     35 H11        1.9796   10.3944   -4.7552 H         1 RES1    0.0000
     36 H12        2.4295    8.9758   -5.0076 H         1 RES1    0.0000
     37 H13        6.2086    3.7240    0.8556 H         1 RES1    0.0000
     38 H14        5.1199    2.8919    1.2624 H         1 RES1    0.0000
     39 H15        5.6237    4.2014    1.9357 H         1 RES1    0.0000
     40 H16        2.2855    8.3347    4.3063 H         1 RES1    0.0000
     41 H17        2.1055    7.0660    3.7312 H         1 RES1    0.0000
     42 H18        1.5207    8.2801    3.1420 H         1 RES1    0.0000
     43 H19        4.5530   14.8278   -0.8977 H         1 RES1    0.0000
     44 H20        3.1493   14.4049   -0.6733 H         1 RES1    0.0000
     45 H21        3.9141   13.8456   -1.7674 H         1 RES1    0.0000
@<TRIPOS>BOND
     1    1   11 1
     2    2   10 1
     3    3   13 1
     4    4   14 1
     5    5   11 1
     6    6   16 1
     7    7   19 2
     8    8   21 2
     9    9   23 2
    10   10   12 2
    11   11   12 1
    12   12   13 1
    13   13   14 1
    14   14   15 1
    15   15    5 1
    16   16   15 1
    17   17    1 1
    18   18   17 1
    19   19    3 1
    20   20   19 1
    21   21    4 1
    22   22   21 1
    23   23    6 1
    24   24   23 1
    25   25   11 1
    26   26    2 1
    27   27   13 1
    28   28   14 1
    29   29   15 1
    30   30   16 1
    31   31   16 1
    32   32   17 1
    33   33   17 1
    34   34   18 1
    35   35   18 1
    36   36   18 1
    37   37   20 1
    38   38   20 1
    39   39   20 1
    40   40   22 1
    41   41   22 1
    42   42   22 1
    43   43   24 1
    44   44   24 1
    45   45   24 1
@<TRIPOS>SUBSTRUCTURE
     1 RES1 1

@<TRIPOS>CRYSIN
   8.9980   13.6410   14.0270  90.0000  90.0000  90.0000  19 1

