# MOL2 file generated by ConQuest
# Please check atom types

@<TRIPOS>MOLECULE
VOSLAS
    31    33     1
SMALL
USER_CHARGES
****
Generated from CSD

@<TRIPOS>ATOM
      1 O1         3.6026    3.0832   10.5241 O.3       1 RES1    0.0000
      2 O2         5.8441    1.7930   14.8656 O.2       1 RES1   -1.0000
      3 N1         1.8028    1.6751   15.5496 N.ar      1 RES1    0.0000
      4 N2         4.5746    1.7671   15.0798 N.pl3     1 RES1    1.0000
      5 C1         0.9607    0.3554   17.9513 C.ar      1 RES1    0.0000
      6 H1         0.5007    0.0892   17.1635 H         1 RES1    0.0000
      7 C2         0.4303    0.0520   19.1901 C.ar      1 RES1    0.0000
      8 H2        -0.3891   -0.4256   19.2515 H         1 RES1    0.0000
      9 C3         1.0931    0.4432   20.3425 C.ar      1 RES1    0.0000
     10 H3         0.7251    0.2416   21.1949 H         1 RES1    0.0000
     11 C4         2.2897    1.1279   20.2499 C.ar      1 RES1    0.0000
     12 H4         2.7424    1.3962   21.0402 H         1 RES1    0.0000
     13 C5         2.8322    1.4257   19.0092 C.ar      1 RES1    0.0000
     14 H5         3.6601    1.8872   18.9521 H         1 RES1    0.0000
     15 C6         2.1649    1.0493   17.8449 C.ar      1 RES1    0.0000
     16 C7         2.6884    1.3983   16.5021 C.ar      1 RES1    0.0000
     17 C8         4.0721    1.4229   16.2752 C.ar      1 RES1    0.0000
     18 H6         4.6641    1.1912   16.9808 H         1 RES1    0.0000
     19 C9         3.6856    2.0824   14.0444 C.ar      1 RES1    0.0000
     20 C10        2.3116    2.0143   14.3316 C.ar      1 RES1    0.0000
     21 C11        1.4211    2.3163   13.2713 C.ar      1 RES1    0.0000
     22 H7         0.4834    2.2826   13.4213 H         1 RES1    0.0000
     23 C12        1.8909    2.6527   12.0416 C.ar      1 RES1    0.0000
     24 H8         1.2789    2.8416   11.3408 H         1 RES1    0.0000
     25 C13        3.2811    2.7250   11.7935 C.ar      1 RES1    0.0000
     26 C14        4.1839    2.4434   12.7872 C.ar      1 RES1    0.0000
     27 H9         5.1196    2.4919   12.6271 H         1 RES1    0.0000
     28 C15        4.9782    2.9870   10.1370 C.3       1 RES1    0.0000
     29 H10        5.0758    3.2750    9.2046 H         1 RES1    0.0000
     30 H11        5.2777    2.0578   10.2245 H         1 RES1    0.0000
     31 H12        5.5220    3.5615   10.7167 H         1 RES1    0.0000
@<TRIPOS>BOND
     1    1   25 1
     2    2    4 1
     3    3   16 ar
     4    4   17 ar
     5    5    6 1
     6    7    5 ar
     7    8    7 1
     8    9    7 ar
     9   10    9 1
    10   11    9 ar
    11   12   11 1
    12   13   11 ar
    13   14   13 1
    14   15    5 ar
    15   16   15 1
    16   17   16 ar
    17   18   17 1
    18   19    4 ar
    19   20    3 ar
    20   21   20 ar
    21   22   21 1
    22   23   21 ar
    23   24   23 1
    24   25   23 ar
    25   26   19 ar
    26   27   26 1
    27   28    1 1
    28   29   28 1
    29   30   28 1
    30   31   28 1
    31   13   15 ar
    32   19   20 ar
    33   25   26 ar
@<TRIPOS>SUBSTRUCTURE
     1 RES1 1

@<TRIPOS>CRYSIN
  13.2805    7.0233   25.3710  90.0000  90.0000  90.0000  61 1

