# MOL2 file generated by ConQuest
# Please check atom types

@<TRIPOS>MOLECULE
VOSQID
    46    47     1
SMALL
USER_CHARGES
****
Generated from CSD

@<TRIPOS>ATOM
      1 O1        -1.1567    2.8613   -0.2835 O.3       1 RES1    0.0000
      2 H1        -0.5483    3.4072   -0.4746 H         1 RES1    0.0000
      3 N1         1.2325    4.0657   -0.0431 N.3       1 RES1    0.0000
      4 O2        -1.0078   -2.5159    3.2875 O.2       1 RES1    0.0000
      5 N2         0.1265   -2.1058    3.7005 N.pl3     1 RES1    0.0000
      6 C1         0.8213   -2.8212    4.8285 C.3       1 RES1    0.0000
      7 C2         2.2509   -2.2997    4.6210 C.3       1 RES1    0.0000
      8 O3         2.8648   -0.0513    3.8772 O.2       1 RES1   -1.0000
      9 N3         1.9735   -0.9783    3.9552 N.pl3     1 RES1    1.0000
     10 C3         0.7678   -0.9894    3.3286 C.2       1 RES1    0.0000
     11 C4         0.2584    0.0167    2.3958 C.ar      1 RES1    0.0000
     12 C5         1.1470    0.8680    1.7218 C.ar      1 RES1    0.0000
     13 H2         2.0777    0.7967    1.8985 H         1 RES1    0.0000
     14 C6         0.7070    1.8095    0.8075 C.ar      1 RES1    0.0000
     15 C7        -0.6675    1.9198    0.5876 C.ar      1 RES1    0.0000
     16 C8        -1.5596    1.0964    1.2328 C.ar      1 RES1    0.0000
     17 H3        -2.4906    1.1766    1.0602 H         1 RES1    0.0000
     18 C9        -1.1022    0.1515    2.1348 C.ar      1 RES1    0.0000
     19 H4        -1.7235   -0.4111    2.5807 H         1 RES1    0.0000
     20 C10        1.6809    2.6607    0.0247 C.3       1 RES1    0.0000
     21 H5         2.5717    2.6206    0.4541 H         1 RES1    0.0000
     22 H6         1.7680    2.2997   -0.8938 H         1 RES1    0.0000
     23 C11        1.3533    4.7019    1.2760 C.3       1 RES1    0.0000
     24 H7         1.0532    5.6334    1.2184 H         1 RES1    0.0000
     25 H8         2.2895    4.6785    1.5657 H         1 RES1    0.0000
     26 H9         0.7992    4.2195    1.9252 H         1 RES1    0.0000
     27 C12        2.0222    4.7977   -1.0540 C.3       1 RES1    0.0000
     28 H10        1.9279    4.3576   -1.9252 H         1 RES1    0.0000
     29 H11        2.9662    4.8022   -0.7910 H         1 RES1    0.0000
     30 H12        1.6975    5.7203   -1.1177 H         1 RES1    0.0000
     31 C13        0.1623   -2.3131    6.1106 C.3       1 RES1    0.0000
     32 H13        0.2873   -1.3437    6.1805 H         1 RES1    0.0000
     33 H14        0.5731   -2.7521    6.8852 H         1 RES1    0.0000
     34 H15       -0.7957   -2.5181    6.0901 H         1 RES1    0.0000
     35 C14        0.6463   -4.3220    4.6847 C.3       1 RES1    0.0000
     36 H16        1.0747   -4.6239    3.8566 H         1 RES1    0.0000
     37 H17       -0.3090   -4.5393    4.6559 H         1 RES1    0.0000
     38 H18        1.0607   -4.7732    5.4490 H         1 RES1    0.0000
     39 C15        3.0747   -2.0735    5.8866 C.3       1 RES1    0.0000
     40 H19        2.5536   -1.5432    6.5256 H         1 RES1    0.0000
     41 H20        3.8981   -1.5933    5.6586 H         1 RES1    0.0000
     42 H21        3.3012   -2.9381    6.2873 H         1 RES1    0.0000
     43 C16        3.0454   -3.1298    3.5936 C.3       1 RES1    0.0000
     44 H22        2.5001   -3.2635    2.7902 H         1 RES1    0.0000
     45 H23        3.2730   -4.0000    3.9820 H         1 RES1    0.0000
     46 H24        3.8676   -2.6529    3.3553 H         1 RES1    0.0000
@<TRIPOS>BOND
     1    1    2 1
     2    3   20 1
     3    4    5 1
     4    5    6 1
     5    6    7 1
     6    7    9 1
     7    8    9 1
     8    9   10 2
     9   10    5 1
    10   11   10 1
    11   12   11 ar
    12   13   12 1
    13   14   12 ar
    14   15    1 1
    15   16   15 ar
    16   17   16 1
    17   18   11 ar
    18   19   18 1
    19   20   14 1
    20   21   20 1
    21   22   20 1
    22   23    3 1
    23   24   23 1
    24   25   23 1
    25   26   23 1
    26   27    3 1
    27   28   27 1
    28   29   27 1
    29   30   27 1
    30   31    6 1
    31   32   31 1
    32   33   31 1
    33   34   31 1
    34   35    6 1
    35   36   35 1
    36   37   35 1
    37   38   35 1
    38   39    7 1
    39   40   39 1
    40   41   39 1
    41   42   39 1
    42   43    7 1
    43   44   43 1
    44   45   43 1
    45   46   43 1
    46   14   15 ar
    47   16   18 ar
@<TRIPOS>SUBSTRUCTURE
     1 RES1 1

@<TRIPOS>CRYSIN
   7.1670   11.1420   20.6100  90.0000  94.4900  90.0000  14 1

