# MOL2 file generated by ConQuest
# Please check atom types

@<TRIPOS>MOLECULE
VOSQUP
    53    55     1
SMALL
USER_CHARGES
****
Generated from CSD

@<TRIPOS>ATOM
      1 O1        -5.4327   -1.4347    4.4758 O.2       1 RES1    0.0000
      2 N1        -5.1520   -1.6062    3.2335 N.pl3     1 RES1    0.0000
      3 C1        -6.2116   -1.9728    2.2325 C.3       1 RES1    0.0000
      4 C2        -5.3266   -2.3699    1.0080 C.3       1 RES1    0.0000
      5 O2        -3.1147   -1.5104    0.4624 O.2       1 RES1   -1.0000
      6 N2        -4.0440   -1.6581    1.3408 N.pl3     1 RES1    1.0000
      7 C3        -3.9692   -1.3203    2.6388 C.2       1 RES1    0.0000
      8 C4        -2.8226   -0.7130    3.3052 C.ar      1 RES1    0.0000
      9 C5        -3.0190    0.3592    4.1788 C.ar      1 RES1    0.0000
     10 H1        -3.8995    0.6854    4.3225 H         1 RES1    0.0000
     11 C6        -1.9575    0.9582    4.8411 C.ar      1 RES1    0.0000
     12 O3         0.3924    0.9270    5.3462 O.3       1 RES1    0.0000
     13 H2         0.0275    1.4855    5.9693 H         1 RES1    0.0000
     14 C7        -0.6715    0.4232    4.6763 C.ar      1 RES1    0.0000
     15 C8        -0.4682   -0.6519    3.8091 C.ar      1 RES1    0.0000
     16 H3         0.4049   -1.0091    3.6966 H         1 RES1    0.0000
     17 C9        -1.5288   -1.1996    3.1134 C.ar      1 RES1    0.0000
     18 H4        -1.3768   -1.9107    2.5021 H         1 RES1    0.0000
     19 C10       -2.1613    2.1970    5.6818 C.3       1 RES1    0.0000
     20 H5        -1.8937    2.9925    5.1569 H         1 RES1    0.0000
     21 H6        -3.1231    2.2864    5.8991 H         1 RES1    0.0000
     22 N3        -1.3857    2.1621    6.9336 N.3       1 RES1    0.0000
     23 C11       -1.4348    3.4933    7.5659 C.3       1 RES1    0.0000
     24 H7        -2.3768    3.7330    7.7537 H         1 RES1    0.0000
     25 H8        -1.0667    4.1673    6.9410 H         1 RES1    0.0000
     26 C12       -0.6403    3.5194    8.8608 C.3       1 RES1    0.0000
     27 H9        -0.7322    4.4082    9.2872 H         1 RES1    0.0000
     28 H10        0.3185    3.3712    8.6635 H         1 RES1    0.0000
     29 C13       -1.1349    2.4420    9.8188 C.3       1 RES1    0.0000
     30 H11       -0.5563    2.4207   10.6220 H         1 RES1    0.0000
     31 H12       -2.0572    2.6541   10.1092 H         1 RES1    0.0000
     32 C14       -1.1141    1.0792    9.1378 C.3       1 RES1    0.0000
     33 H13       -0.1792    0.8179    8.9453 H         1 RES1    0.0000
     34 H14       -1.5062    0.3998    9.7420 H         1 RES1    0.0000
     35 C15       -1.9061    1.1287    7.8448 C.3       1 RES1    0.0000
     36 H15       -1.8613    0.2458    7.3989 H         1 RES1    0.0000
     37 H16       -2.8558    1.3198    8.0491 H         1 RES1    0.0000
     38 C16       -7.0269   -0.6959    2.0292 C.3       1 RES1    0.0000
     39 H17       -7.7683   -0.8764    1.4150 H         1 RES1    0.0000
     40 H18       -6.4515    0.0023    1.6509 H         1 RES1    0.0000
     41 H19       -7.3833   -0.3957    2.8909 H         1 RES1    0.0000
     42 C17       -7.0905   -3.0807    2.7673 C.3       1 RES1    0.0000
     43 H20       -7.6970   -3.3862    2.0607 H         1 RES1    0.0000
     44 H21       -7.6145   -2.7450    3.5248 H         1 RES1    0.0000
     45 H22       -6.5301   -3.8278    3.0627 H         1 RES1    0.0000
     46 C18       -5.8470   -1.8848   -0.3359 C.3       1 RES1    0.0000
     47 H23       -6.6918   -2.3366   -0.5415 H         1 RES1    0.0000
     48 H24       -5.1897   -2.0877   -1.0332 H         1 RES1    0.0000
     49 H25       -5.9953   -0.9165   -0.2986 H         1 RES1    0.0000
     50 C19       -4.9856   -3.8643    0.9430 C.3       1 RES1    0.0000
     51 H26       -5.7906   -4.3735    0.7139 H         1 RES1    0.0000
     52 H27       -4.6490   -4.1605    1.8140 H         1 RES1    0.0000
     53 H28       -4.2996   -4.0137    0.2581 H         1 RES1    0.0000
@<TRIPOS>BOND
     1    1    2 1
     2    2    3 1
     3    3    4 1
     4    4    6 1
     5    5    6 1
     6    6    7 2
     7    7    2 1
     8    8    7 1
     9    9    8 ar
    10   10    9 1
    11   11    9 ar
    12   12   13 1
    13   14   11 ar
    14   15   14 ar
    15   16   15 1
    16   17    8 ar
    17   18   17 1
    18   19   11 1
    19   20   19 1
    20   21   19 1
    21   22   19 1
    22   23   22 1
    23   24   23 1
    24   25   23 1
    25   26   23 1
    26   27   26 1
    27   28   26 1
    28   29   26 1
    29   30   29 1
    30   31   29 1
    31   32   29 1
    32   33   32 1
    33   34   32 1
    34   35   22 1
    35   36   35 1
    36   37   35 1
    37   38    3 1
    38   39   38 1
    39   40   38 1
    40   41   38 1
    41   42    3 1
    42   43   42 1
    43   44   42 1
    44   45   42 1
    45   46    4 1
    46   47   46 1
    47   48   46 1
    48   49   46 1
    49   50    4 1
    50   51   50 1
    51   52   50 1
    52   53   50 1
    53   12   14 1
    54   15   17 ar
    55   32   35 1
@<TRIPOS>SUBSTRUCTURE
     1 RES1 1

@<TRIPOS>CRYSIN
  10.1839   11.4709   31.8700  90.0000  90.0000  90.0000  61 1

