# MOL2 file generated by ConQuest
# Please check atom types

@<TRIPOS>MOLECULE
VOVHAR
    30    32     1
SMALL
NO_CHARGES
****
Generated from CSD

@<TRIPOS>ATOM
      1 O1         2.2297    6.3648   17.2672 O.3       1 RES1    0.0000
      2 O2         3.6698   14.5861   18.9098 O.2       1 RES1    0.0000
      3 O3         2.8158   14.2644   20.8499 O.2       1 RES1    0.0000
      4 N1         1.7874    8.4614   16.4905 N.2       1 RES1    0.0000
      5 H1         1.4915    8.0902   15.7727 H         1 RES1    0.0000
      6 N2         3.1673   13.8622   19.7511 N.pl3     1 RES1    0.0000
      7 C1         2.5949    4.1532   18.0106 C.ar      1 RES1    0.0000
      8 H2         2.2710    3.8390   17.1979 H         1 RES1    0.0000
      9 C2         3.0232    3.2771   18.9841 C.ar      1 RES1    0.0000
     10 H3         2.9770    2.3619   18.8285 H         1 RES1    0.0000
     11 C3         3.5222    3.7430   20.1946 C.ar      1 RES1    0.0000
     12 H4         3.8261    3.1433   20.8372 H         1 RES1    0.0000
     13 C4         3.5654    5.0961   20.4372 C.ar      1 RES1    0.0000
     14 H5         3.8866    5.4063   21.2525 H         1 RES1    0.0000
     15 C5         3.1321    6.0067   19.4748 C.ar      1 RES1    0.0000
     16 C6         2.2294    7.7391   17.4184 C.2       1 RES1    0.0000
     17 C7         2.7318    8.2742   18.6892 C.2       1 RES1    0.0000
     18 C8         3.1499    7.4349   19.6471 C.2       1 RES1    0.0000
     19 H6         3.4617    7.7874   20.4482 H         1 RES1    0.0000
     20 C9         2.6580    5.5092   18.2720 C.ar      1 RES1    0.0000
     21 C10        2.7693    9.7450   18.8868 C.ar      1 RES1    0.0000
     22 C11        3.2835   10.6212   17.9345 C.ar      1 RES1    0.0000
     23 H7         3.5499   10.2926   17.1061 H         1 RES1    0.0000
     24 C12        3.4031   11.9704   18.2031 C.ar      1 RES1    0.0000
     25 H8         3.7576   12.5496   17.5673 H         1 RES1    0.0000
     26 C13        2.9884   12.4458   19.4311 C.ar      1 RES1    0.0000
     27 C14        2.4450   11.6127   20.3854 C.ar      1 RES1    0.0000
     28 H9         2.1556   11.9543   21.2001 H         1 RES1    0.0000
     29 C15        2.3376   10.2728   20.1157 C.ar      1 RES1    0.0000
     30 H10        1.9736    9.7047   20.7564 H         1 RES1    0.0000
@<TRIPOS>BOND
     1    1   16 1
     2    2    6 2
     3    3    6 2
     4    4    5 1
     5    6   26 1
     6    7    8 1
     7    9    7 ar
     8   10    9 1
     9   11    9 ar
    10   12   11 1
    11   13   11 ar
    12   14   13 1
    13   15   13 ar
    14   16    4 2
    15   17   16 1
    16   18   15 1
    17   19   18 1
    18   20    1 1
    19   21   17 1
    20   22   21 ar
    21   23   22 1
    22   24   22 ar
    23   25   24 1
    24   26   24 ar
    25   27   26 ar
    26   28   27 1
    27   29   21 ar
    28   30   29 1
    29    7   20 ar
    30   15   20 ar
    31   17   18 2
    32   27   29 ar
@<TRIPOS>SUBSTRUCTURE
     1 RES1 1

@<TRIPOS>CRYSIN
   3.7837   14.7712   21.8580  90.0000  90.0000  90.0000  19 1

