# MOL2 file generated by ConQuest
# Please check atom types

@<TRIPOS>MOLECULE
VOWXEK10
    35    37     1
SMALL
NO_CHARGES
****
Generated from CSD

@<TRIPOS>ATOM
      1 C1         7.0960    1.6849    7.1222 C.ar      1 RES1    0.0000
      2 C2         8.0620    1.9332    8.0633 C.ar      1 RES1    0.0000
      3 C3         9.0474    1.0067    8.3236 C.ar      1 RES1    0.0000
      4 C4         9.0642   -0.1820    7.6245 C.ar      1 RES1    0.0000
      5 C5         8.0953   -0.4435    6.6773 C.ar      1 RES1    0.0000
      6 C6         7.0906    0.4847    6.4149 C.ar      1 RES1    0.0000
      7 C7         6.0794    0.2438    5.4042 C.2       1 RES1    0.0000
      8 C8         5.2070    1.0113    4.7317 C.2       1 RES1    0.0000
      9 C9         4.5144    0.1488    3.8574 C.2       1 RES1    0.0000
     10 C10        3.4665    0.4309    2.8853 C.2       1 RES1    0.0000
     11 C11        2.9469    1.6259    2.6664 C.2       1 RES1    0.0000
     12 C12        1.8481    1.9058    1.6901 C.3       1 RES1    0.0000
     13 C13        2.2504    2.8134    0.5518 C.ar      1 RES1    0.0000
     14 C14        1.5094    3.9426    0.2539 C.ar      1 RES1    0.0000
     15 C15        1.8804    4.7833   -0.7792 C.ar      1 RES1    0.0000
     16 C16        2.9826    4.5109   -1.5281 C.ar      1 RES1    0.0000
     17 C17        3.7195    3.3800   -1.2726 C.ar      1 RES1    0.0000
     18 C18        3.3555    2.5330   -0.2326 C.ar      1 RES1    0.0000
     19 O1         5.9393   -1.0485    4.9799 O.3       1 RES1    0.0000
     20 N1         4.9341   -1.0897    3.9900 N.2       1 RES1    0.0000
     21 H1         6.4175    2.3522    6.9267 H         1 RES1    0.0000
     22 H2         8.0600    2.7642    8.5579 H         1 RES1    0.0000
     23 H3         9.7351    1.2018    8.9834 H         1 RES1    0.0000
     24 H4         9.7526   -0.8527    7.8014 H         1 RES1    0.0000
     25 H5         8.0641   -1.2934    6.1938 H         1 RES1    0.0000
     26 H6         5.0713    1.9802    4.8463 H         1 RES1    0.0000
     27 H7         3.1266   -0.3148    2.3404 H         1 RES1    0.0000
     28 H8         3.3395    2.3865    3.1442 H         1 RES1    0.0000
     29 H9         1.0836    2.2720    2.1513 H         1 RES1    0.0000
     30 H10        1.5483    1.0473    1.3239 H         1 RES1    0.0000
     31 H11        0.7088    4.1377    0.7565 H         1 RES1    0.0000
     32 H12        1.3256    5.5628   -0.9929 H         1 RES1    0.0000
     33 H13        3.2675    5.1450   -2.2222 H         1 RES1    0.0000
     34 H14        4.5173    3.1705   -1.8440 H         1 RES1    0.0000
     35 H15        3.8807    1.7112   -0.0473 H         1 RES1    0.0000
@<TRIPOS>BOND
     1    1    2 ar
     2    2    3 ar
     3    3    4 ar
     4    4    5 ar
     5    5    6 ar
     6    6    1 ar
     7    7    6 1
     8    8    7 2
     9    9    8 1
    10   10    9 1
    11   11   10 2
    12   12   11 1
    13   13   12 1
    14   14   13 ar
    15   15   14 ar
    16   16   15 ar
    17   17   16 ar
    18   18   13 ar
    19   19    7 1
    20   20    9 2
    21   21    1 1
    22   22    2 1
    23   23    3 1
    24   24    4 1
    25   25    5 1
    26   26    8 1
    27   27   10 1
    28   28   11 1
    29   29   12 1
    30   30   12 1
    31   31   14 1
    32   32   15 1
    33   33   16 1
    34   34   17 1
    35   35   18 1
    36   17   18 ar
    37   19   20 1
@<TRIPOS>SUBSTRUCTURE
     1 RES1 1

@<TRIPOS>CRYSIN
  10.3510    5.7230   24.1030  90.0000 101.2420  90.0000  14 1

