# MOL2 file generated by ConQuest
# Please check atom types

@<TRIPOS>MOLECULE
VOXFAP
    39    41     1
SMALL
NO_CHARGES
****
Generated from CSD

@<TRIPOS>ATOM
      1 N1        -0.4412    3.0387    4.1285 N.pl3     1 RES1    0.0000
      2 C1         0.9352    2.7228    3.6983 C.3       1 RES1    0.0000
      3 C2         1.6704    1.8869    4.7413 C.3       1 RES1    0.0000
      4 N2         1.5747    2.4718    6.0727 N.am      1 RES1    0.0000
      5 C3         0.4419    2.4437    6.7822 C.2       1 RES1    0.0000
      6 O1         0.3201    3.0426    7.8554 O.2       1 RES1    0.0000
      7 C4        -0.6732    1.6143    6.2071 C.3       1 RES1    0.0000
      8 C5        -1.3526    2.2475    4.9829 C.3       1 RES1    0.0000
      9 C6         1.0301    2.1112    2.3050 C.ar      1 RES1    0.0000
     10 C7         1.6635    2.8260    1.3027 C.ar      1 RES1    0.0000
     11 C8         1.8657    2.2641    0.0543 C.ar      1 RES1    0.0000
     12 C9         1.3932    0.9938   -0.2038 C.ar      1 RES1    0.0000
     13 C10        0.7559    0.2816    0.7774 C.ar      1 RES1    0.0000
     14 C11        0.5767    0.8333    2.0393 C.ar      1 RES1    0.0000
     15 C12       -2.1782    1.2422    4.1707 C.ar      1 RES1    0.0000
     16 C13       -2.6799    0.0905    4.7519 C.ar      1 RES1    0.0000
     17 C14       -3.4657   -0.7899    4.0198 C.ar      1 RES1    0.0000
     18 C15       -3.7567   -0.5300    2.6990 C.ar      1 RES1    0.0000
     19 C16       -3.2926    0.6256    2.1269 C.ar      1 RES1    0.0000
     20 C17       -2.5091    1.5022    2.8499 C.ar      1 RES1    0.0000
     21 N3        -0.9995    4.1841    3.7436 N.2       1 RES1    0.0000
     22 O2        -0.3301    4.8620    2.9631 O.2       1 RES1    0.0000
     23 H1         1.3227    3.5280    3.6590 H         1 RES1    0.0000
     24 H2         2.6347    1.8398    4.4666 H         1 RES1    0.0000
     25 H3         1.3219    0.9619    4.7534 H         1 RES1    0.0000
     26 H4         2.3176    2.9585    6.4456 H         1 RES1    0.0000
     27 H5        -0.2704    0.7288    6.0199 H         1 RES1    0.0000
     28 H6        -1.3625    1.5034    6.9271 H         1 RES1    0.0000
     29 H7        -1.9837    2.9534    5.3255 H         1 RES1    0.0000
     30 H8         2.0197    3.7382    1.4793 H         1 RES1    0.0000
     31 H9         2.2640    2.8336   -0.7321 H         1 RES1    0.0000
     32 H10        1.5203    0.7084   -1.0793 H         1 RES1    0.0000
     33 H11        0.4450   -0.6345    0.6189 H         1 RES1    0.0000
     34 H12        0.1356    0.3287    2.6990 H         1 RES1    0.0000
     35 H13       -2.5596   -0.0866    5.6561 H         1 RES1    0.0000
     36 H14       -3.7138   -1.6181    4.4455 H         1 RES1    0.0000
     37 H15       -4.2959   -1.1301    2.1420 H         1 RES1    0.0000
     38 H16       -3.4496    0.7938    1.1699 H         1 RES1    0.0000
     39 H17       -2.1828    2.2462    2.4937 H         1 RES1    0.0000
@<TRIPOS>BOND
     1    1    2 1
     2    2    3 1
     3    3    4 1
     4    4    5 1
     5    5    6 2
     6    7    5 1
     7    8    1 1
     8    9    2 1
     9   10    9 ar
    10   11   10 ar
    11   12   11 ar
    12   13   12 ar
    13   14    9 ar
    14   15    8 1
    15   16   15 ar
    16   17   16 ar
    17   18   17 ar
    18   19   18 ar
    19   20   15 ar
    20   21    1 1
    21   22   21 2
    22   23    2 1
    23   24    3 1
    24   25    3 1
    25   26    4 1
    26   27    7 1
    27   28    7 1
    28   29    8 1
    29   30   10 1
    30   31   11 1
    31   32   12 1
    32   33   13 1
    33   34   14 1
    34   35   16 1
    35   36   17 1
    36   37   18 1
    37   38   19 1
    38   39   20 1
    39    7    8 1
    40   13   14 ar
    41   19   20 ar
@<TRIPOS>SUBSTRUCTURE
     1 RES1 1

@<TRIPOS>CRYSIN
   7.6590   12.7410   15.0950  90.0000  90.0000  90.0000  19 1

