# MOL2 file generated by ConQuest
# Please check atom types

@<TRIPOS>MOLECULE
VOXFIX
    40    40     1
SMALL
NO_CHARGES
****
Generated from CSD

@<TRIPOS>ATOM
      1 N1        13.8215    4.5682    3.4656 N.am      1 RES1    0.0000
      2 C1        13.6338    5.9088    2.8532 C.2       1 RES1    0.0000
      3 O1        12.7989    6.0241    1.9859 O.2       1 RES1    0.0000
      4 N2        14.4704    6.8368    3.3028 N.am      1 RES1    0.0000
      5 N3        12.9985    4.0974    4.3931 N.2       1 RES1    0.0000
      6 O2        12.1901    4.9355    4.8214 O.2       1 RES1    0.0000
      7 C2        14.8299    3.6946    2.9511 C.ar      1 RES1    0.0000
      8 C3        15.0758    3.6556    1.5965 C.ar      1 RES1    0.0000
      9 C4        16.0723    2.8311    1.1045 C.ar      1 RES1    0.0000
     10 C5        16.8300    2.0355    1.9611 C.ar      1 RES1    0.0000
     11 C6        16.5550    2.0863    3.3146 C.ar      1 RES1    0.0000
     12 C7        15.5687    2.9091    3.8290 C.ar      1 RES1    0.0000
     13 C8        17.9221    1.1538    1.4301 C.3       1 RES1    0.0000
     14 C9        14.5326    8.1340    2.5653 C.3       1 RES1    0.0000
     15 C10       13.2518    8.9331    2.6951 C.3       1 RES1    0.0000
     16 C11       14.9618    7.9290    1.1269 C.3       1 RES1    0.0000
     17 C12       15.3905    6.6382    4.4473 C.3       1 RES1    0.0000
     18 C13       16.8223    6.5239    3.9836 C.3       1 RES1    0.0000
     19 C14       15.1726    7.7294    5.4963 C.3       1 RES1    0.0000
     20 H1        14.5525    4.2089    0.9558 H         1 RES1    0.0000
     21 H2        16.2307    2.7757    0.1652 H         1 RES1    0.0000
     22 H3        17.1144    1.5693    3.9529 H         1 RES1    0.0000
     23 H4        15.4059    2.9662    4.8143 H         1 RES1    0.0000
     24 H5        17.8371    0.9706    0.5546 H         1 RES1    0.0000
     25 H6        18.0340    0.3266    1.9588 H         1 RES1    0.0000
     26 H7        18.7980    1.5421    1.5340 H         1 RES1    0.0000
     27 H8        15.2785    8.5902    3.0325 H         1 RES1    0.0000
     28 H9        12.4822    8.5540    2.2302 H         1 RES1    0.0000
     29 H10       13.0125    9.0166    3.6107 H         1 RES1    0.0000
     30 H11       13.4069    9.7332    2.3246 H         1 RES1    0.0000
     31 H12       14.3030    7.4654    0.5900 H         1 RES1    0.0000
     32 H13       15.8495    7.4473    1.0974 H         1 RES1    0.0000
     33 H14       15.0623    8.7263    0.6608 H         1 RES1    0.0000
     34 H15       15.1400    5.7419    4.8851 H         1 RES1    0.0000
     35 H16       16.9183    5.9143    3.2685 H         1 RES1    0.0000
     36 H17       17.1441    7.3475    3.5281 H         1 RES1    0.0000
     37 H18       17.2689    6.3860    4.6373 H         1 RES1    0.0000
     38 H19       15.7672    7.4926    6.2657 H         1 RES1    0.0000
     39 H20       14.1675    7.7920    5.6993 H         1 RES1    0.0000
     40 H21       15.4195    8.5358    5.1919 H         1 RES1    0.0000
@<TRIPOS>BOND
     1    1    2 1
     2    2    3 2
     3    4    2 1
     4    5    1 1
     5    6    5 2
     6    7    1 1
     7    8    7 ar
     8    9    8 ar
     9   10    9 ar
    10   11   10 ar
    11   12    7 ar
    12   13   10 1
    13   14    4 1
    14   15   14 1
    15   16   14 1
    16   17    4 1
    17   18   17 1
    18   19   17 1
    19   20    8 1
    20   21    9 1
    21   22   11 1
    22   23   12 1
    23   24   13 1
    24   25   13 1
    25   26   13 1
    26   27   14 1
    27   28   15 1
    28   29   15 1
    29   30   15 1
    30   31   16 1
    31   32   16 1
    32   33   16 1
    33   34   17 1
    34   35   18 1
    35   36   18 1
    36   37   18 1
    37   38   19 1
    38   39   19 1
    39   40   19 1
    40   11   12 ar
@<TRIPOS>SUBSTRUCTURE
     1 RES1 1

@<TRIPOS>CRYSIN
  13.8540    9.0710   11.8080  90.0000  92.1400  90.0000  14 2

