# MOL2 file generated by ConQuest
# Please check atom types

@<TRIPOS>MOLECULE
VOXFET
    26    26     1
SMALL
NO_CHARGES
****
Generated from CSD

@<TRIPOS>ATOM
      1 N1        11.8481   11.1109   -1.4918 N.am      1 RES1    0.0000
      2 C1        11.8994    9.6806   -1.5609 C.2       1 RES1    0.0000
      3 O1        11.7058    9.0416   -0.5369 O.2       1 RES1    0.0000
      4 N2        12.1940    9.1640   -2.7355 N.am      1 RES1    0.0000
      5 N3        12.0645   11.7912   -2.6460 N.2       1 RES1    0.0000
      6 O2        12.0417   13.0038   -2.5229 O.2       1 RES1    0.0000
      7 C2        11.5991   11.7812   -0.2359 C.ar      1 RES1    0.0000
      8 C3        12.6380   12.0417    0.6183 C.ar      1 RES1    0.0000
      9 C4        12.3946   12.6366    1.8467 C.ar      1 RES1    0.0000
     10 C5        11.1010   12.9753    2.1894 C.ar      1 RES1    0.0000
     11 C6        10.0563   12.7519    1.2996 C.ar      1 RES1    0.0000
     12 C7        10.2983   12.1413    0.0854 C.ar      1 RES1    0.0000
     13 O3        10.7380   13.5375    3.3853 O.3       1 RES1    0.0000
     14 C8        11.7257   13.5987    4.4225 C.3       1 RES1    0.0000
     15 C9        12.2893    7.7351   -2.9165 C.3       1 RES1    0.0000
     16 H1        12.2680    9.6493   -3.3354 H         1 RES1    0.0000
     17 H2        13.4919   11.7414    0.3864 H         1 RES1    0.0000
     18 H3        13.1788   12.8800    2.3389 H         1 RES1    0.0000
     19 H4         9.1085   13.0080    1.5457 H         1 RES1    0.0000
     20 H5         9.5212   11.8980   -0.5390 H         1 RES1    0.0000
     21 H6        12.1541   12.7234    4.5862 H         1 RES1    0.0000
     22 H7        12.5099   14.0185    4.0879 H         1 RES1    0.0000
     23 H8        11.1437   13.9331    5.1964 H         1 RES1    0.0000
     24 H9        12.5384    7.5287   -3.7422 H         1 RES1    0.0000
     25 H10       13.0080    7.3152   -2.4101 H         1 RES1    0.0000
     26 H11       11.7129    7.2868   -2.5728 H         1 RES1    0.0000
@<TRIPOS>BOND
     1    1    2 1
     2    2    3 2
     3    4    2 1
     4    5    1 1
     5    6    5 2
     6    7    1 1
     7    8    7 ar
     8    9    8 ar
     9   10    9 ar
    10   11   10 ar
    11   12    7 ar
    12   13   10 1
    13   14   13 1
    14   15    4 1
    15   16    4 1
    16   17    8 1
    17   18    9 1
    18   19   11 1
    19   20   12 1
    20   21   14 1
    21   22   14 1
    22   23   14 1
    23   24   15 1
    24   25   15 1
    25   26   15 1
    26   11   12 ar
@<TRIPOS>SUBSTRUCTURE
     1 RES1 1

@<TRIPOS>CRYSIN
  14.2320   14.2320   10.1690  90.0000  90.0000  90.0000 114 1

