# MOL2 file generated by ConQuest
# Please check atom types

@<TRIPOS>MOLECULE
VOXNOL
    29    30     1
SMALL
NO_CHARGES
****
Generated from CSD

@<TRIPOS>ATOM
      1 C1         1.7863    3.8596    1.4048 C.2       1 RES1    0.0000
      2 C2         2.5377    4.7444    2.3739 C.3       1 RES1    0.0000
      3 H1         2.1914    4.5879    3.2560 H         1 RES1    0.0000
      4 H2         2.3845    5.6594    2.1279 H         1 RES1    0.0000
      5 O1         2.3599    2.9985    0.7710 O.2       1 RES1    0.0000
      6 C3         0.3108    4.0527    1.2826 C.ar      1 RES1    0.0000
      7 C4        -0.4167    3.1572    0.5040 C.ar      1 RES1    0.0000
      8 H3         0.0387    2.4526    0.0375 H         1 RES1    0.0000
      9 C5        -1.7895    3.2715    0.3983 C.ar      1 RES1    0.0000
     10 H4        -2.2852    2.6489   -0.1380 H         1 RES1    0.0000
     11 C6        -2.4416    4.2826    1.0636 C.ar      1 RES1    0.0000
     12 H5        -3.3975    4.3494    1.0066 H         1 RES1    0.0000
     13 C7        -1.7395    5.1997    1.8099 C.ar      1 RES1    0.0000
     14 H6        -2.2000    5.9172    2.2509 H         1 RES1    0.0000
     15 C8        -0.3588    5.0810    1.9246 C.ar      1 RES1    0.0000
     16 H7         0.1323    5.7165    2.4504 H         1 RES1    0.0000
     17 C9         4.0238    4.5048    2.3987 C.ar      1 RES1    0.0000
     18 C10        4.8792    5.3443    1.7184 C.ar      1 RES1    0.0000
     19 H8         4.5185    6.0705    1.2046 H         1 RES1    0.0000
     20 C11        6.2481    5.1565    1.7656 C.ar      1 RES1    0.0000
     21 H9         6.8377    5.7414    1.2848 H         1 RES1    0.0000
     22 C12        6.7436    4.1261    2.5059 C.ar      1 RES1    0.0000
     23 C13        5.9292    3.2726    3.1810 C.ar      1 RES1    0.0000
     24 H10        6.2982    2.5486    3.6910 H         1 RES1    0.0000
     25 C14        4.5603    3.4593    3.1224 C.ar      1 RES1    0.0000
     26 H11        3.9782    2.8572    3.5912 H         1 RES1    0.0000
     27 N1         8.2037    3.9513    2.5974 N.pl3     1 RES1    0.0000
     28 O2         8.6351    3.0903    3.3362 O.2       1 RES1    0.0000
     29 O3         8.9015    4.7131    1.9426 O.2       1 RES1    0.0000
@<TRIPOS>BOND
     1    1    2 1
     2    2    3 1
     3    4    2 1
     4    5    1 2
     5    6    1 1
     6    7    6 ar
     7    8    7 1
     8    9    7 ar
     9   10    9 1
    10   11    9 ar
    11   12   11 1
    12   13   11 ar
    13   14   13 1
    14   15    6 ar
    15   16   15 1
    16   17    2 1
    17   18   17 ar
    18   19   18 1
    19   20   18 ar
    20   21   20 1
    21   22   20 ar
    22   23   22 ar
    23   24   23 1
    24   25   17 ar
    25   26   25 1
    26   27   22 1
    27   28   27 2
    28   29   27 2
    29   13   15 ar
    30   23   25 ar
@<TRIPOS>SUBSTRUCTURE
     1 RES1 1

@<TRIPOS>CRYSIN
  14.6620   10.7900    7.7490  90.0000 104.5500  90.0000  14 1

