# MOL2 file generated by ConQuest
# Please check atom types

@<TRIPOS>MOLECULE
VOZJOL
    35    37     1
SMALL
NO_CHARGES
****
Generated from CSD

@<TRIPOS>ATOM
      1 O1        -1.5747   -0.6065    6.4539 O.3       1 RES1    0.0000
      2 O2        -2.3482    2.0291    8.6454 O.2       1 RES1    0.0000
      3 O3         1.2603    2.6707    0.1586 O.2       1 RES1    0.0000
      4 O4         1.4413    0.5332    0.2383 O.2       1 RES1    0.0000
      5 N1         1.1128    1.6048    0.7245 N.pl3     1 RES1    0.0000
      6 C1        -2.0694   -1.2559    7.5811 C.ar      1 RES1    0.0000
      7 C2        -2.2001   -2.6124    7.6918 C.ar      1 RES1    0.0000
      8 H1        -1.9666   -3.1752    6.9904 H         1 RES1    0.0000
      9 C3        -2.6950   -3.1242    8.8909 C.ar      1 RES1    0.0000
     10 C4        -3.0397   -2.2604    9.9582 C.ar      1 RES1    0.0000
     11 C5        -2.9172   -0.8944    9.7919 C.ar      1 RES1    0.0000
     12 H2        -3.1600   -0.3140   10.4766 H         1 RES1    0.0000
     13 C6        -2.4264   -0.3951    8.5882 C.ar      1 RES1    0.0000
     14 C7        -2.1723    0.9518    8.1057 C.2       1 RES1    0.0000
     15 C8        -1.6012    0.7410    6.7380 C.2       1 RES1    0.0000
     16 C9        -1.1675    1.6992    5.9219 C.2       1 RES1    0.0000
     17 H3        -1.2614    2.5631    6.2520 H         1 RES1    0.0000
     18 C10       -0.5695    1.6134    4.5942 C.ar      1 RES1    0.0000
     19 C11       -0.2453    2.8126    3.9533 C.ar      1 RES1    0.0000
     20 H4        -0.4084    3.6215    4.3838 H         1 RES1    0.0000
     21 C12        0.3151    2.8135    2.6882 C.ar      1 RES1    0.0000
     22 H5         0.5340    3.6103    2.2631 H         1 RES1    0.0000
     23 C13        0.5378    1.6024    2.0764 C.ar      1 RES1    0.0000
     24 C14        0.2379    0.4010    2.6704 C.ar      1 RES1    0.0000
     25 H6         0.4057   -0.4017    2.2308 H         1 RES1    0.0000
     26 C15       -0.3187    0.4106    3.9397 C.ar      1 RES1    0.0000
     27 H7        -0.5270   -0.3937    4.3575 H         1 RES1    0.0000
     28 C16       -2.8577   -4.6107    9.0262 C.3       1 RES1    0.0000
     29 H8        -2.6349   -5.0338    8.1943 H         1 RES1    0.0000
     30 H9        -3.7676   -4.8138    9.2547 H         1 RES1    0.0000
     31 H10       -2.2750   -4.9349    9.7166 H         1 RES1    0.0000
     32 C17       -3.5475   -2.8001   11.2650 C.3       1 RES1    0.0000
     33 H11       -3.7075   -2.0722   11.8708 H         1 RES1    0.0000
     34 H12       -2.8932   -3.3936   11.6423 H         1 RES1    0.0000
     35 H13       -4.3661   -3.2788   11.1169 H         1 RES1    0.0000
@<TRIPOS>BOND
     1    1    6 1
     2    2   14 2
     3    3    5 2
     4    4    5 2
     5    5   23 1
     6    6    7 ar
     7    7    8 1
     8    9    7 ar
     9   10    9 ar
    10   11   10 ar
    11   12   11 1
    12   13    6 ar
    13   14   13 1
    14   15    1 1
    15   16   15 2
    16   17   16 1
    17   18   16 1
    18   19   18 ar
    19   20   19 1
    20   21   19 ar
    21   22   21 1
    22   23   21 ar
    23   24   23 ar
    24   25   24 1
    25   26   18 ar
    26   27   26 1
    27   28    9 1
    28   29   28 1
    29   30   28 1
    30   31   28 1
    31   32   10 1
    32   33   32 1
    33   34   32 1
    34   35   32 1
    35   11   13 ar
    36   14   15 1
    37   24   26 ar
@<TRIPOS>SUBSTRUCTURE
     1 RES1 1

@<TRIPOS>CRYSIN
   7.5257   15.9397   13.5106  90.0000 117.6490  90.0000  14 1

