# MOL2 file generated by ConQuest
# Please check atom types

@<TRIPOS>MOLECULE
VUBZUN
    16    16     1
SMALL
NO_CHARGES
****
Generated from CSD

@<TRIPOS>ATOM
      1 N1         5.3539    1.9812    2.7903 N.3       1 RES1    0.0000
      2 N2         4.5373    2.6370    3.6542 N.pl3     1 RES1    0.0000
      3 O1         4.3361    2.1100    4.7523 O.2       1 RES1    0.0000
      4 O2         4.0295    3.6910    3.2539 O.2       1 RES1    0.0000
      5 C1         6.1768    2.7339    1.8061 C.3       1 RES1    0.0000
      6 C2         7.2957    1.7151    2.0805 C.3       1 RES1    0.0000
      7 O3         7.3692    0.8655    0.9117 O.3       1 RES1    0.0000
      8 N3         8.3167   -0.1799    1.0773 N.pl3     1 RES1    0.0000
      9 O4         8.4370   -0.8378    0.0754 O.2       1 RES1    0.0000
     10 O5         8.8415   -0.2928    2.1518 O.2       1 RES1    0.0000
     11 C3         6.4866    1.1232    3.2447 C.3       1 RES1    0.0000
     12 H1         8.1985    2.0334    2.2985 H         1 RES1    0.0000
     13 H2         6.7858    1.3733    4.1443 H         1 RES1    0.0000
     14 H3         6.4334    3.6250    2.1397 H         1 RES1    0.0000
     15 H4         5.7967    2.7243    0.9186 H         1 RES1    0.0000
     16 H5         6.2332    0.1224    3.1394 H         1 RES1    0.0000
@<TRIPOS>BOND
     1    1    2 1
     2    2    3 2
     3    4    2 2
     4    5    1 1
     5    6    5 1
     6    7    6 1
     7    8    7 1
     8    9    8 2
     9   10    8 2
    10   11    1 1
    11   12    6 1
    12   13   11 1
    13   14    5 1
    14   15    5 1
    15   16   11 1
    16    6   11 1
@<TRIPOS>SUBSTRUCTURE
     1 RES1 1

@<TRIPOS>CRYSIN
  10.6460   10.6460    5.7520  90.0000  90.0000  90.0000  76 1

