# MOL2 file generated by ConQuest
# Please check atom types

@<TRIPOS>MOLECULE
VUGVUQ
    39    40     1
SMALL
NO_CHARGES
****
Generated from CSD

@<TRIPOS>ATOM
      1 O1         8.3041    2.2958    3.5905 O.2       1 RES1    0.0000
      2 O2         6.1637   -1.0675    6.0777 O.2       1 RES1    0.0000
      3 O3        10.7336    8.6882    9.0949 O.2       1 RES1    0.0000
      4 O4        10.4757    7.9031   11.0563 O.2       1 RES1    0.0000
      5 N1        10.3883    7.8090    9.8455 N.pl3     1 RES1    0.0000
      6 C1         7.6182    1.2884    3.6504 C.2       1 RES1    0.0000
      7 C2         7.2191    0.5670    2.4363 C.3       1 RES1    0.0000
      8 C3         7.1909   -0.9493    2.5915 C.3       1 RES1    0.0000
      9 C4         6.2329   -1.2771    3.7216 C.3       1 RES1    0.0000
     10 C5         6.5207   -0.5861    5.0165 C.2       1 RES1    0.0000
     11 C6         7.1965    0.7433    4.9816 C.2       1 RES1    0.0000
     12 C7         7.3903    1.3613    6.1466 C.2       1 RES1    0.0000
     13 C8         8.0198    2.6249    6.4521 C.2       1 RES1    0.0000
     14 C9         8.1546    3.0157    7.7148 C.2       1 RES1    0.0000
     15 C10        8.7546    4.2517    8.2290 C.ar      1 RES1    0.0000
     16 C11        9.2731    5.2506    7.4068 C.ar      1 RES1    0.0000
     17 C12        9.8066    6.4030    7.9367 C.ar      1 RES1    0.0000
     18 C13        9.8254    6.5708    9.3010 C.ar      1 RES1    0.0000
     19 C14        9.3386    5.6024   10.1548 C.ar      1 RES1    0.0000
     20 C15        8.8069    4.4584    9.6048 C.ar      1 RES1    0.0000
     21 C16        8.5910   -1.4583    2.9068 C.3       1 RES1    0.0000
     22 C17        6.6979   -1.5956    1.2998 C.3       1 RES1    0.0000
     23 H1         7.8348    0.7957    1.7218 H         1 RES1    0.0000
     24 H2         6.3361    0.8693    2.1712 H         1 RES1    0.0000
     25 H3         5.3342   -1.0428    3.4403 H         1 RES1    0.0000
     26 H4         6.2507   -2.2349    3.8735 H         1 RES1    0.0000
     27 H5         9.2582    5.1366    6.4845 H         1 RES1    0.0000
     28 H6        10.1512    7.0614    7.3785 H         1 RES1    0.0000
     29 H7         9.3684    5.7192   11.0774 H         1 RES1    0.0000
     30 H8         8.4689    3.8022   10.1705 H         1 RES1    0.0000
     31 H9         8.9168   -1.0279    3.7006 H         1 RES1    0.0000
     32 H10        9.1761   -1.2594    2.1712 H         1 RES1    0.0000
     33 H11        8.5619   -2.4076    3.0458 H         1 RES1    0.0000
     34 H12        6.6927   -2.5506    1.4017 H         1 RES1    0.0000
     35 H13        7.2814   -1.3535    0.5772 H         1 RES1    0.0000
     36 H14        5.8077   -1.2898    1.1074 H         1 RES1    0.0000
     37 H15        7.9309    2.4918    8.4067 H         1 RES1    0.0000
     38 H16        8.3635    3.1644    5.6584 H         1 RES1    0.0000
     39 H17        7.1164    0.9203    6.9582 H         1 RES1    0.0000
@<TRIPOS>BOND
     1    1    6 2
     2    2   10 2
     3    3    5 2
     4    4    5 2
     5    5   18 1
     6    6    7 1
     7    7    8 1
     8    8    9 1
     9    9   10 1
    10   10   11 1
    11   11    6 1
    12   12   11 2
    13   13   12 1
    14   14   13 2
    15   15   14 1
    16   16   15 ar
    17   17   16 ar
    18   18   17 ar
    19   19   18 ar
    20   20   15 ar
    21   21    8 1
    22   22    8 1
    23   23    7 1
    24   24    7 1
    25   25    9 1
    26   26    9 1
    27   27   16 1
    28   28   17 1
    29   29   19 1
    30   30   20 1
    31   31   21 1
    32   32   21 1
    33   33   21 1
    34   34   22 1
    35   35   22 1
    36   36   22 1
    37   37   14 1
    38   38   13 1
    39   39   12 1
    40   19   20 ar
@<TRIPOS>SUBSTRUCTURE
     1 RES1 1

@<TRIPOS>CRYSIN
  13.4980    7.0791   16.1717  90.0000  91.4200  90.0000 231 1

