# MOL2 file generated by ConQuest
# Please check atom types

@<TRIPOS>MOLECULE
VUHNAN
    47    50     1
SMALL
NO_CHARGES
****
Generated from CSD

@<TRIPOS>ATOM
      1 O1        -1.5833    9.5110    6.8228 O.3       1 RES1    0.0000
      2 O2         0.0085   11.6908    6.4245 O.3       1 RES1    0.0000
      3 O3         1.5555   12.9329    7.5053 O.2       1 RES1    0.0000
      4 O4        -4.0128   15.8853    4.3160 O.2       1 RES1    0.0000
      5 O5        -3.4947   13.8429    3.9007 O.2       1 RES1    0.0000
      6 O6         0.6428   17.6891    7.9566 O.2       1 RES1    0.0000
      7 O7        -1.0047   18.6050    6.9168 O.2       1 RES1    0.0000
      8 N1        -3.2986   14.9065    4.4351 N.pl3     1 RES1    0.0000
      9 N2        -0.3099   17.6482    7.2170 N.pl3     1 RES1    0.0000
     10 C1        -2.6570   10.1825    7.4622 C.3       1 RES1    0.0000
     11 C2        -2.3435   10.1357    8.9212 C.3       1 RES1    0.0000
     12 C3        -0.8377   10.2849    8.9232 C.3       1 RES1    0.0000
     13 C4        -0.3886    9.6251    7.6083 C.3       1 RES1    0.0000
     14 C5         0.1767    8.1928    7.8175 C.3       1 RES1    0.0000
     15 C6         1.5966    8.2118    8.3889 C.3       1 RES1    0.0000
     16 C7         2.5312    8.2689    7.1650 C.3       1 RES1    0.0000
     17 C8         1.5942    8.3025    5.9452 C.3       1 RES1    0.0000
     18 C9         1.1451    9.7377    5.5839 C.3       1 RES1    0.0000
     19 C10        0.6404   10.4341    6.8268 C.3       1 RES1    0.0000
     20 C11        0.3849    7.5388    6.4565 C.3       1 RES1    0.0000
     21 C12        0.5544   12.8232    6.8528 C.2       1 RES1    0.0000
     22 C13       -0.2615   14.0126    6.4095 C.ar      1 RES1    0.0000
     23 C14       -1.3775   13.8809    5.5979 C.ar      1 RES1    0.0000
     24 C15       -2.0966   15.0367    5.2947 C.ar      1 RES1    0.0000
     25 C16       -1.7770   16.2642    5.8041 C.ar      1 RES1    0.0000
     26 C17       -0.6706   16.3388    6.6096 C.ar      1 RES1    0.0000
     27 C18        0.1102   15.2459    6.9138 C.ar      1 RES1    0.0000
     28 H1        -2.7115   11.0749    7.1650 H         1 RES1    0.0000
     29 H2        -3.4741    9.7436    7.2751 H         1 RES1    0.0000
     30 H3        -2.6026    9.3047    9.3065 H         1 RES1    0.0000
     31 H4        -2.7599   10.8555    9.3966 H         1 RES1    0.0000
     32 H5        -0.4358    9.8460    9.6668 H         1 RES1    0.0000
     33 H6        -0.5931   11.2066    8.9363 H         1 RES1    0.0000
     34 H7        -0.4237    7.7100    8.3659 H         1 RES1    0.0000
     35 H8         1.7068    8.9975    8.9162 H         1 RES1    0.0000
     36 H9         1.7794    7.4467    8.9162 H         1 RES1    0.0000
     37 H10        3.0868    7.5052    7.1450 H         1 RES1    0.0000
     38 H11        3.0747    9.0560    7.1750 H         1 RES1    0.0000
     39 H12        2.0336    7.9295    5.1936 H         1 RES1    0.0000
     40 H13        0.4479    9.6851    4.9335 H         1 RES1    0.0000
     41 H14        1.8763   10.2264    5.2337 H         1 RES1    0.0000
     42 H15        1.4042   10.5482    7.3752 H         1 RES1    0.0000
     43 H16       -0.3631    7.7100    5.8941 H         1 RES1    0.0000
     44 H17        0.5326    6.5981    6.5146 H         1 RES1    0.0000
     45 H18       -1.6463   13.0353    5.2637 H         1 RES1    0.0000
     46 H19       -2.2999   17.0293    5.5939 H         1 RES1    0.0000
     47 H20        0.8837   15.3469    7.4552 H         1 RES1    0.0000
@<TRIPOS>BOND
     1    1   10 1
     2    2   19 1
     3    3   21 2
     4    4    8 2
     5    5    8 2
     6    6    9 2
     7    7    9 2
     8    8   24 1
     9    9   26 1
    10   10   11 1
    11   11   12 1
    12   12   13 1
    13   13    1 1
    14   14   13 1
    15   15   14 1
    16   16   15 1
    17   17   16 1
    18   18   17 1
    19   19   13 1
    20   20   14 1
    21   21    2 1
    22   22   21 1
    23   23   22 ar
    24   24   23 ar
    25   25   24 ar
    26   26   25 ar
    27   27   22 ar
    28   28   10 1
    29   29   10 1
    30   30   11 1
    31   31   11 1
    32   32   12 1
    33   33   12 1
    34   34   14 1
    35   35   15 1
    36   36   15 1
    37   37   16 1
    38   38   16 1
    39   39   17 1
    40   40   18 1
    41   41   18 1
    42   42   19 1
    43   43   20 1
    44   44   20 1
    45   45   23 1
    46   46   25 1
    47   47   27 1
    48   17   20 1
    49   18   19 1
    50   26   27 ar
@<TRIPOS>SUBSTRUCTURE
     1 RES1 1

@<TRIPOS>CRYSIN
  12.1050   14.6300   10.0070  90.0000  90.0000  90.0000  29 1

