# MOL2 file generated by ConQuest
# Please check atom types

@<TRIPOS>MOLECULE
VUHPOD
    58    62     1
SMALL
NO_CHARGES
****
Generated from CSD

@<TRIPOS>ATOM
      1 O1         3.0615    1.5455    5.7112 O.3       1 RES1    0.0000
      2 O2         4.3121    4.7975    4.7084 O.3       1 RES1    0.0000
      3 O3         5.0824    2.8532    2.4801 O.3       1 RES1    0.0000
      4 O4         5.2300    0.6473    2.1038 O.2       1 RES1    0.0000
      5 O5         5.7569    5.8614   -1.3500 O.2       1 RES1    0.0000
      6 O6         5.9046    5.0366   -3.3238 O.2       1 RES1    0.0000
      7 O7         4.4412   -0.8852   -2.4233 O.2       1 RES1    0.0000
      8 O8         4.9012    0.3811   -4.0790 O.2       1 RES1    0.0000
      9 N1         5.7200    4.9253   -2.1190 N.pl3     1 RES1    0.0000
     10 N2         4.7676    0.1799   -2.8950 N.pl3     1 RES1    0.0000
     11 C1         1.9426    1.3065    6.5342 C.3       1 RES1    0.0000
     12 C2         1.4438    2.5952    6.9892 C.3       1 RES1    0.0000
     13 C3         2.4856    3.6437    6.6974 C.3       1 RES1    0.0000
     14 C4         3.6109    2.8555    5.9878 C.3       1 RES1    0.0000
     15 C5         4.7746    2.6674    6.9892 C.3       1 RES1    0.0000
     16 C6         5.4690    3.9774    7.4056 C.3       1 RES1    0.0000
     17 C7         6.8299    3.9833    6.7361 C.3       1 RES1    0.0000
     18 C8         6.8889    2.7431    5.8343 C.3       1 RES1    0.0000
     19 C9         6.5129    3.0378    4.3750 C.3       1 RES1    0.0000
     20 C10        5.1099    2.6413    3.9448 C.3       1 RES1    0.0000
     21 C11        3.9473    3.4259    4.5742 C.3       1 RES1    0.0000
     22 C12        2.7089    3.4200    3.6696 C.3       1 RES1    0.0000
     23 C13        2.7646    4.7585    2.9337 C.3       1 RES1    0.0000
     24 C14        3.6431    5.5785    3.7858 C.3       1 RES1    0.0000
     25 C15        5.9295    1.7775    6.5134 C.3       1 RES1    0.0000
     26 C16        5.1790    1.7834    1.7138 C.2       1 RES1    0.0000
     27 C17        5.1825    2.1076    0.2559 C.ar      1 RES1    0.0000
     28 C18        5.4049    3.3964   -0.2255 C.ar      1 RES1    0.0000
     29 C19        5.4383    3.5810   -1.5962 C.ar      1 RES1    0.0000
     30 C20        5.2492    2.5644   -2.5008 C.ar      1 RES1    0.0000
     31 C21        5.0033    1.3171   -1.9683 C.ar      1 RES1    0.0000
     32 C22        4.9932    1.0651   -0.6224 C.ar      1 RES1    0.0000
     33 H1         1.2860    0.8047    6.0584 H         1 RES1    0.0000
     34 H2         2.2203    0.8165    7.3032 H         1 RES1    0.0000
     35 H3         0.6639    2.7928    6.4871 H         1 RES1    0.0000
     36 H4         1.2347    2.5798    7.9118 H         1 RES1    0.0000
     37 H5         2.1504    4.3312    6.1275 H         1 RES1    0.0000
     38 H6         2.7923    4.0354    7.5107 H         1 RES1    0.0000
     39 H7         4.3299    2.2603    7.7182 H         1 RES1    0.0000
     40 H8         4.9593    4.7099    7.0819 H         1 RES1    0.0000
     41 H9         5.5544    4.0354    8.3544 H         1 RES1    0.0000
     42 H10        6.9418    4.7573    6.1967 H         1 RES1    0.0000
     43 H11        7.5093    3.9526    7.4000 H         1 RES1    0.0000
     44 H12        7.7699    2.3786    5.7679 H         1 RES1    0.0000
     45 H13        7.1307    2.5916    3.8038 H         1 RES1    0.0000
     46 H14        6.5836    3.9762    4.2464 H         1 RES1    0.0000
     47 H15        4.9742    1.7514    4.2464 H         1 RES1    0.0000
     48 H16        2.7436    2.6982    3.0568 H         1 RES1    0.0000
     49 H17        1.9188    3.3609    4.1911 H         1 RES1    0.0000
     50 H18        1.8991    5.1478    2.8632 H         1 RES1    0.0000
     51 H19        3.1344    4.6508    2.0609 H         1 RES1    0.0000
     52 H20        3.1225    6.2365    4.2326 H         1 RES1    0.0000
     53 H21        4.2750    6.0117    3.2228 H         1 RES1    0.0000
     54 H22        5.6127    1.1242    5.8924 H         1 RES1    0.0000
     55 H23        6.3491    1.3372    7.2479 H         1 RES1    0.0000
     56 H24        5.5410    4.1301    0.3735 H         1 RES1    0.0000
     57 H25        5.3007    2.6982   -3.4441 H         1 RES1    0.0000
     58 H26        4.8767    0.1775   -0.3043 H         1 RES1    0.0000
@<TRIPOS>BOND
     1    1   11 1
     2    2   21 1
     3    3   20 1
     4    4   26 2
     5    5    9 2
     6    6    9 2
     7    7   10 2
     8    8   10 2
     9    9   29 1
    10   10   31 1
    11   11   12 1
    12   12   13 1
    13   13   14 1
    14   14    1 1
    15   15   14 1
    16   16   15 1
    17   17   16 1
    18   18   17 1
    19   19   18 1
    20   20   19 1
    21   21   14 1
    22   22   21 1
    23   23   22 1
    24   24    2 1
    25   25   15 1
    26   26    3 1
    27   27   26 1
    28   28   27 ar
    29   29   28 ar
    30   30   29 ar
    31   31   30 ar
    32   32   27 ar
    33   33   11 1
    34   34   11 1
    35   35   12 1
    36   36   12 1
    37   37   13 1
    38   38   13 1
    39   39   15 1
    40   40   16 1
    41   41   16 1
    42   42   17 1
    43   43   17 1
    44   44   18 1
    45   45   19 1
    46   46   19 1
    47   47   20 1
    48   48   22 1
    49   49   22 1
    50   50   23 1
    51   51   23 1
    52   52   24 1
    53   53   24 1
    54   54   25 1
    55   55   25 1
    56   56   28 1
    57   57   30 1
    58   58   32 1
    59   18   25 1
    60   20   21 1
    61   23   24 1
    62   31   32 ar
@<TRIPOS>SUBSTRUCTURE
     1 RES1 1

@<TRIPOS>CRYSIN
  12.8750   11.8340   14.0070  90.0000  99.0700  90.0000 231 1

