# MOL2 file generated by ConQuest
# Please check atom types

@<TRIPOS>MOLECULE
VUJLAO
    29    31     1
SMALL
NO_CHARGES
****
Generated from CSD

@<TRIPOS>ATOM
      1 O1        -0.9180    6.4347    1.7182 O.3       1 RES1    0.0000
      2 N1         0.0585   11.0259    2.3916 N.ar      1 RES1    0.0000
      3 N2        -1.6291   10.4401    0.8214 N.ar      1 RES1    0.0000
      4 C1        -0.3165    8.7351    1.8844 C.ar      1 RES1    0.0000
      5 N3        -0.3410    5.1528    1.6378 N.2       1 RES1    0.0000
      6 C2         1.0952    8.4688    4.6520 C.ar      1 RES1    0.0000
      7 H1         0.3658    7.8976    4.5640 H         1 RES1    0.0000
      8 C3         3.2776   10.1506    4.9186 C.ar      1 RES1    0.0000
      9 H2         4.0224   10.7025    4.9984 H         1 RES1    0.0000
     10 C4         1.8821    4.1807    1.6979 C.3       1 RES1    0.0000
     11 H3         1.3947    3.3597    1.7958 H         1 RES1    0.0000
     12 H4         2.5242    4.2572    2.4074 H         1 RES1    0.0000
     13 H5         2.3374    4.1846    0.8536 H         1 RES1    0.0000
     14 C5        -1.3220    9.1659    1.0202 C.ar      1 RES1    0.0000
     15 H6        -1.8054    8.5211    0.5554 H         1 RES1    0.0000
     16 C6         0.0718    7.3312    1.8878 C.2       1 RES1    0.0000
     17 C7         1.2997    9.4855    3.7240 C.ar      1 RES1    0.0000
     18 C8         0.3263    9.7372    2.6295 C.ar      1 RES1    0.0000
     19 C9         3.0653    9.1476    5.8317 C.ar      1 RES1    0.0000
     20 H7         3.6563    9.0333    6.5413 H         1 RES1    0.0000
     21 C10        0.9338    5.3328    1.7578 C.2       1 RES1    0.0000
     22 C11        2.3826   10.3404    3.8809 C.ar      1 RES1    0.0000
     23 H8         2.5076   11.0433    3.2847 H         1 RES1    0.0000
     24 C12        1.2517    6.6990    1.9384 C.2       1 RES1    0.0000
     25 H9         2.0929    7.0746    2.0638 H         1 RES1    0.0000
     26 C13        1.9756    8.3072    5.7016 C.ar      1 RES1    0.0000
     27 H10        1.8356    7.6304    6.3231 H         1 RES1    0.0000
     28 C14       -0.8817   11.3037    1.4950 C.ar      1 RES1    0.0000
     29 H11       -1.0326   12.2051    1.3204 H         1 RES1    0.0000
@<TRIPOS>BOND
     1    1    5 1
     2    2   18 ar
     3    3   14 ar
     4    4   14 ar
     5    5   21 2
     6    6    7 1
     7    8    9 1
     8   10   11 1
     9   12   10 1
    10   13   10 1
    11   14   15 1
    12   16    1 1
    13   17    6 ar
    14   18    4 ar
    15   19    8 ar
    16   20   19 1
    17   21   10 1
    18   22    8 ar
    19   23   22 1
    20   24   16 2
    21   25   24 1
    22   26    6 ar
    23   27   26 1
    24   28    2 ar
    25   29   28 1
    26    3   28 ar
    27    4   16 1
    28   17   18 1
    29   17   22 ar
    30   19   26 ar
    31   21   24 1
@<TRIPOS>SUBSTRUCTURE
     1 RES1 1

@<TRIPOS>CRYSIN
   5.6130    9.6820   21.6290  90.0000  92.4030  90.0000 231 1

