# MOL2 file generated by ConQuest
# Please check atom types

@<TRIPOS>MOLECULE
VUJTEZ
    29    30     1
SMALL
NO_CHARGES
****
Generated from CSD

@<TRIPOS>ATOM
      1 O1        -2.3047    0.5275    6.9025 O.2       1 RES1    0.0000
      2 O2        -1.0153    1.4524    8.4744 O.3       1 RES1    0.0000
      3 O3        -5.4907    2.9394   12.0484 O.3       1 RES1    0.0000
      4 N1        -4.6736    2.4727   13.0807 N.2       1 RES1    0.0000
      5 C1        -3.0901    0.5444    9.1459 C.ar      1 RES1    0.0000
      6 C2        -2.9697    1.1207   10.4057 C.ar      1 RES1    0.0000
      7 C3        -3.9489    0.8948   11.3631 C.ar      1 RES1    0.0000
      8 C4        -5.0274    0.0693   11.0578 C.ar      1 RES1    0.0000
      9 C5        -5.1381   -0.5163    9.8091 C.ar      1 RES1    0.0000
     10 C6        -4.1716   -0.2727    8.8476 C.ar      1 RES1    0.0000
     11 C7        -2.1021    0.8274    8.0679 C.2       1 RES1    0.0000
     12 C8        -3.8870    1.5226   12.7213 C.2       1 RES1    0.0000
     13 C9        -2.9590    1.0195   13.7550 C.ar      1 RES1    0.0000
     14 C10       -2.5103    1.8590   14.7817 C.ar      1 RES1    0.0000
     15 C11       -1.7370    1.3540   15.8070 C.ar      1 RES1    0.0000
     16 C12       -1.3947    0.0169   15.8250 C.ar      1 RES1    0.0000
     17 C13       -1.7976   -0.8105   14.7997 C.ar      1 RES1    0.0000
     18 C14       -2.5659   -0.3120   13.7605 C.ar      1 RES1    0.0000
     19 H1        -2.2362    1.7053   10.5861 H         1 RES1    0.0000
     20 H2        -5.7148   -0.0562   11.7238 H         1 RES1    0.0000
     21 H3        -5.8877   -1.1057    9.6149 H         1 RES1    0.0000
     22 H4        -4.2609   -0.6559    7.9500 H         1 RES1    0.0000
     23 H5        -2.7686    2.7923   14.7484 H         1 RES1    0.0000
     24 H6        -1.4460    1.9209   16.4965 H         1 RES1    0.0000
     25 H7        -0.8795   -0.3561   16.5520 H         1 RES1    0.0000
     26 H8        -1.5492   -1.7334   14.7484 H         1 RES1    0.0000
     27 H9        -2.8448   -0.8901   13.0141 H         1 RES1    0.0000
     28 H10       -0.5468    1.6866    7.6725 H         1 RES1    0.0000
     29 H11       -6.0179    3.5606   12.5146 H         1 RES1    0.0000
@<TRIPOS>BOND
     1    1   11 2
     2    2   11 1
     3    3    4 1
     4    4   12 2
     5    5    6 ar
     6    6    7 ar
     7    7    8 ar
     8    8    9 ar
     9    9   10 ar
    10   10    5 ar
    11   11    5 1
    12   12    7 1
    13   13   12 1
    14   14   13 ar
    15   15   14 ar
    16   16   15 ar
    17   17   16 ar
    18   18   13 ar
    19   19    6 1
    20   20    8 1
    21   21    9 1
    22   22   10 1
    23   23   14 1
    24   24   15 1
    25   25   16 1
    26   26   17 1
    27   27   18 1
    28   28    2 1
    29   29    3 1
    30   17   18 ar
@<TRIPOS>SUBSTRUCTURE
     1 RES1 1

@<TRIPOS>CRYSIN
   9.1690    9.3700   13.8830  90.0000  92.0280  90.0000 231 1

