# MOL2 file generated by ConQuest
# Please check atom types

@<TRIPOS>MOLECULE
VUJTAV
    25    22     2
SMALL
NO_CHARGES
****
Generated from CSD

@<TRIPOS>ATOM
      1 N1         0.7258    8.0636   -4.7805 N.2       1 RES1    0.0000
      2 O1         0.6966    7.0099   -5.7155 O.3       1 RES1    0.0000
      3 O2         0.7808   12.9467    0.2046 O.2       1 RES1    0.0000
      4 O3         0.7173   11.3343    1.7478 O.3       1 RES1    0.0000
      5 C1         0.7294   10.6812   -0.5171 C.ar      1 RES1    0.0000
      6 C2         0.4189   11.0133   -1.8365 C.ar      1 RES1    0.0000
      7 C3         0.3990   10.0315   -2.8144 C.ar      1 RES1    0.0000
      8 C4         0.7123    8.7104   -2.5148 C.ar      1 RES1    0.0000
      9 C5         1.0192    8.3870   -1.1905 C.ar      1 RES1    0.0000
     10 C6         1.0184    9.3645   -0.2062 C.ar      1 RES1    0.0000
     11 C7         0.7173    7.6507   -3.5619 C.2       1 RES1    0.0000
     12 C8         0.6880    6.2011   -3.1882 C.3       1 RES1    0.0000
     13 C9         0.7472   11.7626    0.4994 C.2       1 RES1    0.0000
     14 H1         0.6994    7.4644   -6.4601 H         1 RES1    0.0000
     15 H2         0.7422   12.1712    2.3521 H         1 RES1    0.0000
     16 H3         0.1356   11.9691   -2.0782 H         1 RES1    0.0000
     17 H4         0.1071   10.2510   -3.7375 H         1 RES1    0.0000
     18 H5         1.2418    7.4933   -0.9666 H         1 RES1    0.0000
     19 H6         1.2775    9.1537    0.6927 H         1 RES1    0.0000
     20 H7         0.7851    6.0062   -2.3359 H         1 RES1    0.0000
     21 H8         1.2490    5.7030   -3.8342 H         1 RES1    0.0000
     22 H9        -0.2569    5.7752   -3.3831 H         1 RES1    0.0000
     23 H10        0.5852    5.5875   -3.9792 Du        2 SUP2    0.0000
     24 H11       -0.1213    6.0640   -2.5454 Du        2 SUP2    0.0000
     25 H12        1.5273    6.0928   -2.5776 Du        2 SUP2    0.0000
@<TRIPOS>BOND
     1    1    2 1
     2    2   14 1
     3    3   13 2
     4    4   13 1
     5    5    6 ar
     6    6    7 ar
     7    7    8 ar
     8    8    9 ar
     9    9   10 ar
    10   10    5 ar
    11   11    1 2
    12   12   11 1
    13   13    5 1
    14   15    4 1
    15   16    6 1
    16   17    7 1
    17   18    9 1
    18   19   10 1
    19   20   12 1
    20   21   12 1
    21   22   12 1
    22    8   11 1
@<TRIPOS>SUBSTRUCTURE
     1 RES1 1
     2 SUP2 23

@<TRIPOS>CRYSIN
   7.1370   14.4380   16.1100  90.0000  90.0000  90.0000  61 1

