# MOL2 file generated by ConQuest
# Please check atom types

@<TRIPOS>MOLECULE
VUJVUR
    53    58     1
SMALL
NO_CHARGES
****
Generated from CSD

@<TRIPOS>ATOM
      1 O1        -4.5179   -2.1169    1.8673 O.2       1 RES1    0.0000
      2 O2        -3.4299   -1.8786    0.0143 O.2       1 RES1    0.0000
      3 N1        -3.6311   -1.6044    1.1850 N.pl3     1 RES1    0.0000
      4 N2        -0.2573    1.9647    3.7472 N.3       1 RES1    0.0000
      5 C1        -0.8991    0.8793    1.5946 C.ar      1 RES1    0.0000
      6 C2        -1.7817   -0.0136    1.0311 C.ar      1 RES1    0.0000
      7 C3        -2.7512   -0.6199    1.8164 C.ar      1 RES1    0.0000
      8 C4        -2.9006   -0.3582    3.1560 C.ar      1 RES1    0.0000
      9 C5        -2.0224    0.5419    3.7409 C.ar      1 RES1    0.0000
     10 C6        -1.8408    1.0317    5.0851 C.ar      1 RES1    0.0000
     11 C7        -2.5022    0.8144    6.2870 C.ar      1 RES1    0.0000
     12 C8        -2.0302    1.4523    7.4112 C.ar      1 RES1    0.0000
     13 C9        -0.9340    2.2925    7.3647 C.ar      1 RES1    0.0000
     14 C10       -0.2620    2.5310    6.1851 C.ar      1 RES1    0.0000
     15 C11       -0.7386    1.8947    5.0529 C.ar      1 RES1    0.0000
     16 C12       -1.0185    1.1401    2.9566 C.ar      1 RES1    0.0000
     17 N3         3.5526    3.8995    3.8411 N.3       1 RES1    0.0000
     18 C13        3.4437    5.1914    1.7001 C.ar      1 RES1    0.0000
     19 C14        3.4333    6.4925    1.1948 C.ar      1 RES1    0.0000
     20 C15        3.5059    7.5950    2.0238 C.ar      1 RES1    0.0000
     21 C16        3.5867    7.4594    3.3921 C.ar      1 RES1    0.0000
     22 C17        3.5799    6.1724    3.9377 C.ar      1 RES1    0.0000
     23 C18        3.6493    5.6642    5.2774 C.ar      1 RES1    0.0000
     24 C19        3.7426    6.2643    6.5339 C.ar      1 RES1    0.0000
     25 C20        3.8232    5.4660    7.6437 C.ar      1 RES1    0.0000
     26 C21        3.8012    4.0794    7.5266 C.ar      1 RES1    0.0000
     27 C22        3.7193    3.4475    6.3148 C.ar      1 RES1    0.0000
     28 C23        3.6302    4.2591    5.1736 C.ar      1 RES1    0.0000
     29 C24        3.5173    5.0543    3.0764 C.ar      1 RES1    0.0000
     30 C25        0.9467    2.6590    3.3501 C.3       1 RES1    0.0000
     31 C26        2.1792    1.8352    3.6694 C.3       1 RES1    0.0000
     32 C27        3.4850    2.5326    3.3322 C.3       1 RES1    0.0000
     33 H1        -0.2324    1.3349    1.0642 H         1 RES1    0.0000
     34 H2        -1.6290   -0.2387    0.0000 H         1 RES1    0.0000
     35 H3        -3.7324   -0.7179    3.6041 H         1 RES1    0.0000
     36 H4        -3.3222    0.1778    6.3407 H         1 RES1    0.0000
     37 H5        -2.4919    1.3099    8.2903 H         1 RES1    0.0000
     38 H6        -0.6210    2.7226    8.2098 H         1 RES1    0.0000
     39 H7         0.5208    3.1817    6.2155 H         1 RES1    0.0000
     40 H8         3.3941    4.4784    0.9927 H         1 RES1    0.0000
     41 H9         3.5473    6.5905    0.1967 H         1 RES1    0.0000
     42 H10        3.6272    8.4853    1.6455 H         1 RES1    0.0000
     43 H11        3.8318    8.3032    3.9797 H         1 RES1    0.0000
     44 H12        3.6957    7.2828    6.5732 H         1 RES1    0.0000
     45 H13        3.9149    5.8460    8.5497 H         1 RES1    0.0000
     46 H14        3.8644    3.5090    8.3887 H         1 RES1    0.0000
     47 H15        3.5370    2.4428    6.1976 H         1 RES1    0.0000
     48 H16        1.0141    3.5514    3.7830 H         1 RES1    0.0000
     49 H17        0.9479    2.7969    2.3342 H         1 RES1    0.0000
     50 H18        2.1720    0.8278    3.2106 H         1 RES1    0.0000
     51 H19        2.1441    1.7255    4.6952 H         1 RES1    0.0000
     52 H20        4.2773    1.9991    3.7651 H         1 RES1    0.0000
     53 H21        3.5505    2.5459    2.3073 H         1 RES1    0.0000
@<TRIPOS>BOND
     1    1    3 2
     2    2    3 2
     3    3    7 1
     4    4   15 1
     5    5    6 ar
     6    6    7 ar
     7    7    8 ar
     8    8    9 ar
     9    9   10 1
    10   10   11 ar
    11   11   12 ar
    12   12   13 ar
    13   13   14 ar
    14   14   15 ar
    15   15   10 ar
    16   16    4 1
    17   17   28 1
    18   18   19 ar
    19   19   20 ar
    20   20   21 ar
    21   21   22 ar
    22   22   23 1
    23   23   24 ar
    24   24   25 ar
    25   25   26 ar
    26   26   27 ar
    27   27   28 ar
    28   28   23 ar
    29   29   17 1
    30   30    4 1
    31   31   30 1
    32   32   17 1
    33   33    5 1
    34   34    6 1
    35   35    8 1
    36   36   11 1
    37   37   12 1
    38   38   13 1
    39   39   14 1
    40   40   18 1
    41   41   19 1
    42   42   20 1
    43   43   21 1
    44   44   24 1
    45   45   25 1
    46   46   26 1
    47   47   27 1
    48   48   30 1
    49   49   30 1
    50   50   31 1
    51   51   31 1
    52   52   32 1
    53   53   32 1
    54    5   16 ar
    55    9   16 ar
    56   18   29 ar
    57   22   29 ar
    58   31   32 1
@<TRIPOS>SUBSTRUCTURE
     1 RES1 1

@<TRIPOS>CRYSIN
  13.1193    8.8488    9.3648 100.3500 103.1600  92.6100   2 1

