# MOL2 file generated by ConQuest
# Please check atom types

@<TRIPOS>MOLECULE
VUJWEC
    36    37     1
SMALL
NO_CHARGES
****
Generated from CSD

@<TRIPOS>ATOM
      1 N1         2.0381    5.6259    3.8150 N.am      1 RES1    0.0000
      2 C1         2.3928    5.1174    5.1356 C.3       1 RES1    0.0000
      3 C2         3.7992    5.6765    5.3344 C.3       1 RES1    0.0000
      4 C3         4.4009    5.5369    3.9316 C.3       1 RES1    0.0000
      5 C4         3.2468    5.8272    2.9723 C.3       1 RES1    0.0000
      6 C5         3.2662    4.9217    1.7548 C.3       1 RES1    0.0000
      7 O1         2.3726    5.3169    0.7375 O.3       1 RES1    0.0000
      8 O2         2.5058    3.7222    5.1327 O.3       1 RES1    0.0000
      9 C6         1.3082    3.0349    5.1327 C.3       1 RES1    0.0000
     10 C7        -0.2174    6.3338    4.5104 C.ar      1 RES1    0.0000
     11 C8        -0.3792    7.3395    5.4604 C.ar      1 RES1    0.0000
     12 C9        -1.5233    7.4453    6.2372 C.ar      1 RES1    0.0000
     13 C10       -2.5168    6.4930    6.0870 C.ar      1 RES1    0.0000
     14 C11       -2.3667    5.4676    5.2093 C.ar      1 RES1    0.0000
     15 C12       -1.2322    5.3890    4.4181 C.ar      1 RES1    0.0000
     16 C13        0.9076    6.2767    3.5110 C.2       1 RES1    0.0000
     17 O3         0.6941    6.7617    2.4036 O.2       1 RES1    0.0000
     18 N2         0.6711    8.3293    5.6692 N.pl3     1 RES1    0.0000
     19 O4         1.6105    8.3583    4.9145 O.2       1 RES1    0.0000
     20 O5         0.5736    9.1084    6.5785 O.2       1 RES1    0.0000
     21 H1         1.6683    5.3843    5.8803 H         1 RES1    0.0000
     22 H2         3.7708    6.7140    5.6442 H         1 RES1    0.0000
     23 H3         4.3529    5.0940    6.0591 H         1 RES1    0.0000
     24 H4         4.7742    4.5322    3.7771 H         1 RES1    0.0000
     25 H5         5.2034    6.2458    3.7914 H         1 RES1    0.0000
     26 H6         3.3025    6.8170    2.5467 H         1 RES1    0.0000
     27 H7         3.0052    3.9235    2.0674 H         1 RES1    0.0000
     28 H8         4.2660    4.9161    1.3449 H         1 RES1    0.0000
     29 H9         1.7764    5.8150    1.4450 H         1 RES1    0.0000
     30 H10        1.5039    1.9758    5.1291 H         1 RES1    0.0000
     31 H11        0.7445    3.2961    4.2492 H         1 RES1    0.0000
     32 H12        0.7464    3.2961    6.0162 H         1 RES1    0.0000
     33 H13       -1.6406    8.2497    6.9462 H         1 RES1    0.0000
     34 H14       -3.4248    6.5642    6.6743 H         1 RES1    0.0000
     35 H15       -3.1342    4.7101    5.1291 H         1 RES1    0.0000
     36 H16       -1.1355    4.5790    3.7127 H         1 RES1    0.0000
@<TRIPOS>BOND
     1    1    2 1
     2    2    3 1
     3    3    4 1
     4    4    5 1
     5    5    1 1
     6    6    5 1
     7    7    6 1
     8    8    2 1
     9    9    8 1
    10   10   11 ar
    11   11   12 ar
    12   12   13 ar
    13   13   14 ar
    14   14   15 ar
    15   15   10 ar
    16   16    1 1
    17   17   16 2
    18   18   11 1
    19   19   18 2
    20   20   18 2
    21   21    2 1
    22   22    3 1
    23   23    3 1
    24   24    4 1
    25   25    4 1
    26   26    5 1
    27   27    6 1
    28   28    6 1
    29   29    7 1
    30   30    9 1
    31   31    9 1
    32   32    9 1
    33   33   12 1
    34   34   13 1
    35   35   14 1
    36   36   15 1
    37   10   16 1
@<TRIPOS>SUBSTRUCTURE
     1 RES1 1

@<TRIPOS>CRYSIN
  10.3070    9.3640    7.3940  90.0000 104.6500  90.0000   4 1

