# MOL2 file generated by ConQuest
# Please check atom types

@<TRIPOS>MOLECULE
VUKHIS
    36    37     1
SMALL
NO_CHARGES
****
Generated from CSD

@<TRIPOS>ATOM
      1 C1         0.3415    9.6934    6.2216 C.ar      1 RES1    0.0000
      2 C2        -0.3749   10.8194    5.8434 C.ar      1 RES1    0.0000
      3 C3         0.2130   11.9834    5.3839 C.ar      1 RES1    0.0000
      4 C4         1.5835   12.0474    5.3128 C.ar      1 RES1    0.0000
      5 C5         2.3428   10.9593    5.7093 C.ar      1 RES1    0.0000
      6 C6         1.7096    9.8119    6.1285 C.ar      1 RES1    0.0000
      7 N1        -1.8487   10.8242    5.9966 N.pl3     1 RES1    0.0000
      8 O1        -2.3475   10.3074    6.9663 O.2       1 RES1    0.0000
      9 O2        -2.4886   11.3813    5.1061 O.2       1 RES1    0.0000
     10 C7        -0.2651    8.3967    6.6562 C.ar      1 RES1    0.0000
     11 C8        -0.9672    7.5693    5.7958 C.ar      1 RES1    0.0000
     12 C9        -1.4428    6.3461    6.2246 C.ar      1 RES1    0.0000
     13 C10       -1.2419    5.9455    7.5306 C.ar      1 RES1    0.0000
     14 C11       -0.5448    6.7278    8.3962 C.ar      1 RES1    0.0000
     15 C12       -0.0526    7.9439    7.9608 C.ar      1 RES1    0.0000
     16 N2        -1.1395    7.9866    4.4070 N.am      1 RES1    0.0000
     17 C13        0.0478    8.0103    3.6330 C.2       1 RES1    0.0000
     18 C14        0.0972    8.8566    2.3966 C.3       1 RES1    0.0000
     19 O3         1.0043    7.3986    4.0178 O.2       1 RES1    0.0000
     20 C15       -2.4153    8.1904    3.8565 C.2       1 RES1    0.0000
     21 C16       -3.6020    8.1240    4.7573 C.3       1 RES1    0.0000
     22 O4        -2.5464    8.3943    2.6722 O.2       1 RES1    0.0000
     23 H1        -0.3696   12.7775    5.0717 H         1 RES1    0.0000
     24 H2         2.0081   12.9672    5.0057 H         1 RES1    0.0000
     25 H3         3.3677   10.9285    5.7093 H         1 RES1    0.0000
     26 H4         2.1561    9.1742    6.3689 H         1 RES1    0.0000
     27 H5        -1.9097    5.8791    5.6214 H         1 RES1    0.0000
     28 H6        -1.6019    5.1679    7.8347 H         1 RES1    0.0000
     29 H7        -0.4035    6.4006    9.4252 H         1 RES1    0.0000
     30 H8         0.3979    8.4630    8.4870 H         1 RES1    0.0000
     31 H9        -0.4283    9.6483    2.4699 H         1 RES1    0.0000
     32 H10       -0.0641    8.5579    1.7810 H         1 RES1    0.0000
     33 H11        1.0122    9.1031    2.1694 H         1 RES1    0.0000
     34 H12       -3.4329    8.3919    5.6654 H         1 RES1    0.0000
     35 H13       -3.7954    7.2540    4.8152 H         1 RES1    0.0000
     36 H14       -4.3220    8.8897    4.2802 H         1 RES1    0.0000
@<TRIPOS>BOND
     1    1    2 ar
     2    2    3 ar
     3    3    4 ar
     4    4    5 ar
     5    5    6 ar
     6    6    1 ar
     7    7    2 1
     8    8    7 2
     9    9    7 2
    10   10    1 1
    11   11   10 ar
    12   12   11 ar
    13   13   12 ar
    14   14   13 ar
    15   15   10 ar
    16   16   11 1
    17   17   16 1
    18   18   17 1
    19   19   17 2
    20   20   16 1
    21   21   20 1
    22   22   20 2
    23   23    3 1
    24   24    4 1
    25   25    5 1
    26   26    6 1
    27   27   12 1
    28   28   13 1
    29   29   14 1
    30   30   15 1
    31   31   18 1
    32   32   18 1
    33   33   18 1
    34   34   21 1
    35   35   21 1
    36   36   21 1
    37   14   15 ar
@<TRIPOS>SUBSTRUCTURE
     1 RES1 1

@<TRIPOS>CRYSIN
   8.4420   23.7060    8.0900  90.0000 115.0500  90.0000  14 2

