# MOL2 file generated by ConQuest
# Please check atom types

@<TRIPOS>MOLECULE
VUKPOI01
    46    47     1
SMALL
NO_CHARGES
****
Generated from CSD

@<TRIPOS>ATOM
      1 O1         4.7069   17.7339    4.0774 O.2       1 RES1    0.0000
      2 O2         2.9284   16.5064    4.1211 O.2       1 RES1    0.0000
      3 N1         4.1453   16.6440    4.1268 N.pl3     1 RES1    0.0000
      4 N2         1.0029   11.8391    1.4079 N.2       1 RES1    0.0000
      5 C1        -0.0618   11.8074    0.4096 C.3       1 RES1    0.0000
      6 H1         0.0101   12.5975   -0.1836 H         1 RES1    0.0000
      7 H2        -0.9438   11.8357    0.8578 H         1 RES1    0.0000
      8 C2         1.6540   12.9219    1.5472 C.2       1 RES1    0.0000
      9 H3         1.4321   13.6765    1.0135 H         1 RES1    0.0000
     10 C3         2.7350   13.0175    2.5163 C.2       1 RES1    0.0000
     11 H4         2.9485   12.2535    3.0392 H         1 RES1    0.0000
     12 C4         3.4381   14.1356    2.6993 C.2       1 RES1    0.0000
     13 H5         3.1851   14.9075    2.2062 H         1 RES1    0.0000
     14 C5         4.5842   14.2480    3.6210 C.ar      1 RES1    0.0000
     15 C6         5.4188   13.1533    3.8521 C.ar      1 RES1    0.0000
     16 H6         5.2002   12.3205    3.4526 H         1 RES1    0.0000
     17 C7         6.5526   13.2362    4.6408 C.ar      1 RES1    0.0000
     18 H7         7.0867   12.4657    4.7877 H         1 RES1    0.0000
     19 C8         6.9077   14.4488    5.2188 C.ar      1 RES1    0.0000
     20 H8         7.6889   14.5098    5.7563 H         1 RES1    0.0000
     21 C9         6.1213   15.5629    5.0067 C.ar      1 RES1    0.0000
     22 H9         6.3612   16.3998    5.3853 H         1 RES1    0.0000
     23 C10        4.9806   15.4425    4.2370 C.ar      1 RES1    0.0000
     24 O1B       -4.7069    4.6061   -4.0774 O.2       1 RES1    0.0000
     25 O2B       -2.9284    5.8336   -4.1211 O.2       1 RES1    0.0000
     26 N1B       -4.1453    5.6960   -4.1268 N.pl3     1 RES1    0.0000
     27 N2B       -1.0029   10.5009   -1.4079 N.2       1 RES1    0.0000
     28 C1B        0.0618   10.5326   -0.4096 C.3       1 RES1    0.0000
     29 H1B       -0.0101    9.7425    0.1836 H         1 RES1    0.0000
     30 H2B        0.9438   10.5043   -0.8578 H         1 RES1    0.0000
     31 C2B       -1.6540    9.4181   -1.5472 C.2       1 RES1    0.0000
     32 H3B       -1.4321    8.6635   -1.0135 H         1 RES1    0.0000
     33 C3B       -2.7350    9.3225   -2.5163 C.2       1 RES1    0.0000
     34 H4B       -2.9485   10.0865   -3.0392 H         1 RES1    0.0000
     35 C4B       -3.4381    8.2044   -2.6993 C.2       1 RES1    0.0000
     36 H5B       -3.1851    7.4325   -2.2062 H         1 RES1    0.0000
     37 C5B       -4.5842    8.0920   -3.6210 C.ar      1 RES1    0.0000
     38 C6B       -5.4188    9.1867   -3.8521 C.ar      1 RES1    0.0000
     39 H6B       -5.2002   10.0195   -3.4526 H         1 RES1    0.0000
     40 C7B       -6.5526    9.1038   -4.6408 C.ar      1 RES1    0.0000
     41 H7B       -7.0867    9.8743   -4.7877 H         1 RES1    0.0000
     42 C8B       -6.9077    7.8912   -5.2188 C.ar      1 RES1    0.0000
     43 H8B       -7.6889    7.8302   -5.7563 H         1 RES1    0.0000
     44 C9B       -6.1213    6.7771   -5.0067 C.ar      1 RES1    0.0000
     45 H9B       -6.3612    5.9402   -5.3853 H         1 RES1    0.0000
     46 C10B      -4.9806    6.8975   -4.2370 C.ar      1 RES1    0.0000
@<TRIPOS>BOND
     1    1    3 2
     2    2    3 2
     3    3   23 1
     4    4    5 1
     5    5    6 1
     6    7    5 1
     7    8    4 2
     8    9    8 1
     9   10    8 1
    10   11   10 1
    11   12   10 2
    12   13   12 1
    13   14   12 1
    14   15   14 ar
    15   16   15 1
    16   17   15 ar
    17   18   17 1
    18   19   17 ar
    19   20   19 1
    20   21   19 ar
    21   22   21 1
    22   23   14 ar
    23   24   26 2
    24   25   26 2
    25   26   46 1
    26   27   28 1
    27   28    5 1
    28   29   28 1
    29   30   28 1
    30   31   27 2
    31   32   31 1
    32   33   31 1
    33   34   33 1
    34   35   33 2
    35   36   35 1
    36   37   35 1
    37   38   37 ar
    38   39   38 1
    39   40   38 ar
    40   41   40 1
    41   42   40 ar
    42   43   42 1
    43   44   42 ar
    44   45   44 1
    45   46   37 ar
    46   21   23 ar
    47   44   46 ar
@<TRIPOS>SUBSTRUCTURE
     1 RES1 1

@<TRIPOS>CRYSIN
   6.4118   22.3400    6.9872  90.0000 115.0413  90.0000  14 1

