# MOL2 file generated by ConQuest
# Please check atom types

@<TRIPOS>MOLECULE
VUNJEV
    44    47     1
SMALL
NO_CHARGES
****
Generated from CSD

@<TRIPOS>ATOM
      1 O1         2.5940    7.9984    4.3291 O.3       1 RES1    0.0000
      2 O2         3.1379    5.3064    4.2772 O.2       1 RES1    0.0000
      3 O3         3.7275    8.8876    7.1780 O.3       1 RES1    0.0000
      4 H1         3.5228    8.3668    7.8045 H         1 RES1    0.0000
      5 O4         6.0569   10.5488    3.8755 O.2       1 RES1    0.0000
      6 O5         6.2560   10.0626    6.0691 O.3       1 RES1    0.0000
      7 O6         1.7026   11.9614   -0.3681 O.3       1 RES1    0.0000
      8 N1         3.1404    7.3046    5.4587 N.am      1 RES1    0.0000
      9 C1         3.6441    6.0322    5.1135 C.2       1 RES1    0.0000
     10 C2         4.8319    5.8376    5.9690 C.ar      1 RES1    0.0000
     11 C3         5.5318    4.6755    6.2484 C.ar      1 RES1    0.0000
     12 H2         5.2570    3.8371    5.8929 H         1 RES1    0.0000
     13 C4         6.6463    4.7788    7.0643 C.ar      1 RES1    0.0000
     14 H3         7.1516    3.9999    7.2681 H         1 RES1    0.0000
     15 C5         7.0373    6.0092    7.5907 C.ar      1 RES1    0.0000
     16 H4         7.8084    6.0558    8.1435 H         1 RES1    0.0000
     17 C6         6.3151    7.1724    7.3184 C.ar      1 RES1    0.0000
     18 H5         6.5747    8.0072    7.6894 H         1 RES1    0.0000
     19 C7         5.2076    7.0733    6.4897 C.ar      1 RES1    0.0000
     20 C8         4.2035    8.1425    6.0866 C.3       1 RES1    0.0000
     21 C9         4.5016    9.0784    4.9348 C.2       1 RES1    0.0000
     22 C10        3.5071    8.9965    4.0381 C.2       1 RES1    0.0000
     23 C11        3.1065    9.7884    2.8685 C.ar      1 RES1    0.0000
     24 C12        3.3193   11.1670    2.8216 C.ar      1 RES1    0.0000
     25 H6         3.7829   11.5891    3.5363 H         1 RES1    0.0000
     26 C13        2.8725   11.9364    1.7608 C.ar      1 RES1    0.0000
     27 H7         3.0251   12.8747    1.7462 H         1 RES1    0.0000
     28 C14        2.1985   11.3138    0.7198 C.ar      1 RES1    0.0000
     29 C15        1.9898    9.9277    0.7358 C.ar      1 RES1    0.0000
     30 H8         1.5486    9.5041    0.0082 H         1 RES1    0.0000
     31 C16        2.4279    9.1768    1.8130 C.ar      1 RES1    0.0000
     32 H9         2.2658    8.2405    1.8339 H         1 RES1    0.0000
     33 C17        1.8237   13.3879   -0.4275 C.3       1 RES1    0.0000
     34 H10        1.3761   13.7860    0.3481 H         1 RES1    0.0000
     35 H11        1.4060   13.7179   -1.2509 H         1 RES1    0.0000
     36 H12        2.7715   13.6353   -0.4203 H         1 RES1    0.0000
     37 C18        5.6681    9.9678    4.8687 C.2       1 RES1    0.0000
     38 C19        7.3841   10.9855    6.1693 C.3       1 RES1    0.0000
     39 H13        7.4822   11.2854    7.1073 H         1 RES1    0.0000
     40 H14        7.2082   11.7836    5.6096 H         1 RES1    0.0000
     41 C20        8.6595   10.3289    5.7175 C.3       1 RES1    0.0000
     42 H15        8.7833    9.4871    6.2036 H         1 RES1    0.0000
     43 H16        9.4160   10.9257    5.8984 H         1 RES1    0.0000
     44 H17        8.6100   10.1457    4.7562 H         1 RES1    0.0000
@<TRIPOS>BOND
     1    1    8 1
     2    2    9 2
     3    3    4 1
     4    5   37 2
     5    6   37 1
     6    7   28 1
     7    8    9 1
     8    9   10 1
     9   10   11 ar
    10   11   12 1
    11   13   11 ar
    12   14   13 1
    13   15   13 ar
    14   16   15 1
    15   17   15 ar
    16   18   17 1
    17   19   10 ar
    18   20    3 1
    19   21   20 1
    20   22    1 1
    21   23   22 1
    22   24   23 ar
    23   25   24 1
    24   26   24 ar
    25   27   26 1
    26   28   26 ar
    27   29   28 ar
    28   30   29 1
    29   31   23 ar
    30   32   31 1
    31   33    7 1
    32   34   33 1
    33   35   33 1
    34   36   33 1
    35   37   21 1
    36   38    6 1
    37   39   38 1
    38   40   38 1
    39   41   38 1
    40   42   41 1
    41   43   41 1
    42   44   41 1
    43    8   20 1
    44   17   19 ar
    45   19   20 1
    46   21   22 2
    47   29   31 ar
@<TRIPOS>SUBSTRUCTURE
     1 RES1 1

@<TRIPOS>CRYSIN
   7.8241   24.3010    9.1574  90.0000  93.7600  90.0000  14 1

