# MOL2 file generated by ConQuest
# Please check atom types

@<TRIPOS>MOLECULE
VUNKAS
    40    41     1
SMALL
NO_CHARGES
****
Generated from CSD

@<TRIPOS>ATOM
      1 O1        -2.2191    0.1265    8.9400 O.2       1 RES1    0.0000
      2 O2         1.1953   -0.7119   10.8537 O.3       1 RES1    0.0000
      3 O3         0.7670   -2.3036   12.3864 O.2       1 RES1    0.0000
      4 N1        -1.4802   -0.4842    9.7615 N.pl3     1 RES1    0.0000
      5 N2        -1.1375   -1.7065    9.7374 N.2       1 RES1    0.0000
      6 C1        -1.0021    0.2948   10.9004 C.ar      1 RES1    0.0000
      7 C2        -1.8631    1.2467   11.4261 C.ar      1 RES1    0.0000
      8 H1        -2.7102    1.3590   11.0581 H         1 RES1    0.0000
      9 C3        -1.4698    2.0255   12.4904 C.ar      1 RES1    0.0000
     10 H2        -2.0612    2.6505   12.8440 H         1 RES1    0.0000
     11 C4        -0.2083    1.8932   13.0434 C.ar      1 RES1    0.0000
     12 C5         0.6534    0.9484   12.4906 C.ar      1 RES1    0.0000
     13 H3         1.5113    0.8567   12.8371 H         1 RES1    0.0000
     14 C6         0.2616    0.1458   11.4413 C.ar      1 RES1    0.0000
     15 C7         0.2386    2.7694   14.1838 C.3       1 RES1    0.0000
     16 H4         0.9701    2.3500   14.6424 H         1 RES1    0.0000
     17 H5        -0.4910    2.8966   14.7951 H         1 RES1    0.0000
     18 H6         0.5210    3.6209   13.8411 H         1 RES1    0.0000
     19 C8        -1.5486   -2.5430    8.6760 C.ar      1 RES1    0.0000
     20 C9        -2.1571   -2.1958    7.4675 C.ar      1 RES1    0.0000
     21 H7        -2.3622   -1.3072    7.2851 H         1 RES1    0.0000
     22 C10       -2.4495   -3.1742    6.5536 C.ar      1 RES1    0.0000
     23 H8        -2.8422   -2.9286    5.7478 H         1 RES1    0.0000
     24 C11       -2.1854   -4.5079    6.7789 C.ar      1 RES1    0.0000
     25 C12       -1.5937   -4.8423    7.9862 C.ar      1 RES1    0.0000
     26 H9        -1.4110   -5.7347    8.1738 H         1 RES1    0.0000
     27 C13       -1.2728   -3.8799    8.9105 C.ar      1 RES1    0.0000
     28 H10       -0.8633   -4.1296    9.7069 H         1 RES1    0.0000
     29 C14       -2.5326   -5.5501    5.7496 C.3       1 RES1    0.0000
     30 H11       -3.4077   -5.3725    5.3978 H         1 RES1    0.0000
     31 H12       -2.5222   -6.4188    6.1575 H         1 RES1    0.0000
     32 H13       -1.8894   -5.5232    5.0382 H         1 RES1    0.0000
     33 C15        1.3052   -1.9761   11.3792 C.2       1 RES1    0.0000
     34 C16        2.1922   -2.8104   10.5121 C.3       1 RES1    0.0000
     35 H14        3.0311   -2.3409   10.3805 H         1 RES1    0.0000
     36 H15        1.7728   -2.9115    9.6431 H         1 RES1    0.0000
     37 C17        2.4829   -4.1707   11.0695 C.3       1 RES1    0.0000
     38 H16        3.0419   -4.6543   10.4568 H         1 RES1    0.0000
     39 H17        1.6591   -4.6470   11.1956 H         1 RES1    0.0000
     40 H18        2.9338   -4.0808   11.9122 H         1 RES1    0.0000
@<TRIPOS>BOND
     1    1    4 1
     2    2   14 1
     3    3   33 2
     4    4    5 2
     5    5   19 1
     6    6    4 1
     7    7    6 ar
     8    8    7 1
     9    9    7 ar
    10   10    9 1
    11   11    9 ar
    12   12   11 ar
    13   13   12 1
    14   14    6 ar
    15   15   11 1
    16   16   15 1
    17   17   15 1
    18   18   15 1
    19   19   20 ar
    20   20   21 1
    21   22   20 ar
    22   23   22 1
    23   24   22 ar
    24   25   24 ar
    25   26   25 1
    26   27   19 ar
    27   28   27 1
    28   29   24 1
    29   30   29 1
    30   31   29 1
    31   32   29 1
    32   33    2 1
    33   34   33 1
    34   35   34 1
    35   36   34 1
    36   37   34 1
    37   38   37 1
    38   39   37 1
    39   40   37 1
    40   12   14 ar
    41   25   27 ar
@<TRIPOS>SUBSTRUCTURE
     1 RES1 1

@<TRIPOS>CRYSIN
   6.8879    8.2820   14.4023 104.6550  94.1210  91.6680   2 1

