# MOL2 file generated by ConQuest
# Please check atom types

@<TRIPOS>MOLECULE
VUNMEX
    33    34     1
SMALL
NO_CHARGES
****
Generated from CSD

@<TRIPOS>ATOM
      1 C1        10.2406    8.2055    1.7350 C.ar      1 RES1    0.0000
      2 C2         9.8840    7.0899    2.4572 C.ar      1 RES1    0.0000
      3 H1        10.3295    6.8871    3.3417 H         1 RES1    0.0000
      4 C3         8.9497    6.2221    1.9067 C.ar      1 RES1    0.0000
      5 H2         8.6409    5.3628    2.4269 H         1 RES1    0.0000
      6 C4         8.3750    6.5006    0.6689 C.ar      1 RES1    0.0000
      7 C5         8.7892    7.6063   -0.0424 C.ar      1 RES1    0.0000
      8 H3         8.4017    7.7612   -0.8628 H         1 RES1    0.0000
      9 C6         9.7363    8.4832    0.4925 C.ar      1 RES1    0.0000
     10 H4        10.0800    9.2657   -0.0707 H         1 RES1    0.0000
     11 C7         7.3421    5.6235    0.0781 C.2       1 RES1    0.0000
     12 H5         6.9378    5.8896   -0.7734 H         1 RES1    0.0000
     13 C8         5.9393    3.7728    0.0111 C.ar      1 RES1    0.0000
     14 C9         5.3823    2.7762    0.7705 C.ar      1 RES1    0.0000
     15 H6         5.6694    2.6078    1.6988 H         1 RES1    0.0000
     16 C10        4.4537    1.9069    0.1883 C.ar      1 RES1    0.0000
     17 H7         4.0277    1.2080    0.7361 H         1 RES1    0.0000
     18 C11        4.0653    2.0368   -1.1280 C.ar      1 RES1    0.0000
     19 C12        4.6042    3.0613   -1.8962 C.ar      1 RES1    0.0000
     20 C13        5.5434    3.9230   -1.3116 C.ar      1 RES1    0.0000
     21 H8         5.9514    4.6723   -1.8882 H         1 RES1    0.0000
     22 C14        3.0892    1.0504   -1.7268 C.3       1 RES1    0.0000
     23 H9         2.7364    0.4334   -1.0348 H         1 RES1    0.0000
     24 H10        2.3580    1.4714   -2.1962 H         1 RES1    0.0000
     25 H11        3.5089    0.5122   -2.4603 H         1 RES1    0.0000
     26 C15        4.1942    3.2932   -3.3292 C.3       1 RES1    0.0000
     27 H12        3.1996    3.5804   -3.3217 H         1 RES1    0.0000
     28 H13        4.2235    2.4243   -3.8284 H         1 RES1    0.0000
     29 H14        4.8252    3.9578   -3.7764 H         1 RES1    0.0000
     30 N1        11.2000    9.1557    2.3296 N.pl3     1 RES1    0.0000
     31 N2         6.9297    4.5937    0.6539 N.2       1 RES1    0.0000
     32 O1        11.4586   10.1730    1.7115 O.2       1 RES1    0.0000
     33 O2        11.6872    8.8981    3.4120 O.2       1 RES1    0.0000
@<TRIPOS>BOND
     1    1    2 ar
     2    2    3 1
     3    4    2 ar
     4    5    4 1
     5    6    4 ar
     6    7    6 ar
     7    8    7 1
     8    9    1 ar
     9   10    9 1
    10   11    6 1
    11   12   11 1
    12   13   14 ar
    13   14   15 1
    14   16   14 ar
    15   17   16 1
    16   18   16 ar
    17   19   18 ar
    18   20   13 ar
    19   21   20 1
    20   22   18 1
    21   23   22 1
    22   24   22 1
    23   25   22 1
    24   26   19 1
    25   27   26 1
    26   28   26 1
    27   29   26 1
    28   30    1 1
    29   31   11 2
    30   32   30 2
    31   33   30 2
    32    7    9 ar
    33   13   31 1
    34   19   20 ar
@<TRIPOS>SUBSTRUCTURE
     1 RES1 1

@<TRIPOS>CRYSIN
   9.4030   10.3690   13.3920  90.0000  95.3000  90.0000 231 1

