# MOL2 file generated by ConQuest
# Please check atom types

@<TRIPOS>MOLECULE
VUNMIB
    33    34     1
SMALL
NO_CHARGES
****
Generated from CSD

@<TRIPOS>ATOM
      1 C1         1.4438    0.2801   12.0881 C.ar      1 RES1    0.0000
      2 C2         1.3673   -0.9538   12.6565 C.ar      1 RES1    0.0000
      3 H1         2.1181   -1.3529   13.0332 H         1 RES1    0.0000
      4 C3         0.1453   -1.5981   12.6595 C.ar      1 RES1    0.0000
      5 H2         0.0673   -2.4416   13.0438 H         1 RES1    0.0000
      6 C4        -0.9573   -0.9967   12.0960 C.ar      1 RES1    0.0000
      7 H3        -1.7776   -1.4344   12.1110 H         1 RES1    0.0000
      8 C5        -0.8599    0.2452   11.5106 C.ar      1 RES1    0.0000
      9 C6         0.3642    0.8968   11.5084 C.ar      1 RES1    0.0000
     10 H4         0.4518    1.7379   11.1208 H         1 RES1    0.0000
     11 C7        -2.0374    0.8551   10.8760 C.2       1 RES1    0.0000
     12 H5        -2.8634    0.4401   10.9766 H         1 RES1    0.0000
     13 C8        -3.1279    2.4361    9.5720 C.ar      1 RES1    0.0000
     14 C9        -2.9974    3.6737    8.9929 C.ar      1 RES1    0.0000
     15 H6        -2.1893    4.1298    9.0552 H         1 RES1    0.0000
     16 C10       -4.0567    4.2463    8.3183 C.ar      1 RES1    0.0000
     17 H7        -3.9489    5.0830    7.9269 H         1 RES1    0.0000
     18 C11       -5.2719    3.6032    8.2133 C.ar      1 RES1    0.0000
     19 C12       -5.4229    2.3564    8.8151 C.ar      1 RES1    0.0000
     20 C13       -4.3557    1.7936    9.4828 C.ar      1 RES1    0.0000
     21 H8        -4.4609    0.9612    9.8841 H         1 RES1    0.0000
     22 C14       -6.4082    4.2340    7.4596 C.3       1 RES1    0.0000
     23 H9        -7.1722    3.6535    7.4881 H         1 RES1    0.0000
     24 H10       -6.1473    4.3750    6.5465 H         1 RES1    0.0000
     25 H11       -6.6311    5.0763    7.8626 H         1 RES1    0.0000
     26 C15       -6.7332    1.6287    8.7357 C.3       1 RES1    0.0000
     27 H12       -7.3628    2.1571    8.2398 H         1 RES1    0.0000
     28 H13       -7.0700    1.4786    9.6223 H         1 RES1    0.0000
     29 H14       -6.6052    0.7859    8.2951 H         1 RES1    0.0000
     30 N1        -1.9745    1.9095   10.2072 N.2       1 RES1    0.0000
     31 N2         2.7380    0.9888   12.0941 N.pl3     1 RES1    0.0000
     32 O1         2.7856    2.1008   11.6091 O.2       1 RES1    0.0000
     33 O2         3.6903    0.4248   12.6089 O.2       1 RES1    0.0000
@<TRIPOS>BOND
     1    1    2 ar
     2    2    3 1
     3    4    2 ar
     4    5    4 1
     5    6    4 ar
     6    7    6 1
     7    8    6 ar
     8    9    1 ar
     9   10    9 1
    10   11    8 1
    11   12   11 1
    12   13   14 ar
    13   14   15 1
    14   16   14 ar
    15   17   16 1
    16   18   16 ar
    17   19   18 ar
    18   20   13 ar
    19   21   20 1
    20   22   18 1
    21   23   22 1
    22   24   22 1
    23   25   22 1
    24   26   19 1
    25   27   26 1
    26   28   26 1
    27   29   26 1
    28   30   11 2
    29   31    1 1
    30   32   31 2
    31   33   31 2
    32    8    9 ar
    33   13   30 1
    34   19   20 ar
@<TRIPOS>SUBSTRUCTURE
     1 RES1 1

@<TRIPOS>CRYSIN
  15.5480    6.1300   27.4030  90.0000  93.4000  90.0000  15 1

