# MOL2 file generated by ConQuest
# Please check atom types

@<TRIPOS>MOLECULE
VUNZUB
    37    40     1
SMALL
NO_CHARGES
****
Generated from CSD

@<TRIPOS>ATOM
      1 O1         0.4296    3.2290   11.8920 O.3       1 RES1    0.0000
      2 O2        -0.3919    2.2018    9.9481 O.3       1 RES1    0.0000
      3 O3         2.9081    1.8277   11.3937 O.3       1 RES1    0.0000
      4 N1        -0.4861    2.9016   12.9341 N.2       1 RES1    0.0000
      5 C1        -1.8193   -0.3690   13.8421 C.ar      1 RES1    0.0000
      6 C2        -2.7800   -0.9586   14.6475 C.ar      1 RES1    0.0000
      7 C3        -3.6256   -0.2113   15.4393 C.ar      1 RES1    0.0000
      8 C4        -3.4674    1.1659   15.4242 C.ar      1 RES1    0.0000
      9 C5        -2.5160    1.7733   14.6260 C.ar      1 RES1    0.0000
     10 C6        -1.6814    1.0107   13.8112 C.ar      1 RES1    0.0000
     11 C7        -4.6797   -0.8897   16.2748 C.3       1 RES1    0.0000
     12 C8        -0.7095    1.6406   12.9107 C.2       1 RES1    0.0000
     13 C9         0.5309    2.0905   10.9840 C.3       1 RES1    0.0000
     14 C10        0.1036    0.9267   11.8677 C.3       1 RES1    0.0000
     15 C11        1.9327    2.0855   10.4612 C.2       1 RES1    0.0000
     16 C12        4.1002    1.8774   10.7125 C.ar      1 RES1    0.0000
     17 C13        3.8787    2.1708    9.3781 C.ar      1 RES1    0.0000
     18 C14        2.4509    2.2955    9.2456 C.2       1 RES1    0.0000
     19 C15        5.3488    1.6615   11.2490 C.ar      1 RES1    0.0000
     20 C16        6.4102    1.7585   10.3771 C.ar      1 RES1    0.0000
     21 C17        6.2346    2.0575    9.0509 C.ar      1 RES1    0.0000
     22 C18        4.9802    2.2695    8.5242 C.ar      1 RES1    0.0000
     23 H1        -1.2634   -0.9007   13.3190 H         1 RES1    0.0000
     24 H2        -2.8565   -1.8853   14.6544 H         1 RES1    0.0000
     25 H3        -4.0128    1.6918   15.9632 H         1 RES1    0.0000
     26 H4        -2.4323    2.6992   14.6329 H         1 RES1    0.0000
     27 H5        -5.3807   -1.2137   15.7043 H         1 RES1    0.0000
     28 H6        -5.0432   -0.2618   16.9036 H         1 RES1    0.0000
     29 H7        -4.2868   -1.6264   16.7491 H         1 RES1    0.0000
     30 H8        -0.4320    0.2846   11.3768 H         1 RES1    0.0000
     31 H9         0.8689    0.4767   12.2589 H         1 RES1    0.0000
     32 H10       -0.2624    2.9013    9.5411 H         1 RES1    0.0000
     33 H11        1.9800    2.4858    8.4666 H         1 RES1    0.0000
     34 H12        5.4686    1.4613   12.1494 H         1 RES1    0.0000
     35 H13        7.2713    1.6178   10.6974 H         1 RES1    0.0000
     36 H14        6.9781    2.1187    8.4953 H         1 RES1    0.0000
     37 H15        4.8693    2.4730    7.6234 H         1 RES1    0.0000
@<TRIPOS>BOND
     1    1    4 1
     2    2   13 1
     3    3   15 1
     4    4   12 2
     5    5    6 ar
     6    6    7 ar
     7    7    8 ar
     8    8    9 ar
     9    9   10 ar
    10   10    5 ar
    11   11    7 1
    12   12   10 1
    13   13    1 1
    14   14   12 1
    15   15   13 1
    16   16    3 1
    17   17   16 ar
    18   18   15 2
    19   19   16 ar
    20   20   19 ar
    21   21   20 ar
    22   22   17 ar
    23   23    5 1
    24   24    6 1
    25   25    8 1
    26   26    9 1
    27   27   11 1
    28   28   11 1
    29   29   11 1
    30   30   14 1
    31   31   14 1
    32   32    2 1
    33   33   18 1
    34   34   19 1
    35   35   20 1
    36   36   21 1
    37   37   22 1
    38   13   14 1
    39   17   18 1
    40   21   22 ar
@<TRIPOS>SUBSTRUCTURE
     1 RES1 1

@<TRIPOS>CRYSIN
  10.2200   14.2289   10.2474  90.0000  93.0580  90.0000  14 1

