# MOL2 file generated by ConQuest
# Please check atom types

@<TRIPOS>MOLECULE
VUPPED
    41    43     1
SMALL
NO_CHARGES
****
Generated from CSD

@<TRIPOS>ATOM
      1 O1         1.7812    4.2579   14.0109 O.3       1 RES1    0.0000
      2 O2         4.8865    4.5081   16.3066 O.3       1 RES1    0.0000
      3 O3         3.1494    7.0370   12.3569 O.2       1 RES1    0.0000
      4 O4         0.4646    8.0099   11.1555 O.2       1 RES1    0.0000
      5 O5         1.2912    6.4413    9.9061 O.2       1 RES1    0.0000
      6 N1         2.7671    5.1817   13.5793 N.am      1 RES1    0.0000
      7 N2         0.8910    6.8764   10.9781 N.pl3     1 RES1    0.0000
      8 C1         0.9890    5.9827   12.1605 C.3       1 RES1    0.0000
      9 H1         0.8019    5.0458   11.9013 H         1 RES1    0.0000
     10 H2         0.3381    6.2559   12.8545 H         1 RES1    0.0000
     11 C2         2.4185    6.1162   12.6870 C.2       1 RES1    0.0000
     12 C3         2.4859    2.9901   14.0074 C.3       1 RES1    0.0000
     13 H3         2.5390    2.6168   13.0911 H         1 RES1    0.0000
     14 H4         2.0370    2.3338   14.5970 H         1 RES1    0.0000
     15 C4         3.8721    3.3350   14.5348 C.3       1 RES1    0.0000
     16 H5         4.5670    2.7367   14.1370 H         1 RES1    0.0000
     17 C5         4.0045    3.3956   16.0625 C.3       1 RES1    0.0000
     18 H6         3.1232    3.5464   16.4868 H         1 RES1    0.0000
     19 H7         4.3912    2.5563   16.4156 H         1 RES1    0.0000
     20 C6         4.4017    5.5390   15.4537 C.3       1 RES1    0.0000
     21 H8         3.5407    5.8814   15.8298 H         1 RES1    0.0000
     22 C7         4.0957    4.8121   14.1039 C.3       1 RES1    0.0000
     23 C8         5.2014    4.9728   13.0488 C.3       1 RES1    0.0000
     24 H9         5.3039    5.9358   12.8429 H         1 RES1    0.0000
     25 H10        6.0565    4.6564   13.4353 H         1 RES1    0.0000
     26 C9         4.9515    4.2324   11.7663 C.2       1 RES1    0.0000
     27 H11        4.8318    3.2905   11.8103 H         1 RES1    0.0000
     28 C10        4.8887    4.8109   10.5851 C.2       1 RES1    0.0000
     29 H12        5.0047    5.7516   10.5096 H         1 RES1    0.0000
     30 H13        4.7279    4.2893    9.8080 H         1 RES1    0.0000
     31 C11        5.3765    6.6749   15.3933 C.ar      1 RES1    0.0000
     32 C12        6.7559    6.4772   15.5318 C.ar      1 RES1    0.0000
     33 H14        7.0955    5.6069   15.7024 H         1 RES1    0.0000
     34 C13        7.6229    7.5439   15.4194 C.ar      1 RES1    0.0000
     35 H15        8.5573    7.4018   15.5171 H         1 RES1    0.0000
     36 C14        7.1494    8.8220   15.1679 C.ar      1 RES1    0.0000
     37 H16        7.7546    9.5489   15.0852 H         1 RES1    0.0000
     38 C15        5.7827    9.0285   15.0388 C.ar      1 RES1    0.0000
     39 H17        5.4475    9.9012   14.8733 H         1 RES1    0.0000
     40 C16        4.9104    7.9630   15.1500 C.ar      1 RES1    0.0000
     41 H18        3.9768    8.1125   15.0587 H         1 RES1    0.0000
@<TRIPOS>BOND
     1    1    6 1
     2    2   17 1
     3    3   11 2
     4    4    7 2
     5    5    7 2
     6    6   11 1
     7    7    8 1
     8    8    9 1
     9   10    8 1
    10   11    8 1
    11   12    1 1
    12   13   12 1
    13   14   12 1
    14   15   12 1
    15   16   15 1
    16   17   15 1
    17   18   17 1
    18   19   17 1
    19   20    2 1
    20   21   20 1
    21   22    6 1
    22   23   22 1
    23   24   23 1
    24   25   23 1
    25   26   23 1
    26   27   26 1
    27   28   26 2
    28   29   28 1
    29   30   28 1
    30   31   20 1
    31   32   31 ar
    32   33   32 1
    33   34   32 ar
    34   35   34 1
    35   36   34 ar
    36   37   36 1
    37   38   36 ar
    38   39   38 1
    39   40   31 ar
    40   41   40 1
    41   15   22 1
    42   20   22 1
    43   38   40 ar
@<TRIPOS>SUBSTRUCTURE
     1 RES1 1

@<TRIPOS>CRYSIN
   7.4808   12.3610   16.5480  90.0000  90.0000  90.0000  19 1

