# MOL2 file generated by ConQuest
# Please check atom types

@<TRIPOS>MOLECULE
VUPPUT
    48    51     1
SMALL
NO_CHARGES
****
Generated from CSD

@<TRIPOS>ATOM
      1 O1         4.0177    6.2546    0.9324 O.2       1 RES1    0.0000
      2 O2         4.7958    6.5438    4.3437 O.3       1 RES1    0.0000
      3 O3         7.4684    9.1033    3.5074 O.3       1 RES1    0.0000
      4 N1         3.2039    5.1800    2.7873 N.am      1 RES1    0.0000
      5 H1         3.3620    5.0903    3.6825 H         1 RES1    0.0000
      6 N2         4.8890    6.7570    2.9460 N.am      1 RES1    0.0000
      7 C1         2.4667    4.1837    2.0907 C.ar      1 RES1    0.0000
      8 C2         1.7986    4.4421    0.9116 C.ar      1 RES1    0.0000
      9 H2         1.7826    5.3219    0.5542 H         1 RES1    0.0000
     10 C3         1.1496    3.4066    0.2485 C.ar      1 RES1    0.0000
     11 H3         0.7097    3.5757   -0.5760 H         1 RES1    0.0000
     12 C4         1.1403    2.1298    0.7837 C.ar      1 RES1    0.0000
     13 H4         0.7082    1.4228    0.3193 H         1 RES1    0.0000
     14 C5         1.7567    1.8845    1.9882 C.ar      1 RES1    0.0000
     15 H5         1.7195    1.0139    2.3682 H         1 RES1    0.0000
     16 C6         2.4334    2.9017    2.6539 C.ar      1 RES1    0.0000
     17 H6         2.8670    2.7287    3.4811 H         1 RES1    0.0000
     18 C7         4.0050    6.0873    2.1397 C.2       1 RES1    0.0000
     19 C8         4.3724    7.8322    4.8625 C.3       1 RES1    0.0000
     20 H7         4.5634    7.9025    5.8321 H         1 RES1    0.0000
     21 H8         3.4041    7.9714    4.7147 H         1 RES1    0.0000
     22 C9         5.1950    8.8415    4.0707 C.3       1 RES1    0.0000
     23 H9         4.6740    9.6779    3.9029 H         1 RES1    0.0000
     24 C10        6.5832    9.1622    4.6294 C.3       1 RES1    0.0000
     25 H10        6.5965   10.0638    5.0367 H         1 RES1    0.0000
     26 H11        6.8452    8.4992    5.3160 H         1 RES1    0.0000
     27 C11        7.0448    7.9347    2.7981 C.3       1 RES1    0.0000
     28 H12        7.2512    7.1390    3.3678 H         1 RES1    0.0000
     29 C12        5.4956    8.0890    2.7338 C.3       1 RES1    0.0000
     30 C13        5.0202    8.8586    1.5129 C.3       1 RES1    0.0000
     31 H13        5.5640    9.6821    1.4313 H         1 RES1    0.0000
     32 H14        5.1938    8.3072    0.7093 H         1 RES1    0.0000
     33 C14        3.5718    9.2471    1.5156 C.2       1 RES1    0.0000
     34 H15        2.9235    8.5555    1.5691 H         1 RES1    0.0000
     35 C15        3.1442   10.5028    1.4476 C.2       1 RES1    0.0000
     36 H16        3.7695   11.2154    1.3932 H         1 RES1    0.0000
     37 H17        2.2117   10.6876    1.4539 H         1 RES1    0.0000
     38 C16        7.7932    7.7822    1.5011 C.ar      1 RES1    0.0000
     39 C17        8.8710    8.6106    1.1791 C.ar      1 RES1    0.0000
     40 H18        9.1192    9.3170    1.7641 H         1 RES1    0.0000
     41 C18        9.5797    8.4011    0.0027 C.ar      1 RES1    0.0000
     42 H19       10.3103    8.9686   -0.2113 H         1 RES1    0.0000
     43 C19        9.2355    7.3760   -0.8617 C.ar      1 RES1    0.0000
     44 H20        9.7304    7.2329   -1.6607 H         1 RES1    0.0000
     45 C20        8.1570    6.5569   -0.5469 C.ar      1 RES1    0.0000
     46 H21        7.9022    5.8601   -1.1392 H         1 RES1    0.0000
     47 C21        7.4493    6.7560    0.6349 C.ar      1 RES1    0.0000
     48 H22        6.7223    6.1835    0.8508 H         1 RES1    0.0000
@<TRIPOS>BOND
     1    1   18 2
     2    2    6 1
     3    3   24 1
     4    4    5 1
     5    6   18 1
     6    7    4 1
     7    8    7 ar
     8    9    8 1
     9   10    8 ar
    10   11   10 1
    11   12   10 ar
    12   13   12 1
    13   14   12 ar
    14   15   14 1
    15   16    7 ar
    16   17   16 1
    17   18    4 1
    18   19    2 1
    19   20   19 1
    20   21   19 1
    21   22   19 1
    22   23   22 1
    23   24   22 1
    24   25   24 1
    25   26   24 1
    26   27    3 1
    27   28   27 1
    28   29    6 1
    29   30   29 1
    30   31   30 1
    31   32   30 1
    32   33   30 1
    33   34   33 1
    34   35   33 2
    35   36   35 1
    36   37   35 1
    37   38   27 1
    38   39   38 ar
    39   40   39 1
    40   41   39 ar
    41   42   41 1
    42   43   41 ar
    43   44   43 1
    44   45   43 ar
    45   46   45 1
    46   47   38 ar
    47   48   47 1
    48   14   16 ar
    49   22   29 1
    50   27   29 1
    51   45   47 ar
@<TRIPOS>SUBSTRUCTURE
     1 RES1 1

@<TRIPOS>CRYSIN
   9.6720   20.8620    9.1990  90.0000  99.6000  90.0000  14 1

