# MOL2 file generated by ConQuest
# Please check atom types

@<TRIPOS>MOLECULE
VUQDOB
    44    45     1
SMALL
NO_CHARGES
****
Generated from CSD

@<TRIPOS>ATOM
      1 N1        10.8279    0.5040   26.0739 N.3       1 RES1    0.0000
      2 C1        10.2269    1.0560   27.1685 C.2       1 RES1    0.0000
      3 H1        10.6909    1.3076   27.9347 H         1 RES1    0.0000
      4 N2         8.9370    1.1962   27.0316 N.2       1 RES1    0.0000
      5 C2         8.6851    0.6906   25.7873 C.2       1 RES1    0.0000
      6 C3         9.8344    0.2617   25.1908 C.2       1 RES1    0.0000
      7 C4        12.2362    0.2617   25.8594 C.3       1 RES1    0.0000
      8 H2        12.3381   -0.4552   25.2130 H         1 RES1    0.0000
      9 H3        12.6369   -0.0310   26.6922 H         1 RES1    0.0000
     10 C5        12.9813    1.4942   25.3557 C.3       1 RES1    0.0000
     11 H4        12.3979    1.9409   24.7063 H         1 RES1    0.0000
     12 O1        13.2274    2.4101   26.3945 O.3       1 RES1    0.0000
     13 H5        13.6726    2.0129   26.8919 H         1 RES1    0.0000
     14 C6        14.2338    1.1009   24.6290 C.3       1 RES1    0.0000
     15 H6        14.7645    1.8837   24.4142 H         1 RES1    0.0000
     16 H7        14.7692    0.5001   25.1723 H         1 RES1    0.0000
     17 O2        13.7909    0.4467   23.4368 O.3       1 RES1    0.0000
     18 C7        14.7001    0.0557   22.5049 C.ar      1 RES1    0.0000
     19 C8        14.1564   -0.5009   21.3486 C.ar      1 RES1    0.0000
     20 H8        13.2344   -0.5629   21.2524 H         1 RES1    0.0000
     21 C9        14.9766   -0.9538   20.3604 C.ar      1 RES1    0.0000
     22 H9        14.6075   -1.3208   19.5883 H         1 RES1    0.0000
     23 C10       16.3520   -0.8772   20.4877 C.ar      1 RES1    0.0000
     24 C11       16.8828   -0.3050   21.6414 C.ar      1 RES1    0.0000
     25 H10       17.8060   -0.2377   21.7368 H         1 RES1    0.0000
     26 C12       16.0521    0.1641   22.6440 C.ar      1 RES1    0.0000
     27 H11       16.4141    0.5512   23.4083 H         1 RES1    0.0000
     28 C13       17.2916   -1.4013   19.4604 C.2       1 RES1    0.0000
     29 O3        18.4820   -1.3363   19.6068 O.2       1 RES1    0.0000
     30 C14       16.7199   -2.0323   18.2271 C.3       1 RES1    0.0000
     31 H12       16.1810   -1.3897   17.7578 H         1 RES1    0.0000
     32 H13       16.1786   -2.7848   18.4752 H         1 RES1    0.0000
     33 H14       17.4346   -2.3250   17.6580 H         1 RES1    0.0000
     34 N3         7.3787    0.6062   25.2891 N.pl3     1 RES1    0.0000
     35 O4         6.4625    1.1272   25.9034 O.2       1 RES1    0.0000
     36 O5         7.2171    0.0240   24.2178 O.2       1 RES1    0.0000
     37 O6        10.0910   -0.3267   24.0204 O.3       1 RES1    0.0000
     38 C15       10.0336    0.5466   22.8477 C.3       1 RES1    0.0000
     39 H15        9.2884    1.1605   22.9313 H         1 RES1    0.0000
     40 H16       10.8502    1.0676   22.7871 H         1 RES1    0.0000
     41 C16        9.8766   -0.2477   21.6592 C.3       1 RES1    0.0000
     42 H17       10.4952   -0.9809   21.6814 H         1 RES1    0.0000
     43 H18       10.0488    0.2957   20.8863 H         1 RES1    0.0000
     44 H19        8.9791   -0.5869   21.6185 H         1 RES1    0.0000
@<TRIPOS>BOND
     1    1    2 1
     2    2    3 1
     3    4    2 2
     4    5    4 1
     5    6    1 1
     6    7    1 1
     7    8    7 1
     8    9    7 1
     9   10    7 1
    10   11   10 1
    11   12   10 1
    12   13   12 1
    13   14   10 1
    14   15   14 1
    15   16   14 1
    16   17   14 1
    17   18   17 1
    18   19   18 ar
    19   20   19 1
    20   21   19 ar
    21   22   21 1
    22   23   21 ar
    23   24   23 ar
    24   25   24 1
    25   26   18 ar
    26   27   26 1
    27   28   23 1
    28   29   28 2
    29   30   28 1
    30   31   30 1
    31   32   30 1
    32   33   30 1
    33   34    5 1
    34   35   34 2
    35   36   34 2
    36   37    6 1
    37   38   37 1
    38   39   38 1
    39   40   38 1
    40   41   38 1
    41   42   41 1
    42   43   41 1
    43   44   41 1
    44    5    6 2
    45   24   26 ar
@<TRIPOS>SUBSTRUCTURE
     1 RES1 1

@<TRIPOS>CRYSIN
  11.7160    7.7421   36.9800  90.0000  90.0000  90.0000  61 1

