# MOL2 file generated by ConQuest
# Please check atom types

@<TRIPOS>MOLECULE
VUQFOD
    54    56     1
SMALL
NO_CHARGES
****
Generated from CSD

@<TRIPOS>ATOM
      1 C1         6.3472    1.8660    2.7438 C.3       1 RES1    0.0000
      2 H1         6.6308    1.5132    1.8975 H         1 RES1    0.0000
      3 H2         5.3933    1.7853    2.8207 H         1 RES1    0.0000
      4 H3         6.7676    1.3742    3.4532 H         1 RES1    0.0000
      5 N1        10.5852   12.9272    8.1414 N.pl3     1 RES1    0.0000
      6 O1         7.1609    8.2898    2.4879 O.2       1 RES1    0.0000
      7 C2         6.7390    3.3240    2.8393 C.ar      1 RES1    0.0000
      8 O2        10.8160   14.0741    7.8199 O.2       1 RES1    0.0000
      9 C3         7.8772    3.7050    3.4937 C.ar      1 RES1    0.0000
     10 H4         8.4309    3.0553    3.8638 H         1 RES1    0.0000
     11 O3        10.5561   12.5418    9.3027 O.2       1 RES1    0.0000
     12 C4         8.2197    5.0422    3.6160 C.ar      1 RES1    0.0000
     13 H5         8.9864    5.2808    4.0841 H         1 RES1    0.0000
     14 O4        11.1204    6.9719    5.6827 O.2       1 RES1    0.0000
     15 C5         7.4314    6.0213    3.0475 C.ar      1 RES1    0.0000
     16 O5        12.4636    8.2182    4.4048 O.3       1 RES1    0.0000
     17 C6         6.2894    5.6237    2.3542 C.ar      1 RES1    0.0000
     18 H6         5.7512    6.2632    1.9469 H         1 RES1    0.0000
     19 O6        10.1944    8.2558    1.3233 O.2       1 RES1    0.0000
     20 C7         5.9523    4.3001    2.2668 C.ar      1 RES1    0.0000
     21 H7         5.1790    4.0551    1.8133 H         1 RES1    0.0000
     22 O7        11.4195    6.6345    2.2028 O.3       1 RES1    0.0000
     23 C8         7.7532    7.4554    3.1382 C.2       1 RES1    0.0000
     24 C9         8.8263    7.8872    4.1092 C.3       1 RES1    0.0000
     25 H8         8.6847    7.6007    5.0356 H         1 RES1    0.0000
     26 C10        9.4339    9.2313    3.9561 C.3       1 RES1    0.0000
     27 H9         9.1525    9.6930    3.1398 H         1 RES1    0.0000
     28 C11       10.2787    7.9842    3.6856 C.3       1 RES1    0.0000
     29 C12        9.7448   10.1581    5.0794 C.ar      1 RES1    0.0000
     30 C13       10.1730   11.4411    4.7789 C.ar      1 RES1    0.0000
     31 H10       10.2656   11.6925    3.8889 H         1 RES1    0.0000
     32 C14       10.4635   12.3497    5.7702 C.ar      1 RES1    0.0000
     33 H11       10.7515   13.2077    5.5604 H         1 RES1    0.0000
     34 C15       10.3171   11.9562    7.0789 C.ar      1 RES1    0.0000
     35 C16        9.9156   10.6947    7.4182 C.ar      1 RES1    0.0000
     36 H12        9.8407   10.4438    8.3107 H         1 RES1    0.0000
     37 C17        9.6265    9.8082    6.4148 C.ar      1 RES1    0.0000
     38 H13        9.3438    8.9499    6.6359 H         1 RES1    0.0000
     39 C18       11.3086    7.6388    4.7109 C.2       1 RES1    0.0000
     40 C19       13.5745    8.0230    5.3215 C.3       1 RES1    0.0000
     41 H14       14.4080    8.0273    4.8259 H         1 RES1    0.0000
     42 H15       13.4863    7.1607    5.7564 H         1 RES1    0.0000
     43 C20       13.6046    9.0803    6.3355 C.3       1 RES1    0.0000
     44 H16       13.5420    9.9362    5.9062 H         1 RES1    0.0000
     45 H17       14.4280    9.0290    6.8270 H         1 RES1    0.0000
     46 H18       12.8645    8.9692    6.9372 H         1 RES1    0.0000
     47 C21       10.6314    7.6785    2.2676 C.2       1 RES1    0.0000
     48 C22       11.8893    6.1956    0.8900 C.3       1 RES1    0.0000
     49 H19       11.4026    5.4004    0.6179 H         1 RES1    0.0000
     50 H20       11.7230    6.8905    0.2340 H         1 RES1    0.0000
     51 C23       13.2639    5.9119    0.9402 C.3       1 RES1    0.0000
     52 H21       13.7487    6.7167    1.1330 H         1 RES1    0.0000
     53 H22       13.5491    5.5606    0.0931 H         1 RES1    0.0000
     54 H23       13.4308    5.2634    1.6286 H         1 RES1    0.0000
@<TRIPOS>BOND
     1    1    2 1
     2    3    1 1
     3    4    1 1
     4    5    8 2
     5    6   23 2
     6    7    1 1
     7    9    7 ar
     8   10    9 1
     9   11    5 2
    10   12    9 ar
    11   13   12 1
    12   14   39 2
    13   15   12 ar
    14   16   39 1
    15   17   15 ar
    16   18   17 1
    17   19   47 2
    18   20    7 ar
    19   21   20 1
    20   22   47 1
    21   23   15 1
    22   24   23 1
    23   25   24 1
    24   26   24 1
    25   27   26 1
    26   28   24 1
    27   29   26 1
    28   30   29 ar
    29   31   30 1
    30   32   30 ar
    31   33   32 1
    32   34    5 1
    33   35   34 ar
    34   36   35 1
    35   37   29 ar
    36   38   37 1
    37   39   28 1
    38   40   16 1
    39   41   40 1
    40   42   40 1
    41   43   40 1
    42   44   43 1
    43   45   43 1
    44   46   43 1
    45   47   28 1
    46   48   22 1
    47   49   48 1
    48   50   48 1
    49   51   48 1
    50   52   51 1
    51   53   51 1
    52   54   51 1
    53   17   20 ar
    54   26   28 1
    55   32   34 ar
    56   35   37 ar
@<TRIPOS>SUBSTRUCTURE
     1 RES1 1

@<TRIPOS>CRYSIN
  13.9327   19.3010    8.1157  90.0000  93.7310  90.0000  14 1

