# MOL2 file generated by ConQuest
# Please check atom types

@<TRIPOS>MOLECULE
VURCUI01
    21    21     1
SMALL
NO_CHARGES
****
Generated from CSD

@<TRIPOS>ATOM
      1 C1         6.5205    2.1320    6.3515 C.ar      1 RES1    0.0000
      2 H1         5.6111    1.9716    6.5723 H         1 RES1    0.0000
      3 C2         7.1119    1.4397    5.3068 C.ar      1 RES1    0.0000
      4 H2         6.6067    0.7954    4.8244 H         1 RES1    0.0000
      5 C3         8.4281    1.6751    4.9589 C.ar      1 RES1    0.0000
      6 H3         8.8252    1.1935    4.2437 H         1 RES1    0.0000
      7 C4         9.1635    2.6140    5.6557 C.ar      1 RES1    0.0000
      8 H4        10.0628    2.7935    5.4095 H         1 RES1    0.0000
      9 C5         8.5846    3.2928    6.7163 C.ar      1 RES1    0.0000
     10 H5         9.1005    3.9241    7.2043 H         1 RES1    0.0000
     11 C6         7.2608    3.0653    7.0784 C.ar      1 RES1    0.0000
     12 C7         6.6348    3.8542    8.1776 C.2       1 RES1    0.0000
     13 N1         5.3899    4.1427    8.0267 N.2       1 RES1    0.0000
     14 N2         4.7309    4.8588    9.0228 N.3       1 RES1    0.0000
     15 H6         5.2501    5.4267    9.4157 H         1 RES1    0.0000
     16 H7         3.9925    5.2262    8.6487 H         1 RES1    0.0000
     17 C8         7.5087    4.2057    9.3054 C.2       1 RES1    0.0000
     18 H8         8.3328    3.7423    9.4025 H         1 RES1    0.0000
     19 N3         7.2097    5.1073   10.1609 N.2       1 RES1    0.0000
     20 O1         8.2031    5.2136   11.1287 O.3       1 RES1    0.0000
     21 H9         7.9835    5.9209   11.7355 H         1 RES1    0.0000
@<TRIPOS>BOND
     1    1    2 1
     2    3    1 ar
     3    4    3 1
     4    5    3 ar
     5    6    5 1
     6    7    5 ar
     7    8    7 1
     8    9    7 ar
     9   10    9 1
    10   11    1 ar
    11   12   11 1
    12   13   12 2
    13   14   13 1
    14   15   14 1
    15   16   14 1
    16   17   12 1
    17   18   17 1
    18   19   17 2
    19   20   19 1
    20   21   20 1
    21    9   11 ar
@<TRIPOS>SUBSTRUCTURE
     1 RES1 1

@<TRIPOS>CRYSIN
  11.9213    4.6621   15.1386  90.0000 104.3870  90.0000 231 1

