# MOL2 file generated by ConQuest
# Please check atom types

@<TRIPOS>MOLECULE
VUWRIO
    65    69     1
SMALL
NO_CHARGES
****
Generated from CSD

@<TRIPOS>ATOM
      1 O1        -0.6832   -1.1599  -13.9019 O.3       1 RES1    0.0000
      2 O2         0.0284   -3.1902  -12.4868 O.2       1 RES1    0.0000
      3 O3        -1.2919   -7.2875  -10.3094 O.3       1 RES1    0.0000
      4 O4         0.3247   -6.3603   -9.0735 O.2       1 RES1    0.0000
      5 O5        -0.8523  -13.3106   -9.3295 O.2       1 RES1    0.0000
      6 O6        -2.2321  -11.8886  -10.2055 O.2       1 RES1    0.0000
      7 O7         3.8149   -9.6696   -7.6045 O.2       1 RES1    0.0000
      8 O8         3.1182  -11.6522   -7.0944 O.2       1 RES1    0.0000
      9 N1        -1.1972  -12.1671   -9.6106 N.pl3     1 RES1    0.0000
     10 N2         2.9694  -10.5638   -7.5949 N.pl3     1 RES1    0.0000
     11 C1        -1.5287   -2.2575  -14.0501 C.3       1 RES1    0.0000
     12 C2        -1.0281   -3.3588  -13.0817 C.2       1 RES1    0.0000
     13 C3        -1.8804   -4.5663  -12.9316 C.3       1 RES1    0.0000
     14 C4        -1.4610   -5.8179  -12.1634 C.3       1 RES1    0.0000
     15 C5        -1.9210   -6.0066  -10.7041 C.3       1 RES1    0.0000
     16 C6        -3.3752   -6.1862  -10.5405 C.3       1 RES1    0.0000
     17 C7        -3.9366   -7.2710  -11.4569 C.3       1 RES1    0.0000
     18 C8        -3.6864   -6.8917  -12.9393 C.3       1 RES1    0.0000
     19 C9        -2.1915   -6.6681  -13.2550 C.3       1 RES1    0.0000
     20 C10       -1.9210   -5.4697  -14.2022 C.3       1 RES1    0.0000
     21 C11       -2.8612   -5.0519  -15.3438 C.3       1 RES1    0.0000
     22 C12       -2.9626   -3.5090  -15.5729 C.3       1 RES1    0.0000
     23 C13       -3.8961   -2.7944  -14.5776 C.3       1 RES1    0.0000
     24 C14       -2.9829   -1.9112  -13.6766 C.3       1 RES1    0.0000
     25 C15       -1.5151   -7.9838  -13.6535 C.3       1 RES1    0.0000
     26 C16       -1.6639   -2.6955  -15.5383 C.3       1 RES1    0.0000
     27 C17       -1.9142   -1.4183  -16.3661 C.3       1 RES1    0.0000
     28 C18       -0.3991   -3.3734  -16.0619 C.3       1 RES1    0.0000
     29 C19       -0.2773   -7.3058   -9.5374 C.2       1 RES1    0.0000
     30 C20        0.1420   -8.7424   -9.2313 C.ar      1 RES1    0.0000
     31 C21       -0.6832   -9.7942   -9.6029 C.ar      1 RES1    0.0000
     32 C22       -0.2909  -11.0714   -9.2737 C.ar      1 RES1    0.0000
     33 C23        0.8726  -11.3462   -8.6114 C.ar      1 RES1    0.0000
     34 C24        1.7113  -10.2871   -8.2822 C.ar      1 RES1    0.0000
     35 C25        1.3596   -8.9696   -8.5729 C.ar      1 RES1    0.0000
     36 H1         0.1556   -0.8429  -13.3801 H         1 RES1    0.0000
     37 H2        -2.5568   -4.0313  -12.5138 H         1 RES1    0.0000
     38 H3        -0.5479   -5.9553  -11.9555 H         1 RES1    0.0000
     39 H4        -1.8060   -5.2040  -10.2036 H         1 RES1    0.0000
     40 H5        -3.8081   -5.3506  -10.6464 H         1 RES1    0.0000
     41 H6        -3.4767   -6.4684   -9.6453 H         1 RES1    0.0000
     42 H7        -3.6390   -8.1542  -11.2817 H         1 RES1    0.0000
     43 H8        -4.8701   -7.2197  -11.3009 H         1 RES1    0.0000
     44 H9        -4.0111   -7.5861  -13.4957 H         1 RES1    0.0000
     45 H10       -4.1531   -6.0836  -13.1299 H         1 RES1    0.0000
     46 H11       -1.2108   -5.5155  -14.8433 H         1 RES1    0.0000
     47 H12       -3.7202   -5.4056  -15.1513 H         1 RES1    0.0000
     48 H13       -2.5365   -5.4422  -16.1524 H         1 RES1    0.0000
     49 H14       -3.3144   -3.4816  -16.4605 H         1 RES1    0.0000
     50 H15       -4.3695   -3.4449  -14.0732 H         1 RES1    0.0000
     51 H16       -4.5048   -2.2355  -15.0551 H         1 RES1    0.0000
     52 H17       -3.1520   -2.1256  -12.7641 H         1 RES1    0.0000
     53 H18       -3.1520   -0.9895  -13.8229 H         1 RES1    0.0000
     54 H19       -0.5817   -7.8060  -13.7074 H         1 RES1    0.0000
     55 H20       -1.6707   -8.7955  -13.1876 H         1 RES1    0.0000
     56 H21       -1.8736   -8.0442  -14.5353 H         1 RES1    0.0000
     57 H22       -1.1228   -0.9345  -16.1524 H         1 RES1    0.0000
     58 H23       -2.0089   -1.4659  -17.3075 H         1 RES1    0.0000
     59 H24       -2.6650   -0.9712  -15.9984 H         1 RES1    0.0000
     60 H25       -0.1962   -4.1046  -15.4786 H         1 RES1    0.0000
     61 H26       -0.6020   -3.7014  -16.9225 H         1 RES1    0.0000
     62 H27        0.3585   -2.7852  -16.1139 H         1 RES1    0.0000
     63 H28       -1.5287   -9.6018   -9.9918 H         1 RES1    0.0000
     64 H29        1.0552  -12.2404   -8.3169 H         1 RES1    0.0000
     65 H30        1.8195   -8.2092   -8.2206 H         1 RES1    0.0000
@<TRIPOS>BOND
     1    1   11 1
     2    2   12 2
     3    3   15 1
     4    4   29 2
     5    5    9 2
     6    6    9 2
     7    7   10 2
     8    8   10 2
     9    9   32 1
    10   10   34 1
    11   11   12 1
    12   12   13 1
    13   13   14 1
    14   14   15 1
    15   15   16 1
    16   16   17 1
    17   17   18 1
    18   18   19 1
    19   19   14 1
    20   20   13 1
    21   21   20 1
    22   22   21 1
    23   23   22 1
    24   24   11 1
    25   25   19 1
    26   26   11 1
    27   27   26 1
    28   28   26 1
    29   29    3 1
    30   30   29 1
    31   31   30 ar
    32   32   31 ar
    33   33   32 ar
    34   34   33 ar
    35   35   30 ar
    36   36    1 1
    37   37   13 1
    38   38   14 1
    39   39   15 1
    40   40   16 1
    41   41   16 1
    42   42   17 1
    43   43   17 1
    44   44   18 1
    45   45   18 1
    46   46   20 1
    47   47   21 1
    48   48   21 1
    49   49   22 1
    50   50   23 1
    51   51   23 1
    52   52   24 1
    53   53   24 1
    54   54   25 1
    55   55   25 1
    56   56   25 1
    57   57   27 1
    58   58   27 1
    59   59   27 1
    60   60   28 1
    61   61   28 1
    62   62   28 1
    63   63   31 1
    64   64   33 1
    65   65   35 1
    66   19   20 1
    67   22   26 1
    68   23   24 1
    69   34   35 ar
@<TRIPOS>SUBSTRUCTURE
     1 RES1 1

@<TRIPOS>CRYSIN
   6.7640   18.3240   19.2520  90.0000  90.0000  90.0000  19 1

