# MOL2 file generated by ConQuest
# Please check atom types

@<TRIPOS>MOLECULE
VUXLOR
    56    61     1
SMALL
NO_CHARGES
****
Generated from CSD

@<TRIPOS>ATOM
      1 C1         4.1431   13.3305    8.8964 C.ar      1 RES1    0.0000
      2 C2         4.5285   13.8497   10.1193 C.ar      1 RES1    0.0000
      3 H1         5.2374   14.4494   10.1792 H         1 RES1    0.0000
      4 C3         3.8391   13.4593   11.2474 C.ar      1 RES1    0.0000
      5 H2         4.0749   13.8198   12.0713 H         1 RES1    0.0000
      6 C4         2.8073   12.5492   11.1812 C.ar      1 RES1    0.0000
      7 H3         2.3641   12.3023   11.9595 H         1 RES1    0.0000
      8 C5         2.4233   11.9971    9.9690 C.ar      1 RES1    0.0000
      9 H4         1.7355   11.3733    9.9186 H         1 RES1    0.0000
     10 C6         3.1056   12.4126    8.8305 C.ar      1 RES1    0.0000
     11 C7         2.9018   12.0201    7.4258 C.2       1 RES1    0.0000
     12 C8         3.6582   13.0723    6.5859 C.3       1 RES1    0.0000
     13 C9         4.7437   13.6164    7.5305 C.3       1 RES1    0.0000
     14 H5         4.8270   14.5847    7.4072 H         1 RES1    0.0000
     15 C10        3.9320   12.6552    5.1451 C.3       1 RES1    0.0000
     16 H6         4.0288   11.6809    5.0850 H         1 RES1    0.0000
     17 C11        2.6200   13.0926    4.5211 C.2       1 RES1    0.0000
     18 C12        2.1654   12.7305    3.1739 C.ar      1 RES1    0.0000
     19 C13        1.0908   13.4129    2.5838 C.ar      1 RES1    0.0000
     20 H7         0.6576   14.0884    3.0544 H         1 RES1    0.0000
     21 C14        0.6741   13.0910    1.3153 C.ar      1 RES1    0.0000
     22 H8        -0.0300   13.5655    0.9351 H         1 RES1    0.0000
     23 C15        1.2723   12.0789    0.5876 C.ar      1 RES1    0.0000
     24 C16        2.3210   11.3874    1.1865 C.ar      1 RES1    0.0000
     25 H9         2.7299   10.6904    0.7253 H         1 RES1    0.0000
     26 C17        2.7678   11.7166    2.4568 C.ar      1 RES1    0.0000
     27 H10        3.4803   11.2502    2.8296 H         1 RES1    0.0000
     28 C18        0.8211   11.7313   -0.8128 C.3       1 RES1    0.0000
     29 H11        1.3538   11.0083   -1.1508 H         1 RES1    0.0000
     30 H12       -0.1011   11.4676   -0.7956 H         1 RES1    0.0000
     31 H13        0.9253   12.4971   -1.3814 H         1 RES1    0.0000
     32 C19        6.1022   12.9704    7.3664 C.ar      1 RES1    0.0000
     33 C20        6.2507   11.5929    7.4311 C.ar      1 RES1    0.0000
     34 H14        5.5102   11.0575    7.6056 H         1 RES1    0.0000
     35 C21        7.4878   11.0081    7.2391 C.ar      1 RES1    0.0000
     36 H15        7.5710   10.0813    7.2712 H         1 RES1    0.0000
     37 C22        8.5856   11.7756    7.0025 C.ar      1 RES1    0.0000
     38 H16        9.4148   11.3753    6.8722 H         1 RES1    0.0000
     39 C23        8.4663   13.1328    6.9579 C.ar      1 RES1    0.0000
     40 H17        9.2197   13.6578    6.8053 H         1 RES1    0.0000
     41 C24        7.2276   13.7396    7.1375 C.ar      1 RES1    0.0000
     42 H18        7.1563   14.6667    7.1040 H         1 RES1    0.0000
     43 C25        5.1023   13.3420    4.4722 C.ar      1 RES1    0.0000
     44 C26        5.1329   14.7229    4.3418 C.ar      1 RES1    0.0000
     45 H19        4.4118   15.2307    4.6353 H         1 RES1    0.0000
     46 C27        6.2315   15.3492    3.7775 C.ar      1 RES1    0.0000
     47 H20        6.2501   16.2766    3.7048 H         1 RES1    0.0000
     48 C28        7.2950   14.6019    3.3243 C.ar      1 RES1    0.0000
     49 H21        8.0326   15.0236    2.9461 H         1 RES1    0.0000
     50 C29        7.2646   13.2335    3.4318 C.ar      1 RES1    0.0000
     51 H22        7.9817   12.7288    3.1225 H         1 RES1    0.0000
     52 C30        6.1733   12.6029    3.9987 C.ar      1 RES1    0.0000
     53 H23        6.1579   11.6747    4.0622 H         1 RES1    0.0000
     54 N1         1.9459   13.9074    5.2446 N.2       1 RES1    0.0000
     55 O1         2.2678   11.0905    6.9829 O.2       1 RES1    0.0000
     56 O2         2.6339   14.1241    6.4644 O.3       1 RES1    0.0000
@<TRIPOS>BOND
     1    1    2 ar
     2    2    3 1
     3    4    2 ar
     4    5    4 1
     5    6    4 ar
     6    7    6 1
     7    8    6 ar
     8    9    8 1
     9   10    1 ar
    10   11   10 1
    11   12   11 1
    12   13    1 1
    13   14   13 1
    14   15   12 1
    15   16   15 1
    16   17   15 1
    17   18   17 1
    18   19   18 ar
    19   20   19 1
    20   21   19 ar
    21   22   21 1
    22   23   21 ar
    23   24   23 ar
    24   25   24 1
    25   26   18 ar
    26   27   26 1
    27   28   23 1
    28   29   28 1
    29   30   28 1
    30   31   28 1
    31   32   13 1
    32   33   32 ar
    33   34   33 1
    34   35   33 ar
    35   36   35 1
    36   37   35 ar
    37   38   37 1
    38   39   37 ar
    39   40   39 1
    40   41   32 ar
    41   42   41 1
    42   43   15 1
    43   44   43 ar
    44   45   44 1
    45   46   44 ar
    46   47   46 1
    47   48   46 ar
    48   49   48 1
    49   50   48 ar
    50   51   50 1
    51   52   43 ar
    52   53   52 1
    53   54   17 2
    54   55   11 2
    55   56   12 1
    56    8   10 ar
    57   12   13 1
    58   24   26 ar
    59   39   41 ar
    60   50   52 ar
    61   54   56 1
@<TRIPOS>SUBSTRUCTURE
     1 RES1 1

@<TRIPOS>CRYSIN
   9.7381   20.5072   11.8261  90.0000 102.8360  90.0000 231 1

