# MOL2 file generated by ConQuest
# Please check atom types

@<TRIPOS>MOLECULE
VUXVEP
    60    64     1
SMALL
NO_CHARGES
****
Generated from CSD

@<TRIPOS>ATOM
      1 C1         6.0219    7.2743    2.6677 C.3       1 RES1    0.0000
      2 C2         5.5911    6.6911    1.3419 C.2       1 RES1    0.0000
      3 C3         4.3432    6.8847    0.9097 C.2       1 RES1    0.0000
      4 C4         3.3433    7.6753    1.5526 C.2       1 RES1    0.0000
      5 C5         3.7177    8.4339    2.5877 C.2       1 RES1    0.0000
      6 C6         2.7380    9.3725    3.2279 C.3       1 RES1    0.0000
      7 C7         2.8680    9.4409    4.7538 C.3       1 RES1    0.0000
      8 C8         4.2986    9.7450    5.1567 C.3       1 RES1    0.0000
      9 C9         5.2427    8.6788    4.5911 C.3       1 RES1    0.0000
     10 C10        5.1818    8.5353    3.0492 C.3       1 RES1    0.0000
     11 C11        6.7008    8.8519    5.0873 C.3       1 RES1    0.0000
     12 C12        6.7899    8.9841    6.6266 C.3       1 RES1    0.0000
     13 C13        5.8785   10.0958    7.1308 C.3       1 RES1    0.0000
     14 C14        4.4613    9.7860    6.6799 C.3       1 RES1    0.0000
     15 C15        3.5766   10.7611    7.4722 C.3       1 RES1    0.0000
     16 C16        4.3424   10.9251    8.8061 C.3       1 RES1    0.0000
     17 C17        5.6742   10.1813    8.6647 C.3       1 RES1    0.0000
     18 C18        6.3888   11.4582    6.6319 C.3       1 RES1    0.0000
     19 C19        5.7634    9.7496    2.3049 C.3       1 RES1    0.0000
     20 C20        5.6200    8.8497    9.3156 C.1       1 RES1    0.0000
     21 O1         6.7743   10.9035    9.2462 O.3       1 RES1    0.0000
     22 C21        5.5599    7.8598    9.9292 C.1       1 RES1    0.0000
     23 O2         4.1359    6.2070   -0.2534 O.3       1 RES1    0.0000
     24 N1         5.3244    5.5315   -0.5869 N.2       1 RES1    0.0000
     25 C22        6.1764    5.8390    0.3735 C.2       1 RES1    0.0000
     26 C23        7.5275    5.2535    0.3735 C.2       1 RES1    0.0000
     27 O3         8.3275    5.4586    1.2431 O.2       1 RES1    0.0000
     28 O4         7.7459    4.4721   -0.6749 O.3       1 RES1    0.0000
     29 C24        9.0295    3.7875   -0.7336 C.3       1 RES1    0.0000
     30 C25        9.1305    3.1063   -2.0114 C.3       1 RES1    0.0000
     31 H1         6.9823    7.5408    2.6143 H         1 RES1    0.0000
     32 H2         5.9053    6.5840    3.3880 H         1 RES1    0.0000
     33 H3         2.3918    7.6661    1.2271 H         1 RES1    0.0000
     34 H4         2.8821   10.2861    2.8544 H         1 RES1    0.0000
     35 H5         1.8124    9.0672    2.9878 H         1 RES1    0.0000
     36 H6         2.2655   10.1608    5.0953 H         1 RES1    0.0000
     37 H7         2.5924    8.5660    5.1487 H         1 RES1    0.0000
     38 H8         4.5237   10.6506    4.7752 H         1 RES1    0.0000
     39 H9         4.9025    7.8028    4.9619 H         1 RES1    0.0000
     40 H10        7.2349    8.0648    4.8019 H         1 RES1    0.0000
     41 H11        7.0789    9.6823    4.6685 H         1 RES1    0.0000
     42 H12        6.5144    8.1218    7.0427 H         1 RES1    0.0000
     43 H13        7.7325    9.1925    6.8827 H         1 RES1    0.0000
     44 H14        4.1745    8.8508    6.8827 H         1 RES1    0.0000
     45 H15        3.4912   11.6416    6.9894 H         1 RES1    0.0000
     46 H16        2.6667   10.3772    7.6296 H         1 RES1    0.0000
     47 H17        4.5014   11.8922    8.9901 H         1 RES1    0.0000
     48 H18        3.8106   10.5253    9.5504 H         1 RES1    0.0000
     49 H19        5.7864   12.1770    6.9627 H         1 RES1    0.0000
     50 H20        6.4029   11.4707    5.6288 H         1 RES1    0.0000
     51 H21        7.3166   11.6074    6.9894 H         1 RES1    0.0000
     52 H22        6.7223    9.8646    2.5610 H         1 RES1    0.0000
     53 H23        5.2442   10.5708    2.5610 H         1 RES1    0.0000
     54 H24        5.5041    7.0055   10.4574 H         1 RES1    0.0000
     55 H25        9.7678    4.4539   -0.6402 H         1 RES1    0.0000
     56 H26        9.0919    3.1211    0.0000 H         1 RES1    0.0000
     57 H27       10.0129    2.6313   -2.0541 H         1 RES1    0.0000
     58 H28        9.0696    3.7704   -2.7477 H         1 RES1    0.0000
     59 H29        8.3936    2.4377   -2.0808 H         1 RES1    0.0000
     60 H30        6.6035   11.0379   10.1906 H         1 RES1    0.0000
@<TRIPOS>BOND
     1    1    2 1
     2    2    3 2
     3    3    4 1
     4    4    5 2
     5    5    6 1
     6    6    7 1
     7    7    8 1
     8    8    9 1
     9    9   10 1
    10   10    1 1
    11   11    9 1
    12   12   11 1
    13   13   12 1
    14   14    8 1
    15   15   14 1
    16   16   15 1
    17   17   13 1
    18   18   13 1
    19   19   10 1
    20   20   17 1
    21   21   17 1
    22   22   20 3
    23   23    3 1
    24   24   23 1
    25   25    2 1
    26   26   25 1
    27   27   26 2
    28   28   26 1
    29   29   28 1
    30   30   29 1
    31   31    1 1
    32   32    1 1
    33   33    4 1
    34   34    6 1
    35   35    6 1
    36   36    7 1
    37   37    7 1
    38   38    8 1
    39   39    9 1
    40   40   11 1
    41   41   11 1
    42   42   12 1
    43   43   12 1
    44   44   14 1
    45   45   15 1
    46   46   15 1
    47   47   16 1
    48   48   16 1
    49   49   18 1
    50   50   18 1
    51   51   18 1
    52   52   19 1
    53   53   19 1
    54   54   22 1
    55   55   29 1
    56   56   29 1
    57   57   30 1
    58   58   30 1
    59   59   30 1
    60   60   21 1
    61    5   10 1
    62   13   14 1
    63   16   17 1
    64   24   25 2
@<TRIPOS>SUBSTRUCTURE
     1 RES1 1

@<TRIPOS>CRYSIN
   7.4280   11.3910   26.6770  90.0000  90.0000  90.0000  19 1

