# MOL2 file generated by ConQuest
# Please check atom types

@<TRIPOS>MOLECULE
VUXWUG
    35    37     1
SMALL
NO_CHARGES
****
Generated from CSD

@<TRIPOS>ATOM
      1 N1         7.1694    6.0816    8.2257 N.pl3     1 RES1    0.0000
      2 N2         8.2666    6.3157    9.0164 N.2       1 RES1    0.0000
      3 C1         8.0296    7.5168    9.5050 C.2       1 RES1    0.0000
      4 N3         6.8520    8.0706    9.0773 N.2       1 RES1    0.0000
      5 C2         6.3437    7.1392    8.2638 C.2       1 RES1    0.0000
      6 C3         5.0993    7.1892    7.4779 C.3       1 RES1    0.0000
      7 C4         7.1418    4.9318    7.3950 C.2       1 RES1    0.0000
      8 N4         6.3851    3.9255    7.6341 N.2       1 RES1    0.0000
      9 O1         5.6513    4.0859    8.8135 O.3       1 RES1    0.0000
     10 C5         8.4230    3.7479    5.6061 C.ar      1 RES1    0.0000
     11 C6         9.3039    3.7729    4.5372 C.ar      1 RES1    0.0000
     12 C7         9.8260    4.9713    4.1009 C.ar      1 RES1    0.0000
     13 C8         9.4718    6.1447    4.6992 C.ar      1 RES1    0.0000
     14 C9         8.5679    6.1368    5.7699 C.ar      1 RES1    0.0000
     15 C10        8.0504    4.9279    6.2329 C.ar      1 RES1    0.0000
     16 C11        8.6300    9.3677   11.0559 C.ar      1 RES1    0.0000
     17 C12        9.5408    9.9820   11.9227 C.ar      1 RES1    0.0000
     18 C13       10.7438    9.3992   12.1580 C.ar      1 RES1    0.0000
     19 C14       11.0819    8.2390   11.5531 C.ar      1 RES1    0.0000
     20 C15       10.1825    7.6075   10.6834 C.ar      1 RES1    0.0000
     21 C16        8.9543    8.1798   10.4386 C.ar      1 RES1    0.0000
     22 H1         5.2672    3.1704    9.0402 H         1 RES1    0.0000
     23 H2         4.5542    7.9062    7.8590 H         1 RES1    0.0000
     24 H3         4.6692    6.3276    7.6399 H         1 RES1    0.0000
     25 H4         5.1982    7.3273    6.5158 H         1 RES1    0.0000
     26 H5         8.0504    2.8941    5.9156 H         1 RES1    0.0000
     27 H6         9.5454    2.9336    4.0867 H         1 RES1    0.0000
     28 H7        10.4655    4.9857    3.3532 H         1 RES1    0.0000
     29 H8         9.8444    6.9853    4.3820 H         1 RES1    0.0000
     30 H9         8.3034    6.9722    6.1919 H         1 RES1    0.0000
     31 H10        7.7513    9.7873   10.8882 H         1 RES1    0.0000
     32 H11        9.3154   10.8266   12.3552 H         1 RES1    0.0000
     33 H12       11.3625    9.8268   12.7744 H         1 RES1    0.0000
     34 H13       11.9605    7.8404   11.7265 H         1 RES1    0.0000
     35 H14       10.4195    6.7617   10.2500 H         1 RES1    0.0000
@<TRIPOS>BOND
     1    1    2 1
     2    2    3 2
     3    3    4 1
     4    4    5 2
     5    5    1 1
     6    6    5 1
     7    7    1 1
     8    8    7 2
     9    9    8 1
    10   10   11 ar
    11   11   12 ar
    12   12   13 ar
    13   13   14 ar
    14   14   15 ar
    15   15    7 1
    16   16   17 ar
    17   17   18 ar
    18   18   19 ar
    19   19   20 ar
    20   20   21 ar
    21   21    3 1
    22   22    9 1
    23   23    6 1
    24   24    6 1
    25   25    6 1
    26   26   10 1
    27   27   11 1
    28   28   12 1
    29   29   13 1
    30   30   14 1
    31   31   16 1
    32   32   17 1
    33   33   18 1
    34   34   19 1
    35   35   20 1
    36   10   15 ar
    37   16   21 ar
@<TRIPOS>SUBSTRUCTURE
     1 RES1 1

@<TRIPOS>CRYSIN
  23.0010   13.1550    9.5260  90.0000  90.0000  90.0000  61 1

