# MOL2 file generated by ConQuest
# Please check atom types

@<TRIPOS>MOLECULE
VUZHII
    34    35     1
SMALL
NO_CHARGES
****
Generated from CSD

@<TRIPOS>ATOM
      1 N1         3.2901   12.4189   -3.1995 N.pl3     1 RES1    0.0000
      2 N2         1.5144    7.5293    0.6036 N.2       1 RES1    0.0000
      3 N3         1.2921    6.7321    1.7119 N.am      1 RES1    0.0000
      4 O1         3.6382   11.9911   -4.2791 O.2       1 RES1    0.0000
      5 O2         3.2287   13.6012   -2.9342 O.2       1 RES1    0.0000
      6 O3         0.2462    5.1272    0.4932 O.2       1 RES1    0.0000
      7 C1         2.9133   11.4598   -2.1535 C.ar      1 RES1    0.0000
      8 C2         2.9086   10.1164   -2.4482 C.ar      1 RES1    0.0000
      9 H1         3.1411    9.8164   -3.2970 H         1 RES1    0.0000
     10 C3         2.5527    9.2254   -1.4603 C.ar      1 RES1    0.0000
     11 H2         2.5362    8.3152   -1.6496 H         1 RES1    0.0000
     12 C4         2.2164    9.6655   -0.1842 C.ar      1 RES1    0.0000
     13 C5         2.2485   11.0265    0.0810 C.ar      1 RES1    0.0000
     14 H3         2.0395   11.3333    0.9334 H         1 RES1    0.0000
     15 C6         2.5868   11.9300   -0.9076 C.ar      1 RES1    0.0000
     16 H4         2.5940   12.8423   -0.7305 H         1 RES1    0.0000
     17 C7         1.8643    8.7252    0.8746 C.2       1 RES1    0.0000
     18 H5         1.8961    9.0016    1.7621 H         1 RES1    0.0000
     19 C8         0.6560    5.5477    1.5729 C.2       1 RES1    0.0000
     20 C9         0.4610    4.8168    2.8611 C.ar      1 RES1    0.0000
     21 C10        0.6945    3.4395    2.9522 C.ar      1 RES1    0.0000
     22 C11        0.4685    2.8422    4.1874 C.ar      1 RES1    0.0000
     23 H6         0.6429    1.9334    4.2877 H         1 RES1    0.0000
     24 C12       -0.0052    3.5511    5.2641 C.ar      1 RES1    0.0000
     25 H7        -0.1624    3.1123    6.0692 H         1 RES1    0.0000
     26 C13       -0.2498    4.8995    5.1681 C.ar      1 RES1    0.0000
     27 H8        -0.5738    5.3758    5.8972 H         1 RES1    0.0000
     28 C14       -0.0060    5.5254    3.9709 C.ar      1 RES1    0.0000
     29 H9        -0.1541    6.4395    3.8977 H         1 RES1    0.0000
     30 C15        1.1745    2.6088    1.7937 C.3       1 RES1    0.0000
     31 H10        0.4777    2.5412    1.1363 H         1 RES1    0.0000
     32 H11        1.4065    1.7291    2.1041 H         1 RES1    0.0000
     33 H12        1.9466    3.0232    1.4008 H         1 RES1    0.0000
     34 H13        1.6414    6.9922    2.5020 H         1 RES1    0.0000
@<TRIPOS>BOND
     1    1    4 2
     2    2    3 1
     3    3   19 1
     4    5    1 2
     5    6   19 2
     6    7    1 1
     7    8    7 ar
     8    9    8 1
     9   10    8 ar
    10   11   10 1
    11   12   10 ar
    12   13   12 ar
    13   14   13 1
    14   15    7 ar
    15   16   15 1
    16   17    2 2
    17   18   17 1
    18   19   20 1
    19   20   21 ar
    20   21   22 ar
    21   22   23 1
    22   24   22 ar
    23   25   24 1
    24   26   24 ar
    25   27   26 1
    26   28   20 ar
    27   29   28 1
    28   30   21 1
    29   31   30 1
    30   32   30 1
    31   33   30 1
    32   34    3 1
    33   12   17 1
    34   13   15 ar
    35   26   28 ar
@<TRIPOS>SUBSTRUCTURE
     1 RES1 1

@<TRIPOS>CRYSIN
   7.4160   26.1980    7.8600  90.0000 114.2060  90.0000 231 1

