# MOL2 file generated by ConQuest
# Please check atom types

@<TRIPOS>MOLECULE
VUZQUD
    16    16     1
SMALL
NO_CHARGES
****
Generated from CSD

@<TRIPOS>ATOM
      1 C1         9.1690    1.2665    5.1288 C.2       1 RES1    0.0000
      2 C2         8.2264    0.9381    6.1972 C.2       1 RES1    0.0000
      3 C3         8.7698    0.2867    7.3746 C.2       1 RES1    0.0000
      4 H1         8.1964    0.0454    8.0665 H         1 RES1    0.0000
      5 C4        10.0650    0.0275    7.4837 C.2       1 RES1    0.0000
      6 H2        10.3847   -0.3982    8.2461 H         1 RES1    0.0000
      7 C5        10.9746    0.3921    6.4496 C.2       1 RES1    0.0000
      8 H3        11.8811    0.2108    6.5533 H         1 RES1    0.0000
      9 C6        10.5483    0.9923    5.3267 C.2       1 RES1    0.0000
     10 H4        11.1622    1.2313    4.6711 H         1 RES1    0.0000
     11 N1         8.6467    1.8079    4.0573 N.2       1 RES1    0.0000
     12 N2         6.9477    1.1714    6.2325 N.2       1 RES1    0.0000
     13 O1         9.5877    2.1278    3.1066 O.3       1 RES1    0.0000
     14 H5         9.0504    2.4359    2.5238 H         1 RES1    0.0000
     15 O2         6.3563    1.7556    5.1342 O.3       1 RES1    0.0000
     16 H6         7.1593    2.0656    4.5129 H         1 RES1    0.0000
@<TRIPOS>BOND
     1    1    2 1
     2    2    3 1
     3    3    4 1
     4    5    3 2
     5    6    5 1
     6    7    5 1
     7    8    7 1
     8    9    1 1
     9   10    9 1
    10   11    1 2
    11   12    2 2
    12   13   11 1
    13   14   13 1
    14   15   12 1
    15   16   15 1
    16    7    9 2
@<TRIPOS>SUBSTRUCTURE
     1 RES1 1

@<TRIPOS>CRYSIN
  15.0090    3.8181   10.6940  90.0000  90.0000  90.0000  29 1

