# MOL2 file generated by ConQuest
# Please check atom types

@<TRIPOS>MOLECULE
VUZYIZ
    57    59     1
SMALL
NO_CHARGES
****
Generated from CSD

@<TRIPOS>ATOM
      1 O1         7.7921    5.6738   11.2733 O.3       1 RES1    0.0000
      2 H1         7.8954    5.1384   10.6202 H         1 RES1    0.0000
      3 O2         9.3908    8.8438    8.1925 O.2       1 RES1    0.0000
      4 O3         9.6048    7.1525    6.2313 O.3       1 RES1    0.0000
      5 H2         9.5931    7.6522    6.9311 H         1 RES1    0.0000
      6 O4         7.7241    4.0481    9.1953 O.2       1 RES1    0.0000
      7 O5        13.3685    4.6712    5.9505 O.2       1 RES1    0.0000
      8 O6        15.2059    5.4673    6.7793 O.2       1 RES1    0.0000
      9 N1        13.9810    5.3480    6.7712 N.pl3     1 RES1    0.0000
     10 C1         8.8287    7.1944    9.7661 C.2       1 RES1    0.0000
     11 C2         8.0574    6.9200   10.8597 C.2       1 RES1    0.0000
     12 C3         7.4770    7.9688   11.7567 C.3       1 RES1    0.0000
     13 H3         8.1059    8.1358   12.5023 H         1 RES1    0.0000
     14 H4         6.6334    7.6271   12.1453 H         1 RES1    0.0000
     15 C4         7.1929    9.2961   11.0415 C.3       1 RES1    0.0000
     16 C5         8.4272    9.6611   10.2076 C.3       1 RES1    0.0000
     17 H5         8.2150   10.4567    9.6575 H         1 RES1    0.0000
     18 H6         9.1643    9.9074   10.8221 H         1 RES1    0.0000
     19 C6         8.9025    8.5610    9.3006 C.2       1 RES1    0.0000
     20 C7         5.9573    9.1499   10.1445 C.3       1 RES1    0.0000
     21 H7         5.1811    8.9152   10.6936 H         1 RES1    0.0000
     22 H8         6.1153    8.4438    9.4839 H         1 RES1    0.0000
     23 H9         5.7864    9.9974    9.6825 H         1 RES1    0.0000
     24 C8         6.9354   10.3978   12.0688 C.3       1 RES1    0.0000
     25 H10        6.1464   10.1678   12.6041 H         1 RES1    0.0000
     26 H11        6.7800   11.2474   11.6047 H         1 RES1    0.0000
     27 H12        7.7149   10.4853   12.6558 H         1 RES1    0.0000
     28 C9         9.6039    6.1081    9.0448 C.3       1 RES1    0.0000
     29 H13        9.6200    5.3503    9.6975 H         1 RES1    0.0000
     30 C10        8.9301    5.5174    7.8142 C.2       1 RES1    0.0000
     31 C11        9.0459    5.9866    6.5423 C.2       1 RES1    0.0000
     32 C12        8.5841    5.2197    5.3371 C.3       1 RES1    0.0000
     33 H14        9.2553    5.3227    4.6168 H         1 RES1    0.0000
     34 H15        7.7333    5.6116    5.0156 H         1 RES1    0.0000
     35 C13        8.3707    3.7259    5.6036 C.3       1 RES1    0.0000
     36 C14        7.5142    3.6111    6.8714 C.3       1 RES1    0.0000
     37 H16        6.6027    3.9412    6.6725 H         1 RES1    0.0000
     38 H17        7.4407    2.6557    7.1213 H         1 RES1    0.0000
     39 C15        8.0635    4.3804    8.0452 C.2       1 RES1    0.0000
     40 C16        7.6446    3.0884    4.4169 C.3       1 RES1    0.0000
     41 H18        7.5095    2.1341    4.5918 H         1 RES1    0.0000
     42 H19        8.1840    3.1990    3.6057 H         1 RES1    0.0000
     43 H20        6.7762    3.5242    4.2931 H         1 RES1    0.0000
     44 C17        9.7086    3.0082    5.7968 C.3       1 RES1    0.0000
     45 H21        9.5470    2.0571    5.9683 H         1 RES1    0.0000
     46 H22       10.1835    3.4014    6.5590 H         1 RES1    0.0000
     47 H23       10.2521    3.1073    4.9872 H         1 RES1    0.0000
     48 C18       11.0869    6.4574    8.8496 C.ar      1 RES1    0.0000
     49 C19       11.7535    7.3002    9.7452 C.ar      1 RES1    0.0000
     50 H24       11.2568    7.7413   10.4250 H         1 RES1    0.0000
     51 C20       13.1248    7.5076    9.6653 C.ar      1 RES1    0.0000
     52 H25       13.5487    8.0882   10.2865 H         1 RES1    0.0000
     53 C21       13.8853    6.8778    8.6889 C.ar      1 RES1    0.0000
     54 H26       14.8235    7.0112    8.6263 H         1 RES1    0.0000
     55 C22       13.2132    6.0476    7.8119 C.ar      1 RES1    0.0000
     56 C23       11.8423    5.8237    7.8678 C.ar      1 RES1    0.0000
     57 H27       11.4251    5.2439    7.2414 H         1 RES1    0.0000
@<TRIPOS>BOND
     1    1    2 1
     2    3   19 2
     3    4    5 1
     4    6   39 2
     5    7    9 2
     6    8    9 2
     7    9   55 1
     8   10   11 2
     9   11    1 1
    10   12   11 1
    11   13   12 1
    12   14   12 1
    13   15   12 1
    14   16   15 1
    15   17   16 1
    16   18   16 1
    17   19   10 1
    18   20   15 1
    19   21   20 1
    20   22   20 1
    21   23   20 1
    22   24   15 1
    23   25   24 1
    24   26   24 1
    25   27   24 1
    26   28   10 1
    27   29   28 1
    28   30   28 1
    29   31    4 1
    30   32   31 1
    31   33   32 1
    32   34   32 1
    33   35   32 1
    34   36   35 1
    35   37   36 1
    36   38   36 1
    37   39   30 1
    38   40   35 1
    39   41   40 1
    40   42   40 1
    41   43   40 1
    42   44   35 1
    43   45   44 1
    44   46   44 1
    45   47   44 1
    46   48   28 1
    47   49   48 ar
    48   50   49 1
    49   51   49 ar
    50   52   51 1
    51   53   51 ar
    52   54   53 1
    53   55   53 ar
    54   56   48 ar
    55   57   56 1
    56   16   19 1
    57   30   31 2
    58   36   39 1
    59   55   56 ar
@<TRIPOS>SUBSTRUCTURE
     1 RES1 1

@<TRIPOS>CRYSIN
  14.2326    8.6505   16.8410  90.0000  97.7960  90.0000 231 1

