# MOL2 file generated by ConQuest
# Please check atom types

@<TRIPOS>MOLECULE
WACBIL
    60    63     1
SMALL
NO_CHARGES
****
Generated from CSD

@<TRIPOS>ATOM
      1 O1        10.9941   22.7373    1.5561 O.3       1 RES1    0.0000
      2 O2        13.6412   27.3611   -0.8037 O.3       1 RES1    0.0000
      3 O3        12.3788   22.3018   -0.1642 O.2       1 RES1    0.0000
      4 O4        16.1479   23.9019    5.8239 O.2       1 RES1    0.0000
      5 O5        17.5738   23.2795    4.3463 O.2       1 RES1    0.0000
      6 N1        16.4191   23.4798    4.7082 N.pl3     1 RES1    0.0000
      7 C1         9.0465   21.2521    1.1449 C.3       1 RES1    0.0000
      8 C2         9.7909   22.5476    0.7409 C.3       1 RES1    0.0000
      9 C3         8.8032   23.6775    1.0793 C.3       1 RES1    0.0000
     10 C4         7.5226   22.8895    1.4861 C.3       1 RES1    0.0000
     11 C5         6.9695   22.1790    0.2498 C.3       1 RES1    0.0000
     12 C6         8.0213   21.0651    0.0000 C.3       1 RES1    0.0000
     13 C7         8.1145   21.7249    2.3177 C.3       1 RES1    0.0000
     14 C8         8.8589   22.1442    3.5669 C.3       1 RES1    0.0000
     15 C9         7.0954   20.6564    2.7546 C.3       1 RES1    0.0000
     16 C10        9.9313   20.0474    1.3919 C.3       1 RES1    0.0000
     17 C11        8.6471   24.7326   -0.0286 C.3       1 RES1    0.0000
     18 C12        9.9471   25.4459   -0.2855 C.ar      1 RES1    0.0000
     19 C13       10.5704   26.2071    0.7067 C.ar      1 RES1    0.0000
     20 C14       11.7615   26.8616    0.4997 C.ar      1 RES1    0.0000
     21 C15       12.4332   26.7280   -0.6924 C.ar      1 RES1    0.0000
     22 C16       11.8595   25.9988   -1.7203 C.ar      1 RES1    0.0000
     23 C17       10.6188   25.3577   -1.4704 C.ar      1 RES1    0.0000
     24 C18       12.1936   22.5770    1.0065 C.2       1 RES1    0.0000
     25 C19       13.2793   22.7907    1.9958 C.ar      1 RES1    0.0000
     26 C20       14.6071   22.6972    1.5739 C.ar      1 RES1    0.0000
     27 C21       15.6359   22.9029    2.4697 C.ar      1 RES1    0.0000
     28 C22       15.3285   23.2288    3.7689 C.ar      1 RES1    0.0000
     29 C23       14.0358   23.3089    4.2300 C.ar      1 RES1    0.0000
     30 C24       13.0057   23.0792    3.3227 C.ar      1 RES1    0.0000
     31 C25       14.3771   27.1875   -2.0201 C.3       1 RES1    0.0000
     32 H1        10.1553   22.5182   -0.2712 H         1 RES1    0.0000
     33 H2         9.1627   24.2011    1.9630 H         1 RES1    0.0000
     34 H3         6.7782   23.4531    2.0201 H         1 RES1    0.0000
     35 H4         6.0399   21.7703    0.5996 H         1 RES1    0.0000
     36 H5         6.8146   22.7586   -0.6424 H         1 RES1    0.0000
     37 H6         8.5575   21.1025   -0.9351 H         1 RES1    0.0000
     38 H7         7.6013   20.1141    0.2141 H         1 RES1    0.0000
     39 H8         8.1097   22.5449    4.2400 H         1 RES1    0.0000
     40 H9         9.6106   22.9189    3.4120 H         1 RES1    0.0000
     41 H10        9.2596   21.4497    4.2685 H         1 RES1    0.0000
     42 H11        6.4151   21.1025    3.4976 H         1 RES1    0.0000
     43 H12        7.7224   19.8470    3.0979 H         1 RES1    0.0000
     44 H13        6.5725   20.1943    1.9273 H         1 RES1    0.0000
     45 H14       10.5547   19.8203    0.5496 H         1 RES1    0.0000
     46 H15        9.3201   19.2326    1.7488 H         1 RES1    0.0000
     47 H16       10.6031   20.1408    2.2128 H         1 RES1    0.0000
     48 H17        7.8192   25.3497    0.2855 H         1 RES1    0.0000
     49 H18        8.2428   24.2278   -0.8851 H         1 RES1    0.0000
     50 H19       10.1189   26.2312    1.7131 H         1 RES1    0.0000
     51 H20       12.1524   27.5134    1.2848 H         1 RES1    0.0000
     52 H21       12.3824   25.9374   -2.6411 H         1 RES1    0.0000
     53 H22       10.1674   24.8689   -2.2842 H         1 RES1    0.0000
     54 H23       14.7427   22.5984    0.5211 H         1 RES1    0.0000
     55 H24       16.6793   23.0257    2.2128 H         1 RES1    0.0000
     56 H25       13.8954   23.5066    5.2750 H         1 RES1    0.0000
     57 H26       11.9830   23.1593    3.6475 H         1 RES1    0.0000
     58 H27       15.2995   27.6736   -1.7131 H         1 RES1    0.0000
     59 H28       13.6775   27.5668   -2.7838 H         1 RES1    0.0000
     60 H29       14.7064   26.1778   -2.0700 H         1 RES1    0.0000
@<TRIPOS>BOND
     1    1    8 1
     2    2   21 1
     3    3   24 2
     4    4    6 2
     5    5    6 2
     6    6   28 1
     7    7    8 1
     8    8    9 1
     9    9   10 1
    10   10   11 1
    11   11   12 1
    12   12    7 1
    13   13    7 1
    14   14   13 1
    15   15   13 1
    16   16    7 1
    17   17    9 1
    18   18   17 1
    19   19   18 ar
    20   20   19 ar
    21   21   20 ar
    22   22   21 ar
    23   23   18 ar
    24   24    1 1
    25   25   24 1
    26   26   25 ar
    27   27   26 ar
    28   28   27 ar
    29   29   28 ar
    30   30   25 ar
    31   31    2 1
    32   32    8 1
    33   33    9 1
    34   34   10 1
    35   35   11 1
    36   36   11 1
    37   37   12 1
    38   38   12 1
    39   39   14 1
    40   40   14 1
    41   41   14 1
    42   42   15 1
    43   43   15 1
    44   44   15 1
    45   45   16 1
    46   46   16 1
    47   47   16 1
    48   48   17 1
    49   49   17 1
    50   50   19 1
    51   51   20 1
    52   52   22 1
    53   53   23 1
    54   54   26 1
    55   55   27 1
    56   56   29 1
    57   57   30 1
    58   58   31 1
    59   59   31 1
    60   60   31 1
    61   10   13 1
    62   22   23 ar
    63   29   30 ar
@<TRIPOS>SUBSTRUCTURE
     1 RES1 1

@<TRIPOS>CRYSIN
  12.1040   26.7120    7.1380  90.0000  90.0000  90.0000  19 1

