# MOL2 file generated by ConQuest
# Please check atom types

@<TRIPOS>MOLECULE
WACFUD
    37    39     1
SMALL
NO_CHARGES
****
Generated from CSD

@<TRIPOS>ATOM
      1 C1         5.1909    0.4260    3.4409 C.ar      1 RES1    0.0000
      2 C2         4.4420    0.0105    4.5553 C.ar      1 RES1    0.0000
      3 C3         3.0305   -0.0837    4.4812 C.ar      1 RES1    0.0000
      4 H1         2.5437   -0.3722    5.2193 H         1 RES1    0.0000
      5 C4         2.3955    0.2459    3.3376 C.ar      1 RES1    0.0000
      6 H2         1.4672    0.1928    3.3083 H         1 RES1    0.0000
      7 C5         3.0927    0.6711    2.1765 C.ar      1 RES1    0.0000
      8 C6         2.4014    1.0163    0.9915 C.ar      1 RES1    0.0000
      9 H3         1.4724    0.9782    0.9769 H         1 RES1    0.0000
     10 C7         3.0695    1.3997   -0.1188 C.ar      1 RES1    0.0000
     11 H4         2.6007    1.6299   -0.8881 H         1 RES1    0.0000
     12 C8         4.4589    1.4505   -0.1101 C.ar      1 RES1    0.0000
     13 H5         4.9165    1.6964   -0.8818 H         1 RES1    0.0000
     14 C9         5.1604    1.1404    1.0280 C.ar      1 RES1    0.0000
     15 H6         6.0885    1.1912    1.0182 H         1 RES1    0.0000
     16 C10        4.5050    0.7481    2.2083 C.ar      1 RES1    0.0000
     17 C11        6.6085    0.5381    3.5539 C.2       1 RES1    0.0000
     18 H7         7.0975    0.8056    2.8103 H         1 RES1    0.0000
     19 C12        8.6470    0.3580    4.7407 C.ar      1 RES1    0.0000
     20 C13        9.2053    0.7899    5.9598 C.ar      1 RES1    0.0000
     21 C14       10.5938    0.8295    5.9831 C.ar      1 RES1    0.0000
     22 C15       11.4021    0.4686    4.9366 C.ar      1 RES1    0.0000
     23 H8        12.3271    0.5246    5.0100 H         1 RES1    0.0000
     24 C16       10.8130    0.0202    3.7712 C.ar      1 RES1    0.0000
     25 H9        11.3392   -0.2414    3.0514 H         1 RES1    0.0000
     26 C17        9.4426   -0.0359    3.6840 C.ar      1 RES1    0.0000
     27 H10        9.0456   -0.3445    2.9023 H         1 RES1    0.0000
     28 C18        8.3307    1.2383    7.0908 C.3       1 RES1    0.0000
     29 H11        8.8783    1.4984    7.8346 H         1 RES1    0.0000
     30 H12        7.7541    0.5171    7.3540 H         1 RES1    0.0000
     31 H13        7.7994    1.9856    6.8069 H         1 RES1    0.0000
     32 N1         7.2407    0.2802    4.6590 N.2       1 RES1    0.0000
     33 N2        11.2993    1.3048    7.1919 N.pl3     1 RES1    0.0000
     34 O1         5.0160   -0.3071    5.7132 O.3       1 RES1    0.0000
     35 O2        10.9449    0.9147    8.2766 O.2       1 RES1    0.0000
     36 O3        12.2382    2.0648    7.0154 O.2       1 RES1    0.0000
     37 H14        6.0614   -0.1719    5.4398 H         1 RES1    0.0000
@<TRIPOS>BOND
     1    1    2 ar
     2    2    3 ar
     3    3    4 1
     4    5    3 ar
     5    6    5 1
     6    7    5 ar
     7    8    7 ar
     8    9    8 1
     9   10    8 ar
    10   11   10 1
    11   12   10 ar
    12   13   12 1
    13   14   12 ar
    14   15   14 1
    15   16    1 ar
    16   17    1 1
    17   18   17 1
    18   19   20 ar
    19   20   21 ar
    20   21   22 ar
    21   22   23 1
    22   24   22 ar
    23   25   24 1
    24   26   19 ar
    25   27   26 1
    26   28   20 1
    27   29   28 1
    28   30   28 1
    29   31   28 1
    30   32   17 2
    31   33   21 1
    32   34    2 1
    33   35   33 2
    34   36   33 2
    35   37   34 1
    36    7   16 ar
    37   14   16 ar
    38   19   32 1
    39   24   26 ar
@<TRIPOS>SUBSTRUCTURE
     1 RES1 1

@<TRIPOS>CRYSIN
  12.5520    7.4731   15.8610  90.0000  90.8060  90.0000  14 1

