# MOL2 file generated by ConQuest
# Please check atom types

@<TRIPOS>MOLECULE
WACHUG
    66    71     1
SMALL
NO_CHARGES
****
Generated from CSD

@<TRIPOS>ATOM
      1 O1         0.4978    4.7232    3.8016 O.3       1 RES1    0.0000
      2 O2         5.7991    4.6881    7.0631 O.2       1 RES1    0.0000
      3 O3         6.1269    2.9576    5.8459 O.2       1 RES1    0.0000
      4 N1         5.4407    3.9053    6.1920 N.pl3     1 RES1    0.0000
      5 C1         4.1581    4.1172    5.5382 C.ar      1 RES1    0.0000
      6 C2         3.3981    5.2131    5.8867 C.ar      1 RES1    0.0000
      7 H1         3.7096    5.8299    6.5100 H         1 RES1    0.0000
      8 C3         2.1724    5.3734    5.2936 C.ar      1 RES1    0.0000
      9 H2         1.6389    6.0991    5.5242 H         1 RES1    0.0000
     10 C4         1.7196    4.4551    4.3460 C.ar      1 RES1    0.0000
     11 C5         2.4991    3.3519    3.9835 C.ar      1 RES1    0.0000
     12 C6         3.7300    3.2061    4.5956 C.ar      1 RES1    0.0000
     13 H3         4.2748    2.4863    4.3688 H         1 RES1    0.0000
     14 C7         1.9917    2.3491    2.9812 C.3       1 RES1    0.0000
     15 H4         1.6432    1.5805    3.4799 H         1 RES1    0.0000
     16 C8         0.8378    2.9548    2.1991 C.3       1 RES1    0.0000
     17 H5         0.3948    2.2572    1.6898 H         1 RES1    0.0000
     18 H6         1.1845    3.6084    1.5722 H         1 RES1    0.0000
     19 C9        -0.1753    3.6275    3.1198 C.3       1 RES1    0.0000
     20 C10       -1.2798    4.3106    2.3221 C.ar      1 RES1    0.0000
     21 C11       -2.6174    4.0499    2.5378 C.ar      1 RES1    0.0000
     22 H7        -2.8660    3.4625    3.2152 H         1 RES1    0.0000
     23 C12       -3.5954    4.6505    1.7617 C.ar      1 RES1    0.0000
     24 H8        -4.4921    4.4614    1.9163 H         1 RES1    0.0000
     25 C13       -3.2412    5.5208    0.7688 C.ar      1 RES1    0.0000
     26 H9        -3.8971    5.9218    0.2456 H         1 RES1    0.0000
     27 C14       -1.9264    5.8018    0.5458 C.ar      1 RES1    0.0000
     28 H10       -1.6886    6.3964   -0.1280 H         1 RES1    0.0000
     29 C15       -0.9493    5.2111    1.3139 C.ar      1 RES1    0.0000
     30 H11       -0.0554    5.4159    1.1571 H         1 RES1    0.0000
     31 C16       -0.7293    2.6655    4.1637 C.ar      1 RES1    0.0000
     32 C17       -1.0414    3.1069    5.4275 C.ar      1 RES1    0.0000
     33 H12       -0.8535    3.9846    5.6712 H         1 RES1    0.0000
     34 C18       -1.6357    2.2507    6.3388 C.ar      1 RES1    0.0000
     35 H13       -1.8562    2.5631    7.1863 H         1 RES1    0.0000
     36 C19       -1.9028    0.9524    6.0085 C.ar      1 RES1    0.0000
     37 H14       -2.3135    0.3859    6.6207 H         1 RES1    0.0000
     38 C20       -1.5615    0.4973    4.7723 C.ar      1 RES1    0.0000
     39 H15       -1.7114   -0.3946    4.5522 H         1 RES1    0.0000
     40 C21       -0.9963    1.3427    3.8408 C.ar      1 RES1    0.0000
     41 H16       -0.7925    1.0248    2.9904 H         1 RES1    0.0000
     42 C22        3.0309    1.8383    2.0222 C.2       1 RES1    0.0000
     43 H17        3.7138    2.4215    1.7780 H         1 RES1    0.0000
     44 C23        3.0495    0.6138    1.4945 C.2       1 RES1    0.0000
     45 C24        2.0999   -0.4446    1.9580 C.ar      1 RES1    0.0000
     46 C25        1.0741   -0.8801    1.1413 C.ar      1 RES1    0.0000
     47 H18        0.9657   -0.5005    0.2992 H         1 RES1    0.0000
     48 C26        0.2113   -1.8680    1.5580 C.ar      1 RES1    0.0000
     49 H19       -0.4715   -2.1523    0.9945 H         1 RES1    0.0000
     50 C27        0.3519   -2.4334    2.7962 C.ar      1 RES1    0.0000
     51 H20       -0.2301   -3.1025    3.0734 H         1 RES1    0.0000
     52 C28        1.3523   -2.0072    3.6189 C.ar      1 RES1    0.0000
     53 H21        1.4472   -2.3858    4.4622 H         1 RES1    0.0000
     54 C29        2.2243   -1.0213    3.2111 C.ar      1 RES1    0.0000
     55 H22        2.9029   -0.7405    3.7825 H         1 RES1    0.0000
     56 C30        3.9772    0.2461    0.3919 C.ar      1 RES1    0.0000
     57 C31        4.4833   -1.0379    0.2949 C.ar      1 RES1    0.0000
     58 H23        4.2166   -1.6810    0.9115 H         1 RES1    0.0000
     59 C32        5.3741   -1.3826   -0.6977 C.ar      1 RES1    0.0000
     60 H24        5.7135   -2.2474   -0.7368 H         1 RES1    0.0000
     61 C33        5.7609   -0.4529   -1.6289 C.ar      1 RES1    0.0000
     62 H25        6.3654   -0.6854   -2.2968 H         1 RES1    0.0000
     63 C34        5.2541    0.8162   -1.5735 C.ar      1 RES1    0.0000
     64 H26        5.5104    1.4486   -2.2052 H         1 RES1    0.0000
     65 C35        4.3559    1.1589   -0.5730 C.ar      1 RES1    0.0000
     66 H27        4.0022    2.0193   -0.5517 H         1 RES1    0.0000
@<TRIPOS>BOND
     1    1   10 1
     2    2    4 2
     3    3    4 2
     4    4    5 1
     5    5    6 ar
     6    6    7 1
     7    8    6 ar
     8    9    8 1
     9   10    8 ar
    10   11   10 ar
    11   12    5 ar
    12   13   12 1
    13   14   11 1
    14   15   14 1
    15   16   14 1
    16   17   16 1
    17   18   16 1
    18   19    1 1
    19   20   19 1
    20   21   20 ar
    21   22   21 1
    22   23   21 ar
    23   24   23 1
    24   25   23 ar
    25   26   25 1
    26   27   25 ar
    27   28   27 1
    28   29   20 ar
    29   30   29 1
    30   31   19 1
    31   32   31 ar
    32   33   32 1
    33   34   32 ar
    34   35   34 1
    35   36   34 ar
    36   37   36 1
    37   38   36 ar
    38   39   38 1
    39   40   31 ar
    40   41   40 1
    41   42   14 1
    42   43   42 1
    43   44   42 2
    44   45   44 1
    45   46   45 ar
    46   47   46 1
    47   48   46 ar
    48   49   48 1
    49   50   48 ar
    50   51   50 1
    51   52   50 ar
    52   53   52 1
    53   54   45 ar
    54   55   54 1
    55   56   44 1
    56   57   56 ar
    57   58   57 1
    58   59   57 ar
    59   60   59 1
    60   61   59 ar
    61   62   61 1
    62   63   61 ar
    63   64   63 1
    64   65   56 ar
    65   66   65 1
    66   11   12 ar
    67   16   19 1
    68   27   29 ar
    69   38   40 ar
    70   52   54 ar
    71   63   65 ar
@<TRIPOS>SUBSTRUCTURE
     1 RES1 1

@<TRIPOS>CRYSIN
  14.2021   10.8102   17.2955  90.0000  90.0000  90.0000  29 1

