# MOL2 file generated by ConQuest
# Please check atom types

@<TRIPOS>MOLECULE
WACROJ
    53    47     2
SMALL
NO_CHARGES
****
Generated from CSD

@<TRIPOS>ATOM
      1 O1         3.5545    5.7925    6.3255 O.3       1 RES1    0.0000
      2 H1         3.0267    6.3143    6.6747 H         1 RES1    0.0000
      3 O2        -2.1126   10.7960    8.9672 O.2       1 RES1    0.0000
      4 O3        -1.7285    9.6327    7.2022 O.2       1 RES1    0.0000
      5 O4         1.1773   11.6886   12.1989 O.2       1 RES1    0.0000
      6 O5         3.1335   10.8160   12.0276 O.2       1 RES1    0.0000
      7 N1         1.3345    7.2689    6.4921 N.2       1 RES1    0.0000
      8 N2         0.4753    8.2139    7.0082 N.pl3     1 RES1    0.0000
      9 H2        -0.2775    8.3644    6.6213 H         1 RES1    0.0000
     10 N3        -1.3610   10.1185    8.2747 N.pl3     1 RES1    0.0000
     11 N4         1.9878   10.9799   11.6341 N.pl3     1 RES1    0.0000
     12 N5         3.9091    2.6377    2.7921 N.3       1 RES1    0.0000
     13 C1         3.4413    2.0643    1.5329 C.3       1 RES1    0.0000
     14 H3         3.7727    1.1541    1.4844 H         1 RES1    0.0000
     15 H4         2.4740    2.0132    1.5764 H         1 RES1    0.0000
     16 C2         3.7834    2.7111    0.3096 C.3       1 RES1    0.0000
     17 H5         4.7374    2.7202    0.2076 H         1 RES1    0.0000
     18 H6         3.4551    3.6136    0.3207 H         1 RES1    0.0000
     19 H7         3.3871    2.2367   -0.4252 H         1 RES1    0.0000
     20 C3         1.6831    5.5950    4.8236 C.ar      1 RES1    0.0000
     21 C4         2.9701    5.2110    5.2453 C.ar      1 RES1    0.0000
     22 C5         3.6916    4.2494    4.5766 C.ar      1 RES1    0.0000
     23 H8         4.5371    4.0180    4.8870 H         1 RES1    0.0000
     24 C6         3.1851    3.6140    3.4430 C.ar      1 RES1    0.0000
     25 C7         1.9001    3.9942    2.9995 C.ar      1 RES1    0.0000
     26 H9         1.5343    3.5976    2.2415 H         1 RES1    0.0000
     27 C8         1.1911    4.9465    3.6827 C.ar      1 RES1    0.0000
     28 H10        0.3424    5.1724    3.3753 H         1 RES1    0.0000
     29 C9         0.8996    6.6015    5.4800 C.2       1 RES1    0.0000
     30 H11        0.0432    6.7785    5.1618 H         1 RES1    0.0000
     31 C10        0.8088    8.9018    8.1134 C.ar      1 RES1    0.0000
     32 C11       -0.0382    9.8417    8.7546 C.ar      1 RES1    0.0000
     33 C12        0.3503   10.5119    9.8976 C.ar      1 RES1    0.0000
     34 H12       -0.2263   11.1185   10.3036 H         1 RES1    0.0000
     35 C13        1.5772   10.2793   10.4250 C.ar      1 RES1    0.0000
     36 C14        2.4427    9.3619    9.8362 C.ar      1 RES1    0.0000
     37 H13        3.2798    9.2068   10.2104 H         1 RES1    0.0000
     38 C15        2.0686    8.6970    8.7223 C.ar      1 RES1    0.0000
     39 H14        2.6579    8.0856    8.3431 H         1 RES1    0.0000
     40 C16        5.3086    2.4084    3.1503 C.3       1 RES1    0.0000
     41 H15        5.5926    1.5630    2.7674 H         1 RES1    0.0000
     42 H16        5.3728    2.3291    4.1150 H         1 RES1    0.0000
     43 C17        6.2496    3.4824    2.6940 C.3       1 RES1    0.0000
     44 H17        6.1845    3.5820    1.7417 H         1 RES1    0.0000
     45 H18        7.1488    3.2420    2.9290 H         1 RES1    0.0000
     46 H19        6.0193    4.3120    3.1179 H         1 RES1    0.0000
     47 C18        3.4413    2.0643    1.5329 Du        2 SUP2    0.0000
     48 C19        4.1828    1.2576    0.6999 Du        2 SUP2    0.0000
     49 H20        2.6408    1.5604    1.7492 Du        2 SUP2    0.0000
     50 H21        3.1514    2.8137    0.9896 Du        2 SUP2    0.0000
     51 H22        3.7245    1.1546   -0.1368 Du        2 SUP2    0.0000
     52 H23        4.2992    0.3969    1.1089 Du        2 SUP2    0.0000
     53 H24        5.0414    1.6580    0.5483 Du        2 SUP2    0.0000
@<TRIPOS>BOND
     1    1    2 1
     2    3   10 2
     3    4   10 2
     4    5   11 2
     5    6   11 2
     6    7    8 1
     7    8    9 1
     8   10   32 1
     9   11   35 1
    10   12   13 1
    11   13   14 1
    12   15   13 1
    13   16   13 1
    14   17   16 1
    15   18   16 1
    16   19   16 1
    17   20   21 ar
    18   21    1 1
    19   22   21 ar
    20   23   22 1
    21   24   12 1
    22   25   24 ar
    23   26   25 1
    24   27   20 ar
    25   28   27 1
    26   29    7 2
    27   30   29 1
    28   31    8 1
    29   32   31 ar
    30   33   32 ar
    31   34   33 1
    32   35   33 ar
    33   36   35 ar
    34   37   36 1
    35   38   31 ar
    36   39   38 1
    37   40   12 1
    38   41   40 1
    39   42   40 1
    40   43   40 1
    41   44   43 1
    42   45   43 1
    43   46   43 1
    44   20   29 1
    45   22   24 ar
    46   25   27 ar
    47   36   38 ar
@<TRIPOS>SUBSTRUCTURE
     1 RES1 1
     2 SUP2 47

@<TRIPOS>CRYSIN
   8.5300    8.5410   12.4910  84.5540  89.7330  75.1090   2 1

