# MOL2 file generated by ConQuest
# Please check atom types

@<TRIPOS>MOLECULE
WACTAX
    52    55     1
SMALL
NO_CHARGES
****
Generated from CSD

@<TRIPOS>ATOM
      1 C1         8.3860   10.4803   19.6950 C.ar      1 RES1    0.0000
      2 C2         7.4204   11.4310   19.4438 C.ar      1 RES1    0.0000
      3 C3         6.3674   11.6602   20.3446 C.ar      1 RES1    0.0000
      4 H1         5.7133   12.2874   20.1374 H         1 RES1    0.0000
      5 C4         6.2955   10.9814   21.5054 C.ar      1 RES1    0.0000
      6 H2         5.5839   11.1415   22.0826 H         1 RES1    0.0000
      7 C5         7.2779   10.0297   21.8633 C.ar      1 RES1    0.0000
      8 C6         8.3393    9.7808   20.9476 C.ar      1 RES1    0.0000
      9 C7         9.3264    8.8389   21.3376 C.ar      1 RES1    0.0000
     10 H3        10.0404    8.6678   20.7676 H         1 RES1    0.0000
     11 C8         9.2546    8.1788   22.5299 C.ar      1 RES1    0.0000
     12 H4         9.9182    7.5702   22.7644 H         1 RES1    0.0000
     13 C9         8.1943    8.4113   23.3943 C.ar      1 RES1    0.0000
     14 H5         8.1416    7.9452   24.1976 H         1 RES1    0.0000
     15 C10        7.2371    9.3126   23.0768 C.ar      1 RES1    0.0000
     16 H6         6.5375    9.4628   23.6704 H         1 RES1    0.0000
     17 C11        9.4702   10.1360   18.6909 C.3       1 RES1    0.0000
     18 H7         9.6235    9.1700   18.7527 H         1 RES1    0.0000
     19 C12        8.0026    9.4036   16.9098 C.3       1 RES1    0.0000
     20 H8         7.3150    9.3520   17.5922 H         1 RES1    0.0000
     21 H9         8.4387    8.5384   16.8589 H         1 RES1    0.0000
     22 C13        7.3593    9.7161   15.5742 C.3       1 RES1    0.0000
     23 H10        6.9196   10.5889   15.6530 H         1 RES1    0.0000
     24 C14        8.4112    9.8334   14.5082 C.3       1 RES1    0.0000
     25 H11        8.0026   10.1339   13.6805 H         1 RES1    0.0000
     26 H12        8.8089    8.9639   14.3501 H         1 RES1    0.0000
     27 C15        9.4858   10.8115   14.9258 C.3       1 RES1    0.0000
     28 H13       10.1986   10.8016   14.2683 H         1 RES1    0.0000
     29 H14        9.1108   11.7062   14.9470 H         1 RES1    0.0000
     30 C16       10.0572   10.4814   16.2826 C.3       1 RES1    0.0000
     31 H15       10.5136    9.6273   16.2438 H         1 RES1    0.0000
     32 H16       10.7053   11.1580   16.5347 H         1 RES1    0.0000
     33 C17        6.2895    8.6898   15.2503 C.3       1 RES1    0.0000
     34 H17        5.8414    8.9398   14.4380 H         1 RES1    0.0000
     35 H18        5.6534    8.6536   15.9681 H         1 RES1    0.0000
     36 H19        6.6968    7.8279   15.1379 H         1 RES1    0.0000
     37 C18       10.7988   10.8203   18.9908 C.ar      1 RES1    0.0000
     38 C19       11.9800   10.1141   18.8290 C.ar      1 RES1    0.0000
     39 H20       11.9656    9.2216   18.5678 H         1 RES1    0.0000
     40 C20       13.1768   10.7545   19.0587 C.ar      1 RES1    0.0000
     41 C21       13.2499   12.0659   19.4423 C.ar      1 RES1    0.0000
     42 H21       14.0717   12.4771   19.5829 H         1 RES1    0.0000
     43 C22       12.0746   12.7578   19.6135 C.ar      1 RES1    0.0000
     44 H22       12.0986   13.6492   19.8768 H         1 RES1    0.0000
     45 C23       10.8623   12.1437   19.3981 C.ar      1 RES1    0.0000
     46 H23       10.0752   12.6229   19.5284 H         1 RES1    0.0000
     47 N1         8.9910   10.4222   17.2940 N.3       1 RES1    0.0000
     48 N2        14.4227    9.9760   18.8781 N.pl3     1 RES1    0.0000
     49 O1         7.4138   12.1902   18.3139 O.3       1 RES1    0.0000
     50 H24        7.9439   11.8784   17.7710 H         1 RES1    0.0000
     51 O2        14.3365    8.8290   18.5094 O.2       1 RES1    0.0000
     52 O3        15.4782   10.5143   19.1232 O.2       1 RES1    0.0000
@<TRIPOS>BOND
     1    1    2 ar
     2    2    3 ar
     3    3    4 1
     4    5    3 ar
     5    6    5 1
     6    7    5 ar
     7    8    1 ar
     8    9    8 ar
     9   10    9 1
    10   11    9 ar
    11   12   11 1
    12   13   11 ar
    13   14   13 1
    14   15    7 ar
    15   16   15 1
    16   17    1 1
    17   18   17 1
    18   19   20 1
    19   21   19 1
    20   22   19 1
    21   23   22 1
    22   24   22 1
    23   25   24 1
    24   26   24 1
    25   27   24 1
    26   28   27 1
    27   29   27 1
    28   30   27 1
    29   31   30 1
    30   32   30 1
    31   33   22 1
    32   34   33 1
    33   35   33 1
    34   36   33 1
    35   37   17 1
    36   38   37 ar
    37   39   38 1
    38   40   38 ar
    39   41   40 ar
    40   42   41 1
    41   43   41 ar
    42   44   43 1
    43   45   37 ar
    44   46   45 1
    45   47   17 1
    46   48   40 1
    47   49    2 1
    48   50   49 1
    49   51   48 2
    50   52   48 2
    51    7    8 ar
    52   13   15 ar
    53   19   47 1
    54   30   47 1
    55   43   45 ar
@<TRIPOS>SUBSTRUCTURE
     1 RES1 1

@<TRIPOS>CRYSIN
  11.9800   10.9650   30.3000  90.0000  90.0000  90.0000  61 1

