# MOL2 file generated by ConQuest
# Please check atom types

@<TRIPOS>MOLECULE
WACVUS
    42    44     1
SMALL
NO_CHARGES
****
Generated from CSD

@<TRIPOS>ATOM
      1 O1         3.6685    3.2517   12.4770 O.2       1 RES1    0.0000
      2 O2         2.7606   -1.1753   11.4726 O.2       1 RES1    0.0000
      3 N1         7.8977    1.0005    8.1106 N.pl3     1 RES1    0.0000
      4 N2         3.1614    2.0735   12.4872 N.pl3     1 RES1    0.0000
      5 N3         2.7632   -0.0223   12.0394 N.pl3     1 RES1    0.0000
      6 C1         8.6910    2.0783    7.7831 C.2       1 RES1    0.0000
      7 C2         9.6683    1.6378    6.9671 C.2       1 RES1    0.0000
      8 C3         9.4956    0.2544    6.7778 C.2       1 RES1    0.0000
      9 C4         8.4130   -0.1164    7.4942 C.2       1 RES1    0.0000
     10 C5         6.7902    1.0152    8.9930 C.ar      1 RES1    0.0000
     11 C6         6.0766    2.1922    9.2148 C.ar      1 RES1    0.0000
     12 C7         5.0147    2.1935   10.0889 C.ar      1 RES1    0.0000
     13 C8         4.6210    1.0332   10.7503 C.ar      1 RES1    0.0000
     14 C9         5.3313   -0.1392   10.4969 C.ar      1 RES1    0.0000
     15 C10        6.4034   -0.1456    9.6402 C.ar      1 RES1    0.0000
     16 C11        3.5386    1.0391   11.7159 C.2       1 RES1    0.0000
     17 C12        1.9482    1.7669   13.3063 C.3       1 RES1    0.0000
     18 C13        1.9739    0.2226   13.2941 C.3       1 RES1    0.0000
     19 C14        0.7703    2.3555   12.5320 C.3       1 RES1    0.0000
     20 C15        2.0761    2.4112   14.6688 C.3       1 RES1    0.0000
     21 C16        2.7933   -0.4012   14.4195 C.3       1 RES1    0.0000
     22 C17        0.6133   -0.4443   13.2005 C.3       1 RES1    0.0000
     23 H1         8.5007    2.9491    8.1098 H         1 RES1    0.0000
     24 H2        10.3535    2.1517    6.6038 H         1 RES1    0.0000
     25 H3         9.9262   -0.2785    6.2273 H         1 RES1    0.0000
     26 H4         7.9909   -0.9619    7.6010 H         1 RES1    0.0000
     27 H5         6.3534    3.0124    8.7203 H         1 RES1    0.0000
     28 H6         4.5049    3.0149   10.2771 H         1 RES1    0.0000
     29 H7         5.0523   -0.9493   10.9691 H         1 RES1    0.0000
     30 H8         6.8931   -0.9759    9.5242 H         1 RES1    0.0000
     31 H9        -0.0988    2.2276   12.9838 H         1 RES1    0.0000
     32 H10        0.7147    1.8732   11.6508 H         1 RES1    0.0000
     33 H11        0.9061    3.3035   12.4038 H         1 RES1    0.0000
     34 H12        1.3189    2.1264   15.2529 H         1 RES1    0.0000
     35 H13        2.1146    3.3541   14.5508 H         1 RES1    0.0000
     36 H14        3.0139    2.0631   15.1918 H         1 RES1    0.0000
     37 H15        2.3057   -0.3291   15.2427 H         1 RES1    0.0000
     38 H16        2.9811   -1.4049   14.1641 H         1 RES1    0.0000
     39 H17        3.6744    0.0127   14.4897 H         1 RES1    0.0000
     40 H18        0.0733   -0.1772   14.0318 H         1 RES1    0.0000
     41 H19        0.7087   -1.4049   13.2076 H         1 RES1    0.0000
     42 H20        0.1483   -0.1139   12.3326 H         1 RES1    0.0000
@<TRIPOS>BOND
     1    1    4 1
     2    2    5 2
     3    3    6 1
     4    4   16 2
     5    5   16 1
     6    6    7 2
     7    7    8 1
     8    8    9 2
     9    9    3 1
    10   10    3 1
    11   11   10 ar
    12   12   11 ar
    13   13   12 ar
    14   14   13 ar
    15   15   10 ar
    16   16   13 1
    17   17    4 1
    18   18    5 1
    19   19   17 1
    20   20   17 1
    21   21   18 1
    22   22   18 1
    23   23    6 1
    24   24    7 1
    25   25    8 1
    26   26    9 1
    27   27   11 1
    28   28   12 1
    29   29   14 1
    30   30   15 1
    31   31   19 1
    32   32   19 1
    33   33   19 1
    34   34   20 1
    35   35   20 1
    36   36   20 1
    37   37   21 1
    38   38   21 1
    39   39   21 1
    40   40   22 1
    41   41   22 1
    42   42   22 1
    43   14   15 ar
    44   17   18 1
@<TRIPOS>SUBSTRUCTURE
     1 RES1 1

@<TRIPOS>CRYSIN
  12.2840   12.6570   10.9530  90.0000 111.7200  90.0000  14 2

