# MOL2 file generated by ConQuest
# Please check atom types

@<TRIPOS>MOLECULE
WADFUE
    49    50     1
SMALL
NO_CHARGES
****
Generated from CSD

@<TRIPOS>ATOM
      1 O1        -0.7757    1.8787    6.2385 O.2       1 RES1    0.0000
      2 N1         1.8441    2.4747    7.9419 N.3       1 RES1    0.0000
      3 O2         0.6098    3.2770   10.2691 O.3       1 RES1    0.0000
      4 C1         1.8953    3.8342    5.5502 C.ar      1 RES1    0.0000
      5 H1         1.2624    4.0228    6.2051 H         1 RES1    0.0000
      6 O3         3.8523    0.1730    4.9359 O.2       1 RES1    0.0000
      7 C2         2.6043    2.6500    5.6278 C.ar      1 RES1    0.0000
      8 O4         3.3884    1.4263   10.0329 O.2       1 RES1    0.0000
      9 O5        -1.0010    1.9066    9.6834 O.2       1 RES1    0.0000
     10 O6         5.4276    1.2556    4.0210 O.2       1 RES1    0.0000
     11 C3         1.2268    0.6565    6.5999 C.3       1 RES1    0.0000
     12 H2         1.5928   -0.1490    6.1789 H         1 RES1    0.0000
     13 N2         4.3255    1.2075    4.5292 N.pl3     1 RES1    0.0000
     14 C4         2.3489    1.7111    6.7956 C.3       1 RES1    0.0000
     15 H3         3.1832    1.2602    7.0437 H         1 RES1    0.0000
     16 C5         3.5372    2.4498    4.6163 C.ar      1 RES1    0.0000
     17 C6         0.1374    2.2209    9.6572 C.2       1 RES1    0.0000
     18 C7         2.0933    4.7460    4.5351 C.ar      1 RES1    0.0000
     19 H4         1.5787    5.5197    4.4982 H         1 RES1    0.0000
     20 C8         0.1493    0.9529    4.2739 C.3       1 RES1    0.0000
     21 H5        -0.6075    1.3658    3.8505 H         1 RES1    0.0000
     22 H6         0.1233    0.0054    4.1212 H         1 RES1    0.0000
     23 H7         0.9584    1.3145    3.9053 H         1 RES1    0.0000
     24 C9         0.1058    1.2245    5.7494 C.2       1 RES1    0.0000
     25 O7         1.6623    0.2514   10.8261 O.3       1 RES1    0.0000
     26 C10        1.2616    1.5078    8.8902 C.3       1 RES1    0.0000
     27 C11        3.7742    3.3779    3.6214 C.ar      1 RES1    0.0000
     28 H8         4.4307    3.2196    2.9821 H         1 RES1    0.0000
     29 C12        2.2810    1.0763    9.9852 C.2       1 RES1    0.0000
     30 C13        0.7893    0.3430    8.0397 C.3       1 RES1    0.0000
     31 H9        -0.1758    0.2561    8.0898 H         1 RES1    0.0000
     32 H10        1.1920   -0.4850    8.3439 H         1 RES1    0.0000
     33 C14        3.0519    4.5078    3.5797 C.ar      1 RES1    0.0000
     34 H11        3.2001    5.1301    2.9045 H         1 RES1    0.0000
     35 C15       -0.3060    4.1268   11.0444 C.3       1 RES1    0.0000
     36 H12       -1.2165    4.0593   10.7176 H         1 RES1    0.0000
     37 H13       -0.0271    5.0556   11.0289 H         1 RES1    0.0000
     38 C16        2.5525   -0.2988   11.9367 C.3       1 RES1    0.0000
     39 H14        2.5802   -1.2680   11.9212 H         1 RES1    0.0000
     40 H15        3.4553    0.0497   11.8734 H         1 RES1    0.0000
     41 C17        1.8480    0.2150   13.1641 C.3       1 RES1    0.0000
     42 H16        2.2956   -0.1094   13.9490 H         1 RES1    0.0000
     43 H17        0.9385   -0.0939   13.1641 H         1 RES1    0.0000
     44 H18        1.8600    1.1749   13.1617 H         1 RES1    0.0000
     45 C18       -0.1658    3.5308   12.4233 C.3       1 RES1    0.0000
     46 H19       -0.7477    3.9894   13.0317 H         1 RES1    0.0000
     47 H20        0.7434    3.6193   12.7192 H         1 RES1    0.0000
     48 H21       -0.4025    2.5996   12.3947 H         1 RES1    0.0000
     49 H22        2.5733    2.9255    8.2663 H         1 RES1    0.0000
@<TRIPOS>BOND
     1    1   24 2
     2    2   14 1
     3    3   17 1
     4    4    5 1
     5    6   13 2
     6    7    4 ar
     7    8   29 2
     8    9   17 2
     9   10   13 2
    10   11   12 1
    11   13   16 1
    12   14    7 1
    13   15   14 1
    14   16    7 ar
    15   17   26 1
    16   18    4 ar
    17   19   18 1
    18   20   21 1
    19   22   20 1
    20   23   20 1
    21   24   11 1
    22   25   29 1
    23   26    2 1
    24   27   16 ar
    25   28   27 1
    26   29   26 1
    27   30   11 1
    28   31   30 1
    29   32   30 1
    30   33   18 ar
    31   34   33 1
    32   35    3 1
    33   36   35 1
    34   37   35 1
    35   38   25 1
    36   39   38 1
    37   40   38 1
    38   41   38 1
    39   42   41 1
    40   43   41 1
    41   44   41 1
    42   45   35 1
    43   46   45 1
    44   47   45 1
    45   48   45 1
    46   49    2 1
    47   11   14 1
    48   20   24 1
    49   26   30 1
    50   27   33 ar
@<TRIPOS>SUBSTRUCTURE
     1 RES1 1

@<TRIPOS>CRYSIN
  10.6870    7.7600   12.0300  90.0000  97.4550  90.0000   4 1

