# MOL2 file generated by ConQuest
# Please check atom types

@<TRIPOS>MOLECULE
WADKEU
    84    87     1
SMALL
NO_CHARGES
****
Generated from CSD

@<TRIPOS>ATOM
      1 O1         0.2770    5.8364    9.2954 O.3       1 RES1    0.0000
      2 O2         0.1399    7.9841    9.6104 O.2       1 RES1    0.0000
      3 O3        -1.5471    4.0009   12.6317 O.3       1 RES1    0.0000
      4 O4        -1.5942    6.9847    8.7695 O.2       1 RES1    0.0000
      5 N1        -0.4798    7.0354    9.2258 N.pl3     1 RES1    0.0000
      6 O5        -3.4593    4.9538    5.8520 O.2       1 RES1    0.0000
      7 N2        -2.7637    4.0781    6.2531 N.pl3     1 RES1    0.0000
      8 N3        -2.2828    4.1417    7.6058 N.2       1 RES1    0.0000
      9 C1         4.9404    3.5986    3.2748 C.3       1 RES1    0.0000
     10 H1         4.3825    2.9846    2.7530 H         1 RES1    0.0000
     11 O6        -2.4009    3.1353    5.6007 O.2       1 RES1    0.0000
     12 C2         2.8510    2.9199    7.6774 C.3       1 RES1    0.0000
     13 H2         3.3202    2.8289    8.5213 H         1 RES1    0.0000
     14 H3         2.4956    2.0501    7.4393 H         1 RES1    0.0000
     15 C3         6.2756    3.7543    1.0927 C.3       1 RES1    0.0000
     16 H4         6.9045    3.0929    1.4233 H         1 RES1    0.0000
     17 H5         5.5635    3.2810    0.6339 H         1 RES1    0.0000
     18 C4        -0.4576    4.5859    9.0626 C.3       1 RES1    0.0000
     19 C5         2.0392    4.6549    5.5168 C.3       1 RES1    0.0000
     20 H6         2.4565    5.4312    5.9444 H         1 RES1    0.0000
     21 C6         6.9878    4.6535    0.0961 C.3       1 RES1    0.0000
     22 H7         7.7210    5.0985    0.5501 H         1 RES1    0.0000
     23 H8         6.3688    5.3372   -0.2028 H         1 RES1    0.0000
     24 C7         3.1641    3.6397    5.2428 C.3       1 RES1    0.0000
     25 C8         0.9929    4.1255    6.4917 C.3       1 RES1    0.0000
     26 H9         0.6702    3.2597    6.1630 H         1 RES1    0.0000
     27 C9        -1.1102    4.6347    7.6922 C.2       1 RES1    0.0000
     28 C10        1.3845    3.4580   10.3585 C.3       1 RES1    0.0000
     29 H10        2.0318    2.7358   10.3574 H         1 RES1    0.0000
     30 H11        1.8690    4.2883   10.4910 H         1 RES1    0.0000
     31 C11        1.6820    3.9064    7.8586 C.3       1 RES1    0.0000
     32 H12        2.0733    4.7657    8.1206 H         1 RES1    0.0000
     33 C12       -2.2879    5.1197   13.0777 C.3       1 RES1    0.0000
     34 H13       -1.6872    5.7852   13.4201 H         1 RES1    0.0000
     35 H14       -2.8930    4.8466   13.7723 H         1 RES1    0.0000
     36 H15       -2.7869    5.4858   12.3442 H         1 RES1    0.0000
     37 C13        0.4183    3.2567   11.5284 C.3       1 RES1    0.0000
     38 H16        0.0041    2.3829   11.4528 H         1 RES1    0.0000
     39 H17        0.9155    3.2790   12.3612 H         1 RES1    0.0000
     40 C14        0.6840    3.5034    8.9820 C.3       1 RES1    0.0000
     41 C15       -0.2023    5.0873    6.5940 C.3       1 RES1    0.0000
     42 H18        0.1142    5.9855    6.7775 H         1 RES1    0.0000
     43 H19       -0.6860    5.1015    5.7525 H         1 RES1    0.0000
     44 C16        7.5440    3.9252   -1.1337 C.3       1 RES1    0.0000
     45 H20        6.8174    3.4003   -1.5301 H         1 RES1    0.0000
     46 C17        2.9291    5.1844    3.3496 C.3       1 RES1    0.0000
     47 H21        3.1958    6.1099    3.2363 H         1 RES1    0.0000
     48 H22        2.8306    4.7829    2.4725 H         1 RES1    0.0000
     49 C18        4.0038    4.4117    4.1794 C.3       1 RES1    0.0000
     50 H23        4.5484    5.0742    4.6535 H         1 RES1    0.0000
     51 C19        8.6673    2.9725   -0.7722 C.3       1 RES1    0.0000
     52 H24        9.3841    3.4640   -0.3631 H         1 RES1    0.0000
     53 H25        8.9883    2.5406   -1.5666 H         1 RES1    0.0000
     54 H26        8.3412    2.3110   -0.1579 H         1 RES1    0.0000
     55 C20        2.6193    2.3444    4.6298 C.3       1 RES1    0.0000
     56 H27        3.3249    1.6961    4.5721 H         1 RES1    0.0000
     57 H28        2.2786    2.5245    3.7512 H         1 RES1    0.0000
     58 H29        1.9129    2.0005    5.1830 H         1 RES1    0.0000
     59 C21        0.0541    2.1290    8.6816 C.3       1 RES1    0.0000
     60 H30        0.7203    1.4443    8.7763 H         1 RES1    0.0000
     61 H31       -0.2858    2.1229    7.7842 H         1 RES1    0.0000
     62 H32       -0.6639    1.9652    9.2973 H         1 RES1    0.0000
     63 C22       -1.4160    4.3561   10.2281 C.3       1 RES1    0.0000
     64 H33       -1.8871    3.5176   10.0988 H         1 RES1    0.0000
     65 H34       -2.0731    5.0691   10.2518 H         1 RES1    0.0000
     66 C23        5.6830    4.5048    2.2774 C.3       1 RES1    0.0000
     67 H35        5.0669    5.1763    1.9454 H         1 RES1    0.0000
     68 H36        6.3969    4.9650    2.7445 H         1 RES1    0.0000
     69 C24        1.5922    5.1035    4.1286 C.3       1 RES1    0.0000
     70 H37        1.1534    5.9683    4.1629 H         1 RES1    0.0000
     71 H38        0.9904    4.4572    3.7269 H         1 RES1    0.0000
     72 C25       -0.6574    4.3146   11.5636 C.3       1 RES1    0.0000
     73 H39       -0.2470    5.1885   11.7297 H         1 RES1    0.0000
     74 C26        5.9436    2.7490    4.0546 C.3       1 RES1    0.0000
     75 H40        6.4269    3.3063    4.6681 H         1 RES1    0.0000
     76 H41        6.5588    2.3384    3.4428 H         1 RES1    0.0000
     77 H42        5.4750    2.0673    4.5418 H         1 RES1    0.0000
     78 C27        3.8483    3.3680    6.5944 C.3       1 RES1    0.0000
     79 H43        4.5212    2.6792    6.4775 H         1 RES1    0.0000
     80 H44        4.2976    4.1751    6.8904 H         1 RES1    0.0000
     81 C28        8.0249    4.9366   -2.1798 C.3       1 RES1    0.0000
     82 H45        7.2965    5.5101   -2.4300 H         1 RES1    0.0000
     83 H46        8.3440    4.4674   -2.9558 H         1 RES1    0.0000
     84 H47        8.7366    5.4646   -1.8119 H         1 RES1    0.0000
@<TRIPOS>BOND
     1    1    5 1
     2    2    5 2
     3    3   33 1
     4    4    5 2
     5    6    7 2
     6    7    8 1
     7    8   27 2
     8    9   10 1
     9   11    7 2
    10   12   13 1
    11   14   12 1
    12   15   16 1
    13   17   15 1
    14   18    1 1
    15   19   20 1
    16   21   15 1
    17   22   21 1
    18   23   21 1
    19   24   19 1
    20   25   19 1
    21   26   25 1
    22   27   18 1
    23   28   29 1
    24   30   28 1
    25   31   12 1
    26   32   31 1
    27   33   34 1
    28   35   33 1
    29   36   33 1
    30   37   28 1
    31   38   37 1
    32   39   37 1
    33   40   18 1
    34   41   25 1
    35   42   41 1
    36   43   41 1
    37   44   21 1
    38   45   44 1
    39   46   47 1
    40   48   46 1
    41   49    9 1
    42   50   49 1
    43   51   44 1
    44   52   51 1
    45   53   51 1
    46   54   51 1
    47   55   24 1
    48   56   55 1
    49   57   55 1
    50   58   55 1
    51   59   40 1
    52   60   59 1
    53   61   59 1
    54   62   59 1
    55   63   18 1
    56   64   63 1
    57   65   63 1
    58   66    9 1
    59   67   66 1
    60   68   66 1
    61   69   19 1
    62   70   69 1
    63   71   69 1
    64   72    3 1
    65   73   72 1
    66   74    9 1
    67   75   74 1
    68   76   74 1
    69   77   74 1
    70   78   12 1
    71   79   78 1
    72   80   78 1
    73   81   44 1
    74   82   81 1
    75   83   81 1
    76   84   81 1
    77   15   66 1
    78   24   49 1
    79   24   78 1
    80   25   31 1
    81   27   41 1
    82   28   40 1
    83   31   40 1
    84   37   72 1
    85   46   49 1
    86   46   69 1
    87   63   72 1
@<TRIPOS>SUBSTRUCTURE
     1 RES1 1

@<TRIPOS>CRYSIN
  11.5615   10.1140   12.3397  90.0000 100.2230  90.0000   4 1

