# MOL2 file generated by ConQuest
# Please check atom types

@<TRIPOS>MOLECULE
WADNOG
    22    23     1
SMALL
USER_CHARGES
****
Generated from CSD

@<TRIPOS>ATOM
      1 O1         0.5829    9.3551    8.7698 O.3       1 RES1    0.0000
      2 O2         1.1093    8.1991   10.6677 O.2       1 RES1   -1.0000
      3 O3         0.9118    5.6268    2.1943 O.3       1 RES1    0.0000
      4 N1         0.4900    9.1313    7.4105 N.2       1 RES1    0.0000
      5 N2         0.8384    7.8696    7.2779 N.pl3     1 RES1    1.0000
      6 C1         1.1506    8.1443    4.8780 C.ar      1 RES1    0.0000
      7 C2         1.1739    7.6039    3.5932 C.ar      1 RES1    0.0000
      8 C3         0.9053    6.2451    3.4071 C.ar      1 RES1    0.0000
      9 C4         0.6120    5.4318    4.5052 C.ar      1 RES1    0.0000
     10 C5         0.5845    5.9562    5.7820 C.ar      1 RES1    0.0000
     11 C6         0.8538    7.3178    5.9526 C.ar      1 RES1    0.0000
     12 C7         1.1436    7.2350    8.4220 C.2       1 RES1    0.0000
     13 C8         0.9828    8.1752    9.4572 C.2       1 RES1    0.0000
     14 C9         0.9892    6.4668    1.0247 C.3       1 RES1    0.0000
     15 H1         1.3537    9.1148    5.0151 H         1 RES1    0.0000
     16 H2         1.3678    8.1621    2.8299 H         1 RES1    0.0000
     17 H3         0.4935    4.4887    4.3814 H         1 RES1    0.0000
     18 H4         0.3314    5.4257    6.5437 H         1 RES1    0.0000
     19 H5         1.4313    6.2959    8.4593 H         1 RES1    0.0000
     20 H6         0.8743    5.9227    0.2298 H         1 RES1    0.0000
     21 H7         0.2820    7.1013    1.0304 H         1 RES1    0.0000
     22 H8         1.8472    6.9540    0.9675 H         1 RES1    0.0000
@<TRIPOS>BOND
     1    1    4 1
     2    2   13 1
     3    3    8 1
     4    4    5 2
     5    5   11 1
     6    6    7 ar
     7    7    8 ar
     8    8    9 ar
     9    9   10 ar
    10   10   11 ar
    11   11    6 ar
    12   12    5 1
    13   13    1 1
    14   14    3 1
    15   15    6 1
    16   16    7 1
    17   17    9 1
    18   18   10 1
    19   19   12 1
    20   20   14 1
    21   21   14 1
    22   22   14 1
    23   12   13 2
@<TRIPOS>SUBSTRUCTURE
     1 RES1 1

@<TRIPOS>CRYSIN
   7.0505    9.8220   12.0934  90.0000  90.0000  90.0000  19 1

