# MOL2 file generated by ConQuest
# Please check atom types

@<TRIPOS>MOLECULE
WADVOP
    61    65     1
SMALL
NO_CHARGES
****
Generated from CSD

@<TRIPOS>ATOM
      1 C1        11.1490    9.4251   -0.2178 C.2       1 RES1    0.0000
      2 H1        11.2826   10.3464   -0.4063 H         1 RES1    0.0000
      3 C2        12.0062    8.4540   -0.4600 C.2       1 RES1    0.0000
      4 H2        12.8595    8.5467   -0.8660 H         1 RES1    0.0000
      5 C3         9.9145    8.8180    0.4113 C.3       1 RES1    0.0000
      6 H3         9.0753    9.3566    0.3454 H         1 RES1    0.0000
      7 C4        11.3804    7.1613    0.0287 C.3       1 RES1    0.0000
      8 H4        11.7558    6.3165   -0.3530 H         1 RES1    0.0000
      9 C5         9.8982    7.4487   -0.2766 C.3       1 RES1    0.0000
     10 H5         9.7088    7.5065   -1.2469 H         1 RES1    0.0000
     11 H6         9.2834    6.8061    0.1575 H         1 RES1    0.0000
     12 C6        10.3607    8.4016    1.8549 C.3       1 RES1    0.0000
     13 H7        10.7523    9.1658    2.3694 H         1 RES1    0.0000
     14 C7         9.2389    7.7301    2.5918 C.2       1 RES1    0.0000
     15 C8        10.8206    6.0707    2.2952 C.2       1 RES1    0.0000
     16 C9        11.3878    7.2782    1.5988 C.3       1 RES1    0.0000
     17 H8        12.2945    7.5172    1.9491 H         1 RES1    0.0000
     18 C10        8.7094    5.4751    3.4902 C.3       1 RES1    0.0000
     19 H9         8.2413    5.9263    4.2361 H         1 RES1    0.0000
     20 H10        9.2380    4.7276    3.8678 H         1 RES1    0.0000
     21 C11        7.6921    4.9278    2.5202 C.2       1 RES1    0.0000
     22 C12        5.6680    3.7432    2.3578 C.3       1 RES1    0.0000
     23 H11        6.0821    3.0004    1.8514 H         1 RES1    0.0000
     24 H12        5.2905    4.3892    1.7091 H         1 RES1    0.0000
     25 C13        4.5603    3.2039    3.2569 C.3       1 RES1    0.0000
     26 C14        5.1575    2.3450    4.3731 C.3       1 RES1    0.0000
     27 H13        5.7842    1.6963    3.9872 H         1 RES1    0.0000
     28 H14        4.4382    1.8682    4.8379 H         1 RES1    0.0000
     29 H15        5.6321    2.9192    5.0081 H         1 RES1    0.0000
     30 C15        3.5386    4.2461    3.7398 C.3       1 RES1    0.0000
     31 C16        3.9874    5.3918    4.6056 C.3       1 RES1    0.0000
     32 H16        3.2225    5.9760    4.7960 H         1 RES1    0.0000
     33 H17        4.6806    5.9028    4.1383 H         1 RES1    0.0000
     34 H18        4.3494    5.0433    5.4462 H         1 RES1    0.0000
     35 C17        2.3670    3.4067    4.1755 C.2       1 RES1    0.0000
     36 C18        1.3269    3.9090    5.1304 C.3       1 RES1    0.0000
     37 H19        0.8465    4.6598    4.7249 H         1 RES1    0.0000
     38 H20        1.7608    4.2072    5.9579 H         1 RES1    0.0000
     39 H21        0.6942    3.1878    5.3344 H         1 RES1    0.0000
     40 C19        1.3172    1.2356    3.3091 C.3       1 RES1    0.0000
     41 H22        0.7592    1.2477    4.1154 H         1 RES1    0.0000
     42 H23        1.7617    0.3660    3.2329 H         1 RES1    0.0000
     43 H24        0.7533    1.3847    2.5206 H         1 RES1    0.0000
     44 C20        2.3478    2.3182    3.3979 C.2       1 RES1    0.0000
     45 C21        3.4929    2.4773    2.4039 C.3       1 RES1    0.0000
     46 C22        3.9293    1.3001    1.5759 C.3       1 RES1    0.0000
     47 H25        4.4115    0.6628    2.1434 H         1 RES1    0.0000
     48 H26        4.5173    1.6070    0.8558 H         1 RES1    0.0000
     49 H27        3.1407    0.8623    1.1898 H         1 RES1    0.0000
     50 C23        1.7683    3.5296    0.9545 C.2       1 RES1    0.0000
     51 N1         9.6001    6.4119    2.8502 N.am      1 RES1    0.0000
     52 N2         3.0574    3.6626    1.5282 N.am      1 RES1    0.0000
     53 N3         0.9079    4.5181    1.1450 N.am      1 RES1    0.0000
     54 H28        0.1158    4.4926    0.7619 H         1 RES1    0.0000
     55 H29        1.1282    5.2011    1.6545 H         1 RES1    0.0000
     56 O1        11.3138    4.9627    2.3774 O.2       1 RES1    0.0000
     57 O2         8.1641    8.1941    2.9067 O.2       1 RES1    0.0000
     58 O3         7.8065    4.9513    1.3202 O.2       1 RES1    0.0000
     59 O4         6.6690    4.3977    3.1872 O.3       1 RES1    0.0000
     60 O5         3.1087    4.8157    2.4174 O.3       1 RES1    0.0000
     61 O6         1.5479    2.5364    0.2584 O.2       1 RES1    0.0000
@<TRIPOS>BOND
     1    1    2 1
     2    3    1 2
     3    4    3 1
     4    5    1 1
     5    6    5 1
     6    7    3 1
     7    8    7 1
     8    9    5 1
     9   10    9 1
    10   11    9 1
    11   12    5 1
    12   13   12 1
    13   14   12 1
    14   15   16 1
    15   16    7 1
    16   17   16 1
    17   18   19 1
    18   20   18 1
    19   21   18 1
    20   22   23 1
    21   24   22 1
    22   25   22 1
    23   26   25 1
    24   27   26 1
    25   28   26 1
    26   29   26 1
    27   30   25 1
    28   31   30 1
    29   32   31 1
    30   33   31 1
    31   34   31 1
    32   35   30 1
    33   36   35 1
    34   37   36 1
    35   38   36 1
    36   39   36 1
    37   40   41 1
    38   42   40 1
    39   43   40 1
    40   44   35 2
    41   45   25 1
    42   46   45 1
    43   47   46 1
    44   48   46 1
    45   49   46 1
    46   50   52 1
    47   51   14 1
    48   52   45 1
    49   53   50 1
    50   54   53 1
    51   55   53 1
    52   56   15 2
    53   57   14 2
    54   58   21 2
    55   59   21 1
    56   60   30 1
    57   61   50 2
    58    7    9 1
    59   12   16 1
    60   15   51 1
    61   18   51 1
    62   22   59 1
    63   40   44 1
    64   44   45 1
    65   52   60 1
@<TRIPOS>SUBSTRUCTURE
     1 RES1 1

@<TRIPOS>CRYSIN
  26.3331    6.7154   12.9775  90.0000 101.9130  90.0000  14 1

