# MOL2 file generated by ConQuest
# Please check atom types

@<TRIPOS>MOLECULE
WADVUV
    61    65     1
SMALL
NO_CHARGES
****
Generated from CSD

@<TRIPOS>ATOM
      1 C1         1.8686   -0.0025    0.0478 C.2       1 RES1    0.0000
      2 H1         1.6511   -0.8422    0.4371 H         1 RES1    0.0000
      3 C2         1.4923    0.4248   -1.1542 C.2       1 RES1    0.0000
      4 H2         0.9616   -0.0525   -1.7800 H         1 RES1    0.0000
      5 C3         2.7082    1.0885    0.6881 C.3       1 RES1    0.0000
      6 H3         3.3162    0.8011    1.4283 H         1 RES1    0.0000
      7 C4         2.0710    1.8255   -1.3429 C.3       1 RES1    0.0000
      8 H4         2.1509    2.1455   -2.2862 H         1 RES1    0.0000
      9 C5         3.3908    1.6650   -0.5669 C.3       1 RES1    0.0000
     10 H5         3.8452    2.5289   -0.3961 H         1 RES1    0.0000
     11 H6         4.0142    1.0271   -0.9946 H         1 RES1    0.0000
     12 C6         1.7063    2.2470    1.0236 C.3       1 RES1    0.0000
     13 H7         0.9428    1.9355    1.5896 H         1 RES1    0.0000
     14 C7         2.4167    3.4446    1.6263 C.2       1 RES1    0.0000
     15 C8         1.6691    4.1889   -0.4337 C.2       1 RES1    0.0000
     16 C9         1.2427    2.7332   -0.3714 C.3       1 RES1    0.0000
     17 H8         0.2573    2.6225   -0.5003 H         1 RES1    0.0000
     18 C10        3.0992    5.7327    0.9237 C.3       1 RES1    0.0000
     19 H9         3.0482    6.0027    1.8748 H         1 RES1    0.0000
     20 H10        2.6913    6.4501    0.3765 H         1 RES1    0.0000
     21 C11        4.5480    5.5506    0.5242 C.2       1 RES1    0.0000
     22 C12        6.6814    6.5468    0.5532 C.3       1 RES1    0.0000
     23 H11        6.7543    6.5094   -0.4328 H         1 RES1    0.0000
     24 H12        7.1353    5.7539    0.9348 H         1 RES1    0.0000
     25 C13        7.3155    7.8295    1.0851 C.3       1 RES1    0.0000
     26 C14        7.2482    7.8396    2.6089 C.3       1 RES1    0.0000
     27 H13        6.3210    7.7099    2.8958 H         1 RES1    0.0000
     28 H14        7.5781    8.6982    2.9453 H         1 RES1    0.0000
     29 H15        7.8040    7.1142    2.9649 H         1 RES1    0.0000
     30 C15        6.7879    9.1134    0.4038 C.3       1 RES1    0.0000
     31 C16        5.3837    9.5817    0.6565 C.3       1 RES1    0.0000
     32 H16        5.2184    9.6135    1.6221 H         1 RES1    0.0000
     33 H17        4.7519    8.9607    0.2373 H         1 RES1    0.0000
     34 H18        5.2646   10.4762    0.2766 H         1 RES1    0.0000
     35 C17        7.2939    8.9739   -1.0245 C.2       1 RES1    0.0000
     36 C18        6.6090    9.5667   -2.2120 C.3       1 RES1    0.0000
     37 H19        7.1819    9.4720   -3.0008 H         1 RES1    0.0000
     38 H20        6.4346   10.5173   -2.0472 H         1 RES1    0.0000
     39 H21        5.7614    9.0999   -2.3665 H         1 RES1    0.0000
     40 C19        9.4399    8.0311   -2.0515 C.3       1 RES1    0.0000
     41 H22        9.0545    8.2920   -2.9129 H         1 RES1    0.0000
     42 H23        9.6368    7.0709   -2.0592 H         1 RES1    0.0000
     43 H24       10.2671    8.5339   -1.8978 H         1 RES1    0.0000
     44 C20        8.4631    8.3312   -0.9553 C.2       1 RES1    0.0000
     45 C21        8.7441    8.0550    0.5071 C.3       1 RES1    0.0000
     46 C22        9.8268    7.0656    0.8657 C.3       1 RES1    0.0000
     47 H25        9.5750    6.1739    0.5430 H         1 RES1    0.0000
     48 H26        9.9383    7.0412    1.8389 H         1 RES1    0.0000
     49 H27       10.6701    7.3379    0.4473 H         1 RES1    0.0000
     50 C23        9.9853   10.2388    0.5267 C.2       1 RES1    0.0000
     51 N1         2.3668    4.4954    0.7300 N.am      1 RES1    0.0000
     52 N2         8.9804    9.4446    1.1114 N.am      1 RES1    0.0000
     53 N3         9.7075   11.5318    0.3586 N.am      1 RES1    0.0000
     54 H28       10.3295   12.0807    0.0666 H         1 RES1    0.0000
     55 H29        8.9023   11.8365    0.5395 H         1 RES1    0.0000
     56 O1         1.4686    4.9832   -1.3209 O.2       1 RES1    0.0000
     57 O2         2.9854    3.5035    2.6953 O.2       1 RES1    0.0000
     58 O3         4.9710    4.6292   -0.1110 O.2       1 RES1    0.0000
     59 O4         5.2882    6.5726    0.9562 O.3       1 RES1    0.0000
     60 O5         7.6917   10.1145    1.0357 O.3       1 RES1    0.0000
     61 O6        11.0836    9.7310    0.2988 O.2       1 RES1    0.0000
@<TRIPOS>BOND
     1    1    2 1
     2    3    1 2
     3    4    3 1
     4    5    1 1
     5    6    5 1
     6    7    3 1
     7    8    7 1
     8    9    5 1
     9   10    9 1
    10   11    9 1
    11   12    5 1
    12   13   12 1
    13   14   12 1
    14   15   16 1
    15   16    7 1
    16   17   16 1
    17   18   19 1
    18   20   18 1
    19   21   18 1
    20   22   23 1
    21   24   22 1
    22   25   22 1
    23   26   25 1
    24   27   26 1
    25   28   26 1
    26   29   26 1
    27   30   25 1
    28   31   30 1
    29   32   31 1
    30   33   31 1
    31   34   31 1
    32   35   30 1
    33   36   35 1
    34   37   36 1
    35   38   36 1
    36   39   36 1
    37   40   41 1
    38   42   40 1
    39   43   40 1
    40   44   35 2
    41   45   25 1
    42   46   45 1
    43   47   46 1
    44   48   46 1
    45   49   46 1
    46   50   52 1
    47   51   14 1
    48   52   45 1
    49   53   50 1
    50   54   53 1
    51   55   53 1
    52   56   15 2
    53   57   14 2
    54   58   21 2
    55   59   21 1
    56   60   30 1
    57   61   50 2
    58    7    9 1
    59   12   16 1
    60   15   51 1
    61   18   51 1
    62   22   59 1
    63   40   44 1
    64   44   45 1
    65   52   60 1
@<TRIPOS>SUBSTRUCTURE
     1 RES1 1

@<TRIPOS>CRYSIN
  11.5260   22.8240    8.6010  90.0000  96.9870  90.0000  14 1

