# MOL2 file generated by ConQuest
# Please check atom types

@<TRIPOS>MOLECULE
WAFDIQ01
    26    27     1
SMALL
USER_CHARGES
****
Generated from CSD

@<TRIPOS>ATOM
      1 C1         2.7287    2.9538   13.8312 C.ar      1 RES1    0.0000
      2 C2         1.6821    3.2603   14.6945 C.ar      1 RES1    0.0000
      3 H1         0.9304    2.7134   14.7274 H         1 RES1    0.0000
      4 C3         1.7579    4.3759   15.5023 C.ar      1 RES1    0.0000
      5 H2         1.0591    4.5692   16.0856 H         1 RES1    0.0000
      6 C4         2.8512    5.2060   15.4579 C.ar      1 RES1    0.0000
      7 H3         2.8798    5.9706   15.9869 H         1 RES1    0.0000
      8 C5         3.9027    4.9021   14.6276 C.ar      1 RES1    0.0000
      9 H4         4.6480    5.4584   14.6009 H         1 RES1    0.0000
     10 C6         3.8576    3.7769   13.8362 C.ar      1 RES1    0.0000
     11 H5         4.5856    3.5619   13.2983 H         1 RES1    0.0000
     12 C7         2.7727    1.8121   12.9417 C.2       1 RES1    0.0000
     13 H6         3.6065    1.5616   12.6158 H         1 RES1    0.0000
     14 N1         1.7514    1.1049   12.5582 N.pl3     1 RES1    1.0000
     15 O1         0.5231    1.3655   12.8671 O.2       1 RES1   -1.0000
     16 C8         1.9582   -0.0284   11.6570 C.ar      1 RES1    0.0000
     17 C9         3.0719   -0.8347   11.7550 C.ar      1 RES1    0.0000
     18 H7         3.7228   -0.6619   12.3961 H         1 RES1    0.0000
     19 C10        3.2090   -1.9031   10.8882 C.ar      1 RES1    0.0000
     20 H8         3.9558   -2.4547   10.9476 H         1 RES1    0.0000
     21 C11        2.2420   -2.1554    9.9351 C.ar      1 RES1    0.0000
     22 H9         2.3365   -2.8737    9.3516 H         1 RES1    0.0000
     23 C12        1.1370   -1.3374    9.8531 C.ar      1 RES1    0.0000
     24 H10        0.4879   -1.5012    9.2071 H         1 RES1    0.0000
     25 C13        0.9846   -0.2774   10.7205 C.ar      1 RES1    0.0000
     26 H11        0.2302    0.2640   10.6723 H         1 RES1    0.0000
@<TRIPOS>BOND
     1    1    2 ar
     2    2    3 1
     3    4    2 ar
     4    5    4 1
     5    6    4 ar
     6    7    6 1
     7    8    6 ar
     8    9    8 1
     9   10    1 ar
    10   11   10 1
    11   12    1 1
    12   13   12 1
    13   14   12 2
    14   15   14 1
    15   16   14 1
    16   17   16 ar
    17   18   17 1
    18   19   17 ar
    19   20   19 1
    20   21   19 ar
    21   22   21 1
    22   23   21 ar
    23   24   23 1
    24   25   16 ar
    25   26   25 1
    26    8   10 ar
    27   23   25 ar
@<TRIPOS>SUBSTRUCTURE
     1 RES1 1

@<TRIPOS>CRYSIN
   5.6419   13.1338   14.0119  90.0000  97.1920  90.0000  14 1

