# MOL2 file generated by ConQuest
# Please check atom types

@<TRIPOS>MOLECULE
WAFXAF
    62    47     2
SMALL
NO_CHARGES
****
Generated from CSD

@<TRIPOS>ATOM
      1 O1         1.5073    9.1896    6.5837 O.2       1 RES1    0.0000
      2 O2         4.1756    6.2204    4.7497 O.2       1 RES1    0.0000
      3 O3         2.9468    6.1046    2.8713 O.3       1 RES1    0.0000
      4 N1         3.1396    8.9094    5.0319 N.am      1 RES1    0.0000
      5 H1         3.9142    9.1590    4.7537 H         1 RES1    0.0000
      6 N2         1.9031    6.9105    2.2584 N.am      1 RES1    0.0000
      7 C1         3.4832   10.5111    6.7938 C.ar      1 RES1    0.0000
      8 C2         4.1704   11.5780    8.8383 C.ar      1 RES1    0.0000
      9 H2         4.1087   11.6607    9.7621 H         1 RES1    0.0000
     10 C3         3.3821   10.6499    8.1747 C.ar      1 RES1    0.0000
     11 H3         2.7857   10.1198    8.6522 H         1 RES1    0.0000
     12 C4         2.6272    9.4934    6.1300 C.2       1 RES1    0.0000
     13 C5         5.1250   12.2604    6.7632 C.ar      1 RES1    0.0000
     14 H4         5.7034   12.8092    6.2860 H         1 RES1    0.0000
     15 C6         2.9408    9.1245    2.1133 C.3       1 RES1    0.0000
     16 H5         3.8345    8.7513    2.1604 H         1 RES1    0.0000
     17 H6         2.9614    9.9993    2.5318 H         1 RES1    0.0000
     18 C7         2.4421    7.8848    4.3059 C.3       1 RES1    0.0000
     19 H7         1.6555    7.6143    4.8238 H         1 RES1    0.0000
     20 C8         3.2947    6.6821    4.0661 C.2       1 RES1    0.0000
     21 C9         1.9931    8.2354    2.8715 C.3       1 RES1    0.0000
     22 H8         1.1045    8.6479    2.8968 H         1 RES1    0.0000
     23 C10        2.5372    9.2796    0.6454 C.3       1 RES1    0.0000
     24 H9         2.6066    8.4297    0.2037 H         1 RES1    0.0000
     25 H10        3.1190    9.9112    0.2186 H         1 RES1    0.0000
     26 H11        1.6306    9.5935    0.5942 H         1 RES1    0.0000
     27 C11        5.0453   12.3815    8.1338 C.ar      1 RES1    0.0000
     28 H12        5.5774   12.9987    8.5801 H         1 RES1    0.0000
     29 C12        4.3547   11.3303    6.0907 C.ar      1 RES1    0.0000
     30 H13        4.4206   11.2530    5.1654 H         1 RES1    0.0000
     31 C13        0.5655    6.4697    2.1158 C.2       1 RES1    0.0000
     32 O4        -0.3805    7.1894    1.8913 O.2       1 RES1    0.0000
     33 O5         0.6032    5.1394    2.2005 O.3       1 RES1    0.0000
     34 C14       -0.6649    4.3603    2.0564 C.3       1 RES1    0.0000
     35 C15       -1.6109    4.7163    3.1663 C.3       1 RES1    0.0000
     36 H14       -1.1611    4.6302    4.0088 H         1 RES1    0.0000
     37 H15       -2.3667    4.1249    3.1430 H         1 RES1    0.0000
     38 H16       -1.9091    5.6217    3.0517 H         1 RES1    0.0000
     39 C16       -1.3153    4.6092    0.6579 C.3       1 RES1    0.0000
     40 H17       -1.6435    5.5107    0.6112 H         1 RES1    0.0000
     41 H18       -2.0437    3.9986    0.5284 H         1 RES1    0.0000
     42 H19       -0.6581    4.4733   -0.0297 H         1 RES1    0.0000
     43 C17       -0.1568    2.9458    2.1710 C.3       1 RES1    0.0000
     44 H20        0.4164    2.7506    1.4240 H         1 RES1    0.0000
     45 H21       -0.8997    2.3371    2.1689 H         1 RES1    0.0000
     46 H22        0.3368    2.8463    2.9881 H         1 RES1    0.0000
     47 C18        0.9546    5.6696    2.5148 Du        2 SUP2    0.0000
     48 O6         1.1002    4.5134    2.8246 Du        2 SUP2    0.0000
     49 O7        -0.1320    6.3146    2.1052 Du        2 SUP2    0.0000
     50 C19       -1.3821    5.5030    1.8909 Du        2 SUP2    0.0000
     51 C20       -1.0540    4.4637    0.8722 Du        2 SUP2    0.0000
     52 H23       -0.6675    4.8829    0.1019 Du        2 SUP2    0.0000
     53 H24       -1.8611    4.0062    0.6154 Du        2 SUP2    0.0000
     54 H25       -0.4353    3.8359    1.2436 Du        2 SUP2    0.0000
     55 C21       -1.8337    4.8790    3.2597 Du        2 SUP2    0.0000
     56 H26       -2.7309    4.5383    3.1769 Du        2 SUP2    0.0000
     57 H27       -1.8157    5.5547    3.9430 Du        2 SUP2    0.0000
     58 H28       -1.2433    4.1632    3.4995 Du        2 SUP2    0.0000
     59 C22       -2.3564    6.5768    1.4728 Du        2 SUP2    0.0000
     60 H29       -1.9905    7.0707    0.7343 Du        2 SUP2    0.0000
     61 H30       -2.5115    7.1721    2.2092 Du        2 SUP2    0.0000
     62 H31       -3.1850    6.1730    1.2075 Du        2 SUP2    0.0000
@<TRIPOS>BOND
     1    1   12 2
     2    2   20 2
     3    3    6 1
     4    4    5 1
     5    6   21 1
     6    7   10 ar
     7    8    9 1
     8   10    8 ar
     9   11   10 1
    10   12    4 1
    11   13   14 1
    12   15   16 1
    13   17   15 1
    14   18    4 1
    15   19   18 1
    16   20    3 1
    17   21   15 1
    18   22   21 1
    19   23   15 1
    20   24   23 1
    21   25   23 1
    22   26   23 1
    23   27    8 ar
    24   28   27 1
    25   29    7 ar
    26   30   29 1
    27   31    6 1
    28   32   31 2
    29   33   31 1
    30   34   33 1
    31   35   34 1
    32   36   35 1
    33   37   35 1
    34   38   35 1
    35   39   34 1
    36   40   39 1
    37   41   39 1
    38   42   39 1
    39   43   34 1
    40   44   43 1
    41   45   43 1
    42   46   43 1
    43    7   12 1
    44   13   27 ar
    45   13   29 ar
    46   18   20 1
    47   18   21 1
@<TRIPOS>SUBSTRUCTURE
     1 RES1 1
     2 SUP2 47

@<TRIPOS>CRYSIN
   8.5688   19.1410   21.2220  90.0000  90.0000  90.0000  61 1

