# MOL2 file generated by ConQuest
# Please check atom types

@<TRIPOS>MOLECULE
WAGBIR
    39    33     2
SMALL
NO_CHARGES
****
Generated from CSD

@<TRIPOS>ATOM
      1 C1         3.2808    1.3779    4.7334 C.ar      1 RES1    0.0000
      2 C2         2.5605    0.7459    3.7153 C.ar      1 RES1    0.0000
      3 H1         2.3978   -0.1885    3.7649 H         1 RES1    0.0000
      4 C3         2.0832    1.4646    2.6392 C.ar      1 RES1    0.0000
      5 H2         1.6148    1.0319    1.9347 H         1 RES1    0.0000
      6 C4         2.3032    2.8333    2.6092 C.ar      1 RES1    0.0000
      7 C5         2.9791    3.5028    3.6151 C.ar      1 RES1    0.0000
      8 H3         3.0924    4.4452    3.5835 H         1 RES1    0.0000
      9 C6         3.4862    2.7604    4.6684 C.ar      1 RES1    0.0000
     10 H4         3.9792    3.1952    5.3545 H         1 RES1    0.0000
     11 C7         3.8203    0.6026    5.8705 C.2       1 RES1    0.0000
     12 C8         4.0271   -0.8494    5.7378 C.2       1 RES1    0.0000
     13 C9         4.6709   -1.6118    4.6769 C.2       1 RES1    0.0000
     14 C10        5.7985   -1.4630    2.5959 C.3       1 RES1    0.0000
     15 H5         5.2223   -2.1810    2.2325 H         1 RES1    0.0000
     16 H6         6.6621   -1.8594    2.8745 H         1 RES1    0.0000
     17 C11        5.9765   -0.3675    1.5669 C.3       1 RES1    0.0000
     18 H7         5.0995   -0.0967    1.2228 H         1 RES1    0.0000
     19 H8         6.5291   -0.6991    0.8293 H         1 RES1    0.0000
     20 H9         6.4159    0.4041    1.9831 H         1 RES1    0.0000
     21 C12        5.0303    1.2833    9.0416 C.3       1 RES1    0.0000
     22 H10        5.5924    2.0182    8.7171 H         1 RES1    0.0000
     23 H11        5.5345    0.7459    9.6875 H         1 RES1    0.0000
     24 H12        4.2320    1.6500    9.4755 H         1 RES1    0.0000
     25 N1         1.7709    3.5996    1.4796 N.pl3     1 RES1    0.0000
     26 N2         4.0698    1.2686    6.9536 N.2       1 RES1    0.0000
     27 N3         3.6296   -1.6294    6.7426 N.1       1 RES1    0.0000
     28 N4         3.2977   -2.3178    7.5600 N.2       1 RES1    0.0000
     29 O1         1.7588    4.8262    1.5696 O.2       1 RES1    0.0000
     30 O2         1.3552    2.9877    0.5008 O.2       1 RES1    0.0000
     31 O3         4.6374    0.4584    7.9362 O.3       1 RES1    0.0000
     32 O4         5.1489   -0.8099    3.7251 O.3       1 RES1    0.0000
     33 O5         4.7543   -2.8256    4.6763 O.2       1 RES1    0.0000
     34 C13        6.3320   -0.5139    1.6231 Du        2 SUP2    0.0000
     35 H13        5.1448   -2.0545    2.1458 Du        2 SUP2    0.0000
     36 H14        6.5374   -2.0293    2.9327 Du        2 SUP2    0.0000
     37 H15        5.5945    0.0027    1.2366 Du        2 SUP2    0.0000
     38 H16        6.7945   -1.0057    0.9121 Du        2 SUP2    0.0000
     39 H17        6.9595    0.0895    2.0669 Du        2 SUP2    0.0000
@<TRIPOS>BOND
     1    1    2 ar
     2    2    3 1
     3    4    2 ar
     4    5    4 1
     5    6    4 ar
     6    7    6 ar
     7    8    7 1
     8    9    1 ar
     9   10    9 1
    10   11    1 1
    11   12   11 1
    12   13   12 1
    13   14   15 1
    14   16   14 1
    15   17   14 1
    16   18   17 1
    17   19   17 1
    18   20   17 1
    19   21   22 1
    20   23   21 1
    21   24   21 1
    22   25    6 1
    23   26   11 2
    24   27   12 2
    25   28   27 2
    26   29   25 2
    27   30   25 2
    28   31   21 1
    29   32   13 1
    30   33   13 2
    31    7    9 ar
    32   14   32 1
    33   26   31 1
@<TRIPOS>SUBSTRUCTURE
     1 RES1 1
     2 SUP2 34

@<TRIPOS>CRYSIN
   7.3700    9.7037   11.1102 111.9330  99.5410 104.7380   2 1

