# MOL2 file generated by ConQuest
# Please check atom types

@<TRIPOS>MOLECULE
WAGZOU
    49    52     1
SMALL
NO_CHARGES
****
Generated from CSD

@<TRIPOS>ATOM
      1 O1        -2.0261    6.0781   10.2615 O.3       1 RES1    0.0000
      2 O2        -0.2512    5.5293    9.0132 O.2       1 RES1    0.0000
      3 O3        -6.3316    3.2140    5.8833 O.2       1 RES1    0.0000
      4 O4        -4.7356    2.7747    4.5465 O.2       1 RES1    0.0000
      5 N1        -5.1609    3.2491    5.5784 N.pl3     1 RES1    0.0000
      6 C1        -1.3317    6.6732   11.2905 C.2       1 RES1    0.0000
      7 C2        -0.1255    7.2037   11.3443 C.2       1 RES1    0.0000
      8 C3         0.1150    7.8294   12.6843 C.3       1 RES1    0.0000
      9 C4        -2.3337    5.5953   14.8377 C.3       1 RES1    0.0000
     10 C5        -3.1852    4.3730   14.5084 C.3       1 RES1    0.0000
     11 C6        -4.1121    4.5549   13.3396 C.2       1 RES1    0.0000
     12 C7        -4.2957    5.5811   12.5229 C.2       1 RES1    0.0000
     13 C8        -3.5981    6.9354   12.5278 C.3       1 RES1    0.0000
     14 C9        -1.4314    5.5562    9.1827 C.2       1 RES1    0.0000
     15 C10       -2.4368    4.9977    8.2176 C.ar      1 RES1    0.0000
     16 C11       -1.9830    4.4019    7.0782 C.ar      1 RES1    0.0000
     17 C12       -2.8627    3.8134    6.2011 C.ar      1 RES1    0.0000
     18 C13       -4.2083    3.8778    6.4848 C.ar      1 RES1    0.0000
     19 C14       -1.1577    7.5369   13.4945 C.3       1 RES1    0.0000
     20 C15       -1.4363    6.0642   13.7211 C.3       1 RES1    0.0000
     21 C16       -2.2878    3.1689   14.2329 C.3       1 RES1    0.0000
     22 C17       -4.0594    4.0418   15.7392 C.3       1 RES1    0.0000
     23 C18       -2.0951    6.7864   12.5506 C.3       1 RES1    0.0000
     24 C19       -3.7950    5.0561    8.4997 C.ar      1 RES1    0.0000
     25 C20       -4.6892    4.4768    7.6226 C.ar      1 RES1    0.0000
     26 C21       -1.5972    8.6038   14.4530 C.3       1 RES1    0.0000
     27 H1         0.4915    7.1840   10.5830 H         1 RES1    0.0000
     28 H2         0.2920    8.8159   12.5849 H         1 RES1    0.0000
     29 H3         0.9306    7.4099   13.1163 H         1 RES1    0.0000
     30 H4        -1.7204    9.4607   13.9705 H         1 RES1    0.0000
     31 H5        -0.8372    8.7270   15.1328 H         1 RES1    0.0000
     32 H6        -2.4077    8.3290   14.9258 H         1 RES1    0.0000
     33 H7        -0.8293    5.2906   13.8433 H         1 RES1    0.0000
     34 H8        -2.9329    6.3495   15.1067 H         1 RES1    0.0000
     35 H9        -1.7380    5.3678   15.6316 H         1 RES1    0.0000
     36 H10       -2.8768    2.3854   14.0227 H         1 RES1    0.0000
     37 H11       -1.7592    2.9639   15.0627 H         1 RES1    0.0000
     38 H12       -1.6822    3.3588   13.4814 H         1 RES1    0.0000
     39 H13       -4.5851    3.2181   15.5892 H         1 RES1    0.0000
     40 H14       -4.5994    4.7905   16.0310 H         1 RES1    0.0000
     41 H15       -3.3996    3.8085   16.5445 H         1 RES1    0.0000
     42 H16       -4.6714    3.7416   13.1195 H         1 RES1    0.0000
     43 H17       -4.9549    5.4376   11.7861 H         1 RES1    0.0000
     44 H18       -3.8805    7.4357   11.7078 H         1 RES1    0.0000
     45 H19       -3.9180    7.4342   13.3412 H         1 RES1    0.0000
     46 H20       -1.0054    4.3864    6.8581 H         1 RES1    0.0000
     47 H21       -2.5184    3.3238    5.3958 H         1 RES1    0.0000
     48 H22       -5.6914    4.5537    7.8020 H         1 RES1    0.0000
     49 H23       -4.1313    5.5449    9.2984 H         1 RES1    0.0000
@<TRIPOS>BOND
     1    1    6 1
     2    2   14 2
     3    3    5 2
     4    4    5 2
     5    5   18 1
     6    6    7 2
     7    7    8 1
     8    8   19 1
     9    9   10 1
    10   10   11 1
    11   11   12 2
    12   12   13 1
    13   13   23 1
    14   14    1 1
    15   15   14 1
    16   16   15 ar
    17   17   16 ar
    18   18   17 ar
    19   19   20 1
    20   20    9 1
    21   21   10 1
    22   22   10 1
    23   23    6 1
    24   24   15 ar
    25   25   18 ar
    26   26   19 1
    27   27    7 1
    28   28    8 1
    29   29    8 1
    30   30   26 1
    31   31   26 1
    32   32   26 1
    33   33   20 1
    34   34    9 1
    35   35    9 1
    36   36   21 1
    37   37   21 1
    38   38   21 1
    39   39   22 1
    40   40   22 1
    41   41   22 1
    42   42   11 1
    43   43   12 1
    44   44   13 1
    45   45   13 1
    46   46   16 1
    47   47   17 1
    48   48   25 1
    49   49   24 1
    50   19   23 1
    51   20   23 1
    52   24   25 ar
@<TRIPOS>SUBSTRUCTURE
     1 RES1 1

@<TRIPOS>CRYSIN
   7.3180    8.0570   16.5480  93.4000  97.9000 106.7400   2 1

