# MOL2 file generated by ConQuest
# Please check atom types

@<TRIPOS>MOLECULE
WAHFER
    76    82     1
SMALL
NO_CHARGES
****
Generated from CSD

@<TRIPOS>ATOM
      1 O1         7.6183    6.5950    6.8303 O.3       1 RES1    0.0000
      2 O2         6.3931    4.9490    7.7962 O.2       1 RES1    0.0000
      3 O3         5.1197    9.7331   11.2636 O.3       1 RES1    0.0000
      4 O4         9.5386    9.2456    9.9668 O.2       1 RES1    0.0000
      5 N1         7.0590    6.7994    8.9688 N.am      1 RES1    0.0000
      6 N2         5.3129   10.1861   12.5890 N.2       1 RES1    0.0000
      7 N3         9.6968    7.0080    9.7834 N.am      1 RES1    0.0000
      8 H1         9.3671    6.2688    9.4618 H         1 RES1    0.0000
      9 C1         8.5098    6.5839    4.6284 C.3       1 RES1    0.0000
     10 H2         8.4828    7.5824    4.6758 H         1 RES1    0.0000
     11 C2         9.9200    6.1017    4.9064 C.ar      1 RES1    0.0000
     12 C3        10.6832    6.2363    6.0563 C.ar      1 RES1    0.0000
     13 H3        10.3262    6.6603    6.8283 H         1 RES1    0.0000
     14 C4        11.9808    5.7394    6.0591 C.ar      1 RES1    0.0000
     15 H4        12.5133    5.8193    6.8417 H         1 RES1    0.0000
     16 C5        12.5076    5.1260    4.9263 C.ar      1 RES1    0.0000
     17 H5        13.4033    4.8103    4.9380 H         1 RES1    0.0000
     18 C6        11.7481    4.9706    3.7862 C.ar      1 RES1    0.0000
     19 H6        12.1083    4.5376    3.0209 H         1 RES1    0.0000
     20 C7        10.4464    5.4573    3.7749 C.ar      1 RES1    0.0000
     21 C8         9.4284    5.4696    2.7183 C.ar      1 RES1    0.0000
     22 C9         9.4496    4.9803    1.4158 C.ar      1 RES1    0.0000
     23 H7        10.2145    4.5248    1.0838 H         1 RES1    0.0000
     24 C10        8.3395    5.1673    0.6137 C.ar      1 RES1    0.0000
     25 H8         8.3456    4.8407   -0.2789 H         1 RES1    0.0000
     26 C11        7.2132    5.8263    1.0928 C.ar      1 RES1    0.0000
     27 H9         6.4615    5.9476    0.5260 H         1 RES1    0.0000
     28 C12        7.1795    6.3087    2.3957 C.ar      1 RES1    0.0000
     29 H10        6.4054    6.7467    2.7303 H         1 RES1    0.0000
     30 C13        8.2950    6.1379    3.1956 C.ar      1 RES1    0.0000
     31 C14        7.4407    6.0038    5.5348 C.3       1 RES1    0.0000
     32 H11        6.5402    6.2144    5.1818 H         1 RES1    0.0000
     33 H12        7.5355    5.0203    5.5909 H         1 RES1    0.0000
     34 C15        6.9701    6.0290    7.8622 C.2       1 RES1    0.0000
     35 C16        6.4867    6.3536   10.2400 C.3       1 RES1    0.0000
     36 H13        7.2159    6.1988   10.8912 H         1 RES1    0.0000
     37 H14        6.0122    5.4961   10.1030 H         1 RES1    0.0000
     38 C17        5.5166    7.3838   10.8027 C.3       1 RES1    0.0000
     39 H15        5.2123    7.0936   11.6995 H         1 RES1    0.0000
     40 H16        4.7227    7.4436   10.2149 H         1 RES1    0.0000
     41 C18        6.1728    8.7586   10.9099 C.3       1 RES1    0.0000
     42 C19        6.7160    9.1690    9.5529 C.3       1 RES1    0.0000
     43 H17        7.1897   10.0334    9.6438 H         1 RES1    0.0000
     44 H18        5.9586    9.3029    8.9291 H         1 RES1    0.0000
     45 C20        7.6755    8.1340    8.9573 C.3       1 RES1    0.0000
     46 H19        7.8124    8.3824    7.9989 H         1 RES1    0.0000
     47 C21        7.1743    8.8811   12.0620 C.3       1 RES1    0.0000
     48 H20        7.3878    7.9957   12.4509 H         1 RES1    0.0000
     49 H21        8.0115    9.3182   11.7663 H         1 RES1    0.0000
     50 C22        6.4258    9.7381   13.0361 C.2       1 RES1    0.0000
     51 C23        6.9338   10.0822   14.3700 C.ar      1 RES1    0.0000
     52 C24        6.0997   10.6028   15.3634 C.ar      1 RES1    0.0000
     53 H22        5.1765   10.7345   15.1829 H         1 RES1    0.0000
     54 C25        6.6089   10.9282   16.6064 C.ar      1 RES1    0.0000
     55 H23        6.0317   11.2733   17.2770 H         1 RES1    0.0000
     56 C26        7.9522   10.7551   16.8802 C.ar      1 RES1    0.0000
     57 H24        8.3000   10.9914   17.7329 H         1 RES1    0.0000
     58 C27        8.7865   10.2376   15.9093 C.ar      1 RES1    0.0000
     59 H25        9.7103   10.1156   16.0947 H         1 RES1    0.0000
     60 C28        8.2783    9.8958   14.6646 C.ar      1 RES1    0.0000
     61 H26        8.8564    9.5301   14.0056 H         1 RES1    0.0000
     62 C29        9.0442    8.1717    9.6233 C.2       1 RES1    0.0000
     63 C30       11.0077    7.0043   10.4101 C.3       1 RES1    0.0000
     64 H27       11.5560    7.7272   10.0145 H         1 RES1    0.0000
     65 H28       11.4562    6.1441   10.2132 H         1 RES1    0.0000
     66 C31       10.9467    7.1969   11.9105 C.ar      1 RES1    0.0000
     67 C32       10.1409    6.3888   12.7066 C.ar      1 RES1    0.0000
     68 H29        9.5929    5.7292   12.2973 H         1 RES1    0.0000
     69 C33       10.1240    6.5284   14.0809 C.ar      1 RES1    0.0000
     70 H30        9.5689    5.9664   14.6085 H         1 RES1    0.0000
     71 C34       10.9174    7.4889   14.6905 C.ar      1 RES1    0.0000
     72 H31       10.9154    7.5818   15.6355 H         1 RES1    0.0000
     73 C35       11.7120    8.3105   13.9101 C.ar      1 RES1    0.0000
     74 H32       12.2531    8.9733   14.3212 H         1 RES1    0.0000
     75 C36       11.7220    8.1715   12.5336 C.ar      1 RES1    0.0000
     76 H33       12.2637    8.7473   12.0067 H         1 RES1    0.0000
@<TRIPOS>BOND
     1    1   31 1
     2    2   34 2
     3    3    6 1
     4    4   62 2
     5    5   34 1
     6    6   50 2
     7    7    8 1
     8    9   10 1
     9   11    9 1
    10   12   11 ar
    11   13   12 1
    12   14   12 ar
    13   15   14 1
    14   16   14 ar
    15   17   16 1
    16   18   16 ar
    17   19   18 1
    18   20   11 ar
    19   21   20 1
    20   22   21 ar
    21   23   22 1
    22   24   22 ar
    23   25   24 1
    24   26   24 ar
    25   27   26 1
    26   28   26 ar
    27   29   28 1
    28   30    9 1
    29   31    9 1
    30   32   31 1
    31   33   31 1
    32   34    1 1
    33   35    5 1
    34   36   35 1
    35   37   35 1
    36   38   35 1
    37   39   38 1
    38   40   38 1
    39   41    3 1
    40   42   41 1
    41   43   42 1
    42   44   42 1
    43   45    5 1
    44   46   45 1
    45   47   41 1
    46   48   47 1
    47   49   47 1
    48   50   47 1
    49   51   50 1
    50   52   51 ar
    51   53   52 1
    52   54   52 ar
    53   55   54 1
    54   56   54 ar
    55   57   56 1
    56   58   56 ar
    57   59   58 1
    58   60   51 ar
    59   61   60 1
    60   62    7 1
    61   63    7 1
    62   64   63 1
    63   65   63 1
    64   66   63 1
    65   67   66 ar
    66   68   67 1
    67   69   67 ar
    68   70   69 1
    69   71   69 ar
    70   72   71 1
    71   73   71 ar
    72   74   73 1
    73   75   66 ar
    74   76   75 1
    75   18   20 ar
    76   21   30 ar
    77   28   30 ar
    78   38   41 1
    79   42   45 1
    80   45   62 1
    81   58   60 ar
    82   73   75 ar
@<TRIPOS>SUBSTRUCTURE
     1 RES1 1

@<TRIPOS>CRYSIN
   9.2860    9.9036   17.0260  86.9190  78.7760  70.6160   2 1

