# MOL2 file generated by ConQuest
# Please check atom types

@<TRIPOS>MOLECULE
WAHLIA
    37    39     1
SMALL
NO_CHARGES
****
Generated from CSD

@<TRIPOS>ATOM
      1 O1         3.2159    4.8158   13.1600 O.3       1 RES1    0.0000
      2 C1         3.8930    3.5618   13.0713 C.3       1 RES1    0.0000
      3 N1         3.7937    3.1865   11.6749 N.3       1 RES1    0.0000
      4 C2         4.0085    4.4660   11.0110 C.3       1 RES1    0.0000
      5 C3         3.7453    4.4660    9.5104 C.3       1 RES1    0.0000
      6 C4         2.2739    4.4406    9.1543 C.3       1 RES1    0.0000
      7 C5         1.5230    5.5324    9.8867 C.3       1 RES1    0.0000
      8 C6         1.6502    5.3307   11.3842 C.3       1 RES1    0.0000
      9 C7         3.1042    5.3560   11.8149 C.3       1 RES1    0.0000
     10 C8         4.7495    2.1413   11.3188 C.3       1 RES1    0.0000
     11 C9         3.2594    2.5673   14.0059 C.ar      1 RES1    0.0000
     12 C10        3.9005    2.1977   15.1690 C.ar      1 RES1    0.0000
     13 C11        3.3183    1.3020   16.0460 C.ar      1 RES1    0.0000
     14 C12        2.0846    0.7998   15.7428 C.ar      1 RES1    0.0000
     15 C13        1.4199    1.1369   14.5890 C.ar      1 RES1    0.0000
     16 C14        2.0101    2.0313   13.7275 C.ar      1 RES1    0.0000
     17 N2         1.4696   -0.1693   16.6712 N.pl3     1 RES1    0.0000
     18 O2         0.3643   -0.5995   16.3773 O.2       1 RES1    0.0000
     19 O3         2.0579   -0.4599   17.6835 O.2       1 RES1    0.0000
     20 H1         4.8034    3.5970   13.3419 H         1 RES1    0.0000
     21 H2         4.9152    4.7537   11.0094 H         1 RES1    0.0000
     22 H3         4.1580    3.6958    9.1279 H         1 RES1    0.0000
     23 H4         4.1332    5.2474    9.1434 H         1 RES1    0.0000
     24 H5         1.9114    3.5970    9.3922 H         1 RES1    0.0000
     25 H6         2.1783    4.5703    8.2260 H         1 RES1    0.0000
     26 H7         0.6082    5.5013    9.6410 H         1 RES1    0.0000
     27 H8         1.8866    6.3759    9.6566 H         1 RES1    0.0000
     28 H9         1.2722    4.4857   11.6159 H         1 RES1    0.0000
     29 H10        1.1791    6.0233   11.8336 H         1 RES1    0.0000
     30 H11        3.3637    6.2631   11.7092 H         1 RES1    0.0000
     31 H12        4.6545    1.9184   10.4030 H         1 RES1    0.0000
     32 H13        4.5862    1.3683   11.8491 H         1 RES1    0.0000
     33 H14        5.6350    2.4544   11.4759 H         1 RES1    0.0000
     34 H15        4.7538    2.5673   15.3634 H         1 RES1    0.0000
     35 H16        3.7670    1.0438   16.8407 H         1 RES1    0.0000
     36 H17        0.5710    0.7617   14.3838 H         1 RES1    0.0000
     37 H18        1.5577    2.2852   12.9376 H         1 RES1    0.0000
@<TRIPOS>BOND
     1    1    2 1
     2    2    3 1
     3    3    4 1
     4    4    5 1
     5    5    6 1
     6    6    7 1
     7    7    8 1
     8    8    9 1
     9    9    1 1
    10   10    3 1
    11   11    2 1
    12   12   11 ar
    13   13   12 ar
    14   14   13 ar
    15   15   14 ar
    16   16   11 ar
    17   17   14 1
    18   18   17 2
    19   19   17 2
    20   20    2 1
    21   21    4 1
    22   22    5 1
    23   23    5 1
    24   24    6 1
    25   25    6 1
    26   26    7 1
    27   27    7 1
    28   28    8 1
    29   29    8 1
    30   30    9 1
    31   31   10 1
    32   32   10 1
    33   33   10 1
    34   34   12 1
    35   35   13 1
    36   36   15 1
    37   37   16 1
    38    4    9 1
    39   15   16 ar
@<TRIPOS>SUBSTRUCTURE
     1 RES1 1

@<TRIPOS>CRYSIN
   6.2060   14.1060   15.5500  90.0000  90.0000  90.0000  19 1

