# MOL2 file generated by ConQuest
# Please check atom types

@<TRIPOS>MOLECULE
WAJBAK
    38    40     1
SMALL
NO_CHARGES
****
Generated from CSD

@<TRIPOS>ATOM
      1 N1         1.9519    3.4459    1.8779 N.3       1 RES1    0.0000
      2 O1         2.7530    2.2488    2.0875 O.3       1 RES1    0.0000
      3 C1         4.0518    2.8186    2.3473 C.3       1 RES1    0.0000
      4 C2         4.1446    4.0461    1.4145 C.3       1 RES1    0.0000
      5 C3         2.7243    4.1323    0.8418 C.3       1 RES1    0.0000
      6 C4         2.0678    5.4680    0.5769 C.3       1 RES1    0.0000
      7 C5         0.6405    5.2178    0.1289 C.3       1 RES1    0.0000
      8 C6        -0.1168    4.3065    1.0668 C.3       1 RES1    0.0000
      9 C7         0.6560    3.0384    1.3624 C.3       1 RES1    0.0000
     10 C8         4.5695    5.2838    2.1458 C.2       1 RES1    0.0000
     11 O2         4.5664    5.4376    3.3231 O.2       1 RES1    0.0000
     12 O3         4.9573    6.2441    1.3082 O.3       1 RES1    0.0000
     13 C9         5.2652    7.5258    1.8901 C.3       1 RES1    0.0000
     14 C10        5.0722    1.7415    2.1571 C.ar      1 RES1    0.0000
     15 C11        5.8514    1.3273    3.2147 C.ar      1 RES1    0.0000
     16 C12        6.7740    0.3111    3.0531 C.ar      1 RES1    0.0000
     17 C13        6.9268   -0.3010    1.8431 C.ar      1 RES1    0.0000
     18 C14        6.1614    0.1082    0.7763 C.ar      1 RES1    0.0000
     19 C15        5.2431    1.1227    0.9328 C.ar      1 RES1    0.0000
     20 H1         4.0928    3.1618    3.2525 H         1 RES1    0.0000
     21 H2         4.7831    3.9057    0.7364 H         1 RES1    0.0000
     22 H3         2.7227    3.6183   -0.0102 H         1 RES1    0.0000
     23 H4         2.5330    5.9516   -0.1227 H         1 RES1    0.0000
     24 H5         2.0769    6.0023    1.4012 H         1 RES1    0.0000
     25 H6         0.2321    6.0192   -0.0409 H         1 RES1    0.0000
     26 H7         0.6604    4.7850   -0.7262 H         1 RES1    0.0000
     27 H8        -0.2685    4.7511    1.9331 H         1 RES1    0.0000
     28 H9        -0.9384    4.0241    0.5830 H         1 RES1    0.0000
     29 H10        0.7349    2.5193    0.5728 H         1 RES1    0.0000
     30 H11        0.2712    2.4686    2.0865 H         1 RES1    0.0000
     31 H12        5.5630    8.2173    1.1149 H         1 RES1    0.0000
     32 H13        6.0687    7.4226    2.5979 H         1 RES1    0.0000
     33 H14        4.3925    7.9129    2.3934 H         1 RES1    0.0000
     34 H15        5.7584    1.7584    4.0196 H         1 RES1    0.0000
     35 H16        7.3107    0.0676    3.8457 H         1 RES1    0.0000
     36 H17        7.5497   -1.0652    1.7285 H         1 RES1    0.0000
     37 H18        6.2849   -0.3213   -0.0716 H         1 RES1    0.0000
     38 H19        4.6764    1.4203    0.2148 H         1 RES1    0.0000
@<TRIPOS>BOND
     1    1    2 1
     2    2    3 1
     3    3    4 1
     4    4    5 1
     5    5    1 1
     6    6    5 1
     7    7    6 1
     8    8    7 1
     9    9    1 1
    10   10    4 1
    11   11   10 2
    12   12   10 1
    13   13   12 1
    14   14    3 1
    15   15   14 ar
    16   16   15 ar
    17   17   16 ar
    18   18   17 ar
    19   19   14 ar
    20   20    3 1
    21   21    4 1
    22   22    5 1
    23   23    6 1
    24   24    6 1
    25   25    7 1
    26   26    7 1
    27   27    8 1
    28   28    8 1
    29   29    9 1
    30   30    9 1
    31   31   13 1
    32   32   13 1
    33   33   13 1
    34   34   15 1
    35   35   16 1
    36   36   17 1
    37   37   18 1
    38   38   19 1
    39    8    9 1
    40   18   19 ar
@<TRIPOS>SUBSTRUCTURE
     1 RES1 1

@<TRIPOS>CRYSIN
   8.1990   16.9080   10.2480  90.0000  93.5800  90.0000  14 1

