# MOL2 file generated by ConQuest
# Please check atom types

@<TRIPOS>MOLECULE
WAJDES
    87    82     2
SMALL
NO_CHARGES
****
Generated from CSD

@<TRIPOS>ATOM
      1 N1         2.5358    5.9266    5.1369 N.3       1 RES1    0.0000
      2 O1         5.8616    5.5385   10.0220 O.2       1 RES1    0.0000
      3 O2         3.2736    1.8145    9.1332 O.2       1 RES1    0.0000
      4 O3         5.1848    2.2267   10.2371 O.3       1 RES1    0.0000
      5 O4         1.5980    6.8063   12.0465 O.2       1 RES1    0.0000
      6 O5         0.1022    5.1425   12.1171 O.3       1 RES1    0.0000
      7 O6         2.2215    5.2446    6.3795 O.3       1 RES1    0.0000
      8 C1         3.9503    4.1137    9.5659 C.3       1 RES1    0.0000
      9 C2         3.3694    4.6302   10.9418 C.3       1 RES1    0.0000
     10 H1         3.7677    5.5344   11.0944 H         1 RES1    0.0000
     11 C3         1.8822    4.8598   10.6410 C.3       1 RES1    0.0000
     12 H2         1.4093    3.9808   10.5832 H         1 RES1    0.0000
     13 C4         1.9386    5.5067    9.2571 C.3       1 RES1    0.0000
     14 H3         2.3008    6.4271    9.3052 H         1 RES1    0.0000
     15 H4         1.0444    5.5298    8.8340 H         1 RES1    0.0000
     16 C5         2.8881    4.5725    8.5033 C.3       1 RES1    0.0000
     17 H5         2.3570    3.7605    8.2616 H         1 RES1    0.0000
     18 C6         5.3447    4.6995    9.3446 C.2       1 RES1    0.0000
     19 O7         5.9212    4.1401    8.2735 O.3       1 RES1    0.0000
     20 C7         7.2543    4.6140    7.9205 C.3       1 RES1    0.0000
     21 H6         7.9462    4.0199    8.3068 H         1 RES1    0.0000
     22 H7         7.3981    5.5313    8.2669 H         1 RES1    0.0000
     23 C8         7.3349    4.6025    6.4130 C.3       1 RES1    0.0000
     24 H8         7.1699    3.6945    6.0837 H         1 RES1    0.0000
     25 H9         8.2273    4.8950    6.1316 H         1 RES1    0.0000
     26 H10        6.6604    5.2105    6.0464 H         1 RES1    0.0000
     27 C9         4.0773    2.5891    9.5808 C.2       1 RES1    0.0000
     28 C10        5.3327    0.8059   10.5270 C.3       1 RES1    0.0000
     29 H11        5.5854    0.3116    9.7073 H         1 RES1    0.0000
     30 H12        4.4825    0.4337   10.8708 H         1 RES1    0.0000
     31 C11        6.4088    0.6862   11.5614 C.3       1 RES1    0.0000
     32 H13        7.2519    1.0278   11.1982 H         1 RES1    0.0000
     33 H14        6.5192   -0.2556   11.8106 H         1 RES1    0.0000
     34 H15        6.1604    1.2067   12.3537 H         1 RES1    0.0000
     35 C12        3.6635    3.8209   12.1889 C.ar      1 RES1    0.0000
     36 C13        3.0732    2.5837   12.4480 C.ar      1 RES1    0.0000
     37 H16        2.4536    2.2191   11.8266 H         1 RES1    0.0000
     38 C14        3.3799    1.8822   13.6014 C.ar      1 RES1    0.0000
     39 H17        2.9777    1.0370   13.7622 H         1 RES1    0.0000
     40 C15        4.2698    2.4095   14.5186 C.ar      1 RES1    0.0000
     41 H18        4.4764    1.9282   15.3117 H         1 RES1    0.0000
     42 C16        4.8554    3.6300   14.2835 C.ar      1 RES1    0.0000
     43 H19        5.4681    3.9923   14.9124 H         1 RES1    0.0000
     44 C17        4.5497    4.3331   13.1245 C.ar      1 RES1    0.0000
     45 H20        4.9538    5.1790   12.9714 H         1 RES1    0.0000
     46 C18        1.2177    5.7309   11.6754 C.2       1 RES1    0.0000
     47 C19       -0.6832    5.8921   13.0625 C.3       1 RES1    0.0000
     48 H21       -0.0972    6.2559   13.7569 H         1 RES1    0.0000
     49 H22       -1.3506    5.3033   13.4720 H         1 RES1    0.0000
     50 H23       -1.1375    6.6275   12.5987 H         1 RES1    0.0000
     51 C20        3.3903    5.1567    7.2067 C.3       1 RES1    0.0000
     52 H24        3.7864    6.0518    7.3537 H         1 RES1    0.0000
     53 H25        4.0712    4.5680    6.7946 H         1 RES1    0.0000
     54 C21        1.6539    7.1361    5.0887 C.3       1 RES1    0.0000
     55 C22        1.9237    7.8134    3.7445 C.3       1 RES1    0.0000
     56 H26        1.3007    8.5756    3.6422 H         1 RES1    0.0000
     57 H27        2.8448    8.1765    3.7487 H         1 RES1    0.0000
     58 C23        1.7697    6.8923    2.5517 C.3       1 RES1    0.0000
     59 H28        2.0160    7.3736    1.7226 H         1 RES1    0.0000
     60 H29        0.8269    6.5998    2.4734 H         1 RES1    0.0000
     61 C24        2.6700    5.6864    2.7343 C.3       1 RES1    0.0000
     62 H30        3.6141    5.9857    2.7237 H         1 RES1    0.0000
     63 H31        2.5402    5.0708    1.9702 H         1 RES1    0.0000
     64 C25        2.4058    4.9226    4.0360 C.3       1 RES1    0.0000
     65 C26        3.5232    3.8940    4.2288 C.3       1 RES1    0.0000
     66 H32        4.3784    4.3584    4.3478 H         1 RES1    0.0000
     67 H33        3.5723    3.3137    3.4399 H         1 RES1    0.0000
     68 H34        3.3343    3.3506    5.0214 H         1 RES1    0.0000
     69 C27        1.0724    4.1596    3.9838 C.3       1 RES1    0.0000
     70 H35        0.8301    3.8633    4.8856 H         1 RES1    0.0000
     71 H36        1.1643    3.3797    3.3973 H         1 RES1    0.0000
     72 H37        0.3717    4.7499    3.6342 H         1 RES1    0.0000
     73 C28        2.1229    8.0721    6.2006 C.3       1 RES1    0.0000
     74 H38        1.9157    7.6737    7.0715 H         1 RES1    0.0000
     75 H39        1.6635    8.9333    6.1183 H         1 RES1    0.0000
     76 H40        3.0909    8.2095    6.1263 H         1 RES1    0.0000
     77 C29        0.1567    6.8631    5.3057 C.3       1 RES1    0.0000
     78 H41       -0.2378    6.5277    4.4729 H         1 RES1    0.0000
     79 H42       -0.2916    7.6937    5.5672 H         1 RES1    0.0000
     80 H43        0.0462    6.1938    6.0118 H         1 RES1    0.0000
     81 C30        7.3289    4.3676    7.9580 Du        2 SUP2    0.0000
     82 C31        7.3674    5.5190    6.9836 Du        2 SUP2    0.0000
     83 H44        7.7284    3.5586    7.5534 Du        2 SUP2    0.0000
     84 H45        7.8344    4.5949    8.7781 Du        2 SUP2    0.0000
     85 H46        7.2988    5.1698    6.0704 Du        2 SUP2    0.0000
     86 H47        8.2129    6.0019    7.0874 Du        2 SUP2    0.0000
     87 H48        6.6183    6.1208    7.1620 Du        2 SUP2    0.0000
@<TRIPOS>BOND
     1    1    7 1
     2    2   18 2
     3    3   27 2
     4    4   27 1
     5    5   46 2
     6    6   46 1
     7    7   51 1
     8    8    9 1
     9    9   10 1
    10   11    9 1
    11   12   11 1
    12   13   11 1
    13   14   13 1
    14   15   13 1
    15   16    8 1
    16   17   16 1
    17   18    8 1
    18   19   18 1
    19   20   19 1
    20   21   20 1
    21   22   20 1
    22   23   20 1
    23   24   23 1
    24   25   23 1
    25   26   23 1
    26   27    8 1
    27   28    4 1
    28   29   28 1
    29   30   28 1
    30   31   28 1
    31   32   31 1
    32   33   31 1
    33   34   31 1
    34   35    9 1
    35   36   35 ar
    36   37   36 1
    37   38   36 ar
    38   39   38 1
    39   40   38 ar
    40   41   40 1
    41   42   40 ar
    42   43   42 1
    43   44   35 ar
    44   45   44 1
    45   46   11 1
    46   47    6 1
    47   48   47 1
    48   49   47 1
    49   50   47 1
    50   51   16 1
    51   52   51 1
    52   53   51 1
    53   54    1 1
    54   55   54 1
    55   56   55 1
    56   57   55 1
    57   58   55 1
    58   59   58 1
    59   60   58 1
    60   61   58 1
    61   62   61 1
    62   63   61 1
    63   64    1 1
    64   65   64 1
    65   66   65 1
    66   67   65 1
    67   68   65 1
    68   69   64 1
    69   70   69 1
    70   71   69 1
    71   72   69 1
    72   73   54 1
    73   74   73 1
    74   75   73 1
    75   76   73 1
    76   77   54 1
    77   78   77 1
    78   79   77 1
    79   80   77 1
    80   13   16 1
    81   42   44 ar
    82   61   64 1
@<TRIPOS>SUBSTRUCTURE
     1 RES1 1
     2 SUP2 81

@<TRIPOS>CRYSIN
  13.8080    7.6760   26.6410  90.0000  92.0200  90.0000  14 1

