# MOL2 file generated by ConQuest
# Please check atom types

@<TRIPOS>MOLECULE
WAJREH
    36    38     1
SMALL
NO_CHARGES
****
Generated from CSD

@<TRIPOS>ATOM
      1 O1        -1.2667    2.0516    4.4833 O.2       1 RES1    0.0000
      2 O2        -0.1511    2.8685    2.8109 O.2       1 RES1    0.0000
      3 O3         1.0134    6.1330    3.8081 O.2       1 RES1    0.0000
      4 N1         1.3586    5.3354    1.6703 N.am      1 RES1    0.0000
      5 N2         1.9869    4.2483    1.0315 N.2       1 RES1    0.0000
      6 N3        -0.3261    2.6761    4.0085 N.pl3     1 RES1    0.0000
      7 C1         2.6031    3.5740    1.9370 C.2       1 RES1    0.0000
      8 C2         1.5106    5.3391    3.0163 C.2       1 RES1    0.0000
      9 C3         4.9911    4.5465    7.3514 C.ar      1 RES1    0.0000
     10 C4         3.9849    4.5552    5.1729 C.ar      1 RES1    0.0000
     11 C5         3.8214    4.8392    3.7424 C.2       1 RES1    0.0000
     12 C6         3.0596    3.1474    6.9151 C.ar      1 RES1    0.0000
     13 C7         4.9658    5.0384    6.0514 C.ar      1 RES1    0.0000
     14 C8         4.0459    3.6175    7.7791 C.ar      1 RES1    0.0000
     15 C9         3.0364    3.6294    5.6038 C.ar      1 RES1    0.0000
     16 C10        2.0969    3.2334    4.4769 C.3       1 RES1    0.0000
     17 C11        0.6508    3.2975    4.9656 C.3       1 RES1    0.0000
     18 C12        3.3833    2.3467    1.6360 C.3       1 RES1    0.0000
     19 C13        4.6544    5.4923    2.9360 C.2       1 RES1    0.0000
     20 C14        2.4854    4.1916    3.3083 C.3       1 RES1    0.0000
     21 C15        0.5155    6.2171    0.8913 C.3       1 RES1    0.0000
     22 H1         0.5331    2.8828    5.7839 H         1 RES1    0.0000
     23 H2         2.4032    2.4843    7.2181 H         1 RES1    0.0000
     24 H3         4.0828    3.3249    8.6705 H         1 RES1    0.0000
     25 H4         3.3661    2.2602    0.7224 H         1 RES1    0.0000
     26 H5        -0.2682    5.7719    0.6523 H         1 RES1    0.0000
     27 H6         0.3708    4.1966    5.0783 H         1 RES1    0.0000
     28 H7         2.2834    2.3598    4.1562 H         1 RES1    0.0000
     29 H8         0.9409    6.4755    0.1036 H         1 RES1    0.0000
     30 H9         5.4533    5.8902    3.2646 H         1 RES1    0.0000
     31 H10        4.2246    2.4532    1.9585 H         1 RES1    0.0000
     32 H11        5.6448    5.6909    5.7245 H         1 RES1    0.0000
     33 H12        5.6255    4.8877    8.0243 H         1 RES1    0.0000
     34 H13        2.9177    1.5566    2.1032 H         1 RES1    0.0000
     35 H14        0.2696    6.9175    1.4814 H         1 RES1    0.0000
     36 H15        4.4635    5.6100    1.9950 H         1 RES1    0.0000
@<TRIPOS>BOND
     1    1    6 2
     2    2    6 2
     3    3    8 2
     4    4    5 1
     5    5    7 2
     6    6   17 1
     7    7   18 1
     8    8    4 1
     9    9   13 ar
    10   10   11 1
    11   11   19 2
    12   12   14 ar
    13   13   10 ar
    14   14    9 ar
    15   15   10 ar
    16   16   15 1
    17   17   16 1
    18   18   25 1
    19   19   30 1
    20   20    7 1
    21   21    4 1
    22   22   17 1
    23   23   12 1
    24   24   14 1
    25   26   21 1
    26   27   17 1
    27   28   16 1
    28   29   21 1
    29   31   18 1
    30   32   13 1
    31   33    9 1
    32   34   18 1
    33   35   21 1
    34   36   19 1
    35    8   20 1
    36   11   20 1
    37   12   15 ar
    38   16   20 1
@<TRIPOS>SUBSTRUCTURE
     1 RES1 1

@<TRIPOS>CRYSIN
   7.2058    6.2264   15.4550  90.0000  99.5480  90.0000   4 1

