# MOL2 file generated by ConQuest
# Please check atom types

@<TRIPOS>MOLECULE
WAJSIM
    28    31     1
SMALL
NO_CHARGES
****
Generated from CSD

@<TRIPOS>ATOM
      1 O1         2.8129   -1.4981    1.8047 O.2       1 RES1    0.0000
      2 O2         2.3698   -3.0650    3.1974 O.2       1 RES1    0.0000
      3 N1         2.3880   -1.8853    2.8845 N.pl3     1 RES1    0.0000
      4 N2         0.5811    2.0243    6.4361 N.3       1 RES1    0.0000
      5 C1         0.9917    0.9294    5.6175 C.ar      1 RES1    0.0000
      6 C2         0.9636   -0.3997    5.9612 C.ar      1 RES1    0.0000
      7 H1         0.6439   -0.6684    6.7922 H         1 RES1    0.0000
      8 C3         1.4174   -1.3272    5.0486 C.ar      1 RES1    0.0000
      9 H2         1.4132   -2.2329    5.2582 H         1 RES1    0.0000
     10 C4         1.8782   -0.8987    3.8241 C.ar      1 RES1    0.0000
     11 C5         1.8895    0.4321    3.4505 C.ar      1 RES1    0.0000
     12 H3         2.2003    0.6941    2.6141 H         1 RES1    0.0000
     13 C6         1.4245    1.3566    4.3591 C.ar      1 RES1    0.0000
     14 C7         1.3133    2.8202    4.3005 C.3       1 RES1    0.0000
     15 H4         1.9795    3.3288    3.7935 H         1 RES1    0.0000
     16 C8         0.9937    3.2357    5.7096 C.3       1 RES1    0.0000
     17 H5         1.4672    3.9706    6.1534 H         1 RES1    0.0000
     18 C9        -0.0304    3.4826    4.6438 C.3       1 RES1    0.0000
     19 C10       -1.2181    2.6020    4.9764 C.3       1 RES1    0.0000
     20 H6        -1.2934    1.8669    4.3491 H         1 RES1    0.0000
     21 H7        -2.0433    3.1115    4.9659 H         1 RES1    0.0000
     22 C11       -0.9033    2.0914    6.3903 C.3       1 RES1    0.0000
     23 H8        -1.2426    2.7024    7.0625 H         1 RES1    0.0000
     24 H9        -1.2934    1.2159    6.5369 H         1 RES1    0.0000
     25 C12       -0.2687    4.8523    4.0730 C.3       1 RES1    0.0000
     26 H10        0.5591    5.3382    4.0499 H         1 RES1    0.0000
     27 H11       -0.8996    5.3228    4.6229 H         1 RES1    0.0000
     28 H12       -0.6179    4.7723    3.1824 H         1 RES1    0.0000
@<TRIPOS>BOND
     1    1    3 2
     2    2    3 2
     3    3   10 1
     4    4    5 1
     5    5    6 ar
     6    6    7 1
     7    8    6 ar
     8    9    8 1
     9   10    8 ar
    10   11   10 ar
    11   12   11 1
    12   13    5 ar
    13   14   13 1
    14   15   14 1
    15   16    4 1
    16   17   16 1
    17   18   14 1
    18   19   18 1
    19   20   19 1
    20   21   19 1
    21   22    4 1
    22   23   22 1
    23   24   22 1
    24   25   18 1
    25   26   25 1
    26   27   25 1
    27   28   25 1
    28   11   13 ar
    29   14   16 1
    30   16   18 1
    31   19   22 1
@<TRIPOS>SUBSTRUCTURE
     1 RES1 1

@<TRIPOS>CRYSIN
   9.0424   10.2520   12.0344  90.0000 106.2884  90.0000  14 1

