# MOL2 file generated by ConQuest
# Please check atom types

@<TRIPOS>MOLECULE
WAJVOT
    35    39     1
SMALL
NO_CHARGES
****
Generated from CSD

@<TRIPOS>ATOM
      1 N1        -2.3058   11.7684    8.8561 N.2       1 RES1    0.0000
      2 O1        -2.2509   12.1065    7.4855 O.3       1 RES1    0.0000
      3 O2        -2.0039   17.5007    9.1478 O.2       1 RES1    0.0000
      4 C1        -2.3234   13.9220   11.7898 C.ar      1 RES1    0.0000
      5 C2        -2.2941   13.8735   13.1730 C.ar      1 RES1    0.0000
      6 C3        -2.1081   12.6750   13.8201 C.ar      1 RES1    0.0000
      7 C4        -1.9370   11.5247   13.0859 C.ar      1 RES1    0.0000
      8 C5        -1.9618   11.5609   11.7056 C.ar      1 RES1    0.0000
      9 C6        -2.1651   12.7696   11.0373 C.ar      1 RES1    0.0000
     10 C7        -2.1784   12.8325    9.5647 C.2       1 RES1    0.0000
     11 C8        -2.0022   14.0962    8.7686 C.3       1 RES1    0.0000
     12 C9        -2.0670   13.5493    7.3354 C.3       1 RES1    0.0000
     13 C10       -0.7036   13.8821    6.7549 C.3       1 RES1    0.0000
     14 C11        0.2035   13.7065    7.9754 C.3       1 RES1    0.0000
     15 C12       -0.5778   14.6833    8.8574 C.3       1 RES1    0.0000
     16 C13       -0.5328   15.9581    7.9977 C.3       1 RES1    0.0000
     17 C14       -0.6266   15.4213    6.5543 C.3       1 RES1    0.0000
     18 C15       -1.8184   16.1178    5.9860 C.2       1 RES1    0.0000
     19 C16       -2.3924   16.9325    6.8498 C.2       1 RES1    0.0000
     20 C17       -1.6988   16.9004    8.1337 C.2       1 RES1    0.0000
     21 H1        -0.2434   14.8038    9.7693 H         1 RES1    0.0000
     22 H2        -2.8024   13.8975    6.7961 H         1 RES1    0.0000
     23 H3         0.1816   12.7663    8.3334 H         1 RES1    0.0000
     24 H4        -2.4653   14.7657   11.3623 H         1 RES1    0.0000
     25 H5        -2.7023   14.7466    8.9987 H         1 RES1    0.0000
     26 H6         0.2646   16.4284    8.1440 H         1 RES1    0.0000
     27 H7        -2.1289   15.9378    5.0634 H         1 RES1    0.0000
     28 H8         0.1459   15.5848    6.0427 H         1 RES1    0.0000
     29 H9        -0.4708   13.3796    5.9444 H         1 RES1    0.0000
     30 H10       -2.0791   12.6395   14.8054 H         1 RES1    0.0000
     31 H11       -1.7508   10.6783   13.4990 H         1 RES1    0.0000
     32 H12       -3.1714   17.4451    6.7242 H         1 RES1    0.0000
     33 H13       -1.8798   10.7792   11.1567 H         1 RES1    0.0000
     34 H14       -2.4060   14.7207   13.7016 H         1 RES1    0.0000
     35 H15        1.1387   14.0174    7.8159 H         1 RES1    0.0000
@<TRIPOS>BOND
     1    1    2 1
     2    2   12 1
     3    3   20 2
     4    4    5 ar
     5    5    6 ar
     6    6    7 ar
     7    7    8 ar
     8    8    9 ar
     9    9    4 ar
    10   10    1 2
    11   11   10 1
    12   12   11 1
    13   13   12 1
    14   14   13 1
    15   15   11 1
    16   16   15 1
    17   17   13 1
    18   18   17 1
    19   19   18 2
    20   20   16 1
    21   21   15 1
    22   22   12 1
    23   23   14 1
    24   24    4 1
    25   25   11 1
    26   26   16 1
    27   27   18 1
    28   28   17 1
    29   29   13 1
    30   30    6 1
    31   31    7 1
    32   32   19 1
    33   33    8 1
    34   34    5 1
    35   35   14 1
    36    9   10 1
    37   14   15 1
    38   16   17 1
    39   19   20 1
@<TRIPOS>SUBSTRUCTURE
     1 RES1 1

@<TRIPOS>CRYSIN
   9.4500   13.6290   10.8650  90.0000 111.2420  90.0000 231 1

