# MOL2 file generated by ConQuest
# Please check atom types

@<TRIPOS>MOLECULE
WAJWUA
    41    43     1
SMALL
NO_CHARGES
****
Generated from CSD

@<TRIPOS>ATOM
      1 N1         1.9182   -0.3313    8.7951 N.am      1 RES1    0.0000
      2 N2         3.1219   -0.7665    8.1692 N.3       1 RES1    0.0000
      3 N3         2.1275    1.5364    5.7216 N.2       1 RES1    0.0000
      4 N4         0.7681    5.4754    0.8422 N.pl3     1 RES1    0.0000
      5 O1         0.1575    1.0135    8.1157 O.2       1 RES1    0.0000
      6 O2        -0.2275    6.1738    0.6866 O.2       1 RES1    0.0000
      7 O3         1.6850    5.4300    0.0401 O.2       1 RES1    0.0000
      8 C1         1.3009    0.5822    7.8994 C.2       1 RES1    0.0000
      9 C2         2.2369    0.7468    6.8591 C.2       1 RES1    0.0000
     10 C3         3.3276   -0.0253    7.0937 C.2       1 RES1    0.0000
     11 C4         4.5739   -0.1236    6.3183 C.3       1 RES1    0.0000
     12 H1         5.0731    0.6920    6.4095 H         1 RES1    0.0000
     13 H2         4.3640   -0.2670    5.3923 H         1 RES1    0.0000
     14 H3         5.0980   -0.8581    6.6452 H         1 RES1    0.0000
     15 C5         4.1293   -1.4002    9.0211 C.3       1 RES1    0.0000
     16 H4         4.6856   -1.9727    8.4876 H         1 RES1    0.0000
     17 H5         3.6933   -1.9207    9.7005 H         1 RES1    0.0000
     18 H6         4.6709   -0.7230    9.4343 H         1 RES1    0.0000
     19 C6         1.0773    2.2771    5.5016 C.2       1 RES1    0.0000
     20 H7         0.3839    2.2971    6.1214 H         1 RES1    0.0000
     21 C7         0.9883    3.0744    4.2876 C.ar      1 RES1    0.0000
     22 C8         2.0773    3.2178    3.4441 C.ar      1 RES1    0.0000
     23 H8         2.8806    2.7992    3.6556 H         1 RES1    0.0000
     24 C9         1.9850    3.9744    2.2957 C.ar      1 RES1    0.0000
     25 H9         2.7061    4.0311    1.7111 H         1 RES1    0.0000
     26 C10        0.8271    4.6355    2.0271 C.ar      1 RES1    0.0000
     27 C11       -0.2647    4.5273    2.8462 C.ar      1 RES1    0.0000
     28 H10       -1.0614    4.9569    2.6323 H         1 RES1    0.0000
     29 C12       -0.1655    3.7786    3.9837 C.ar      1 RES1    0.0000
     30 H11       -0.8881    3.7410    4.5683 H         1 RES1    0.0000
     31 C13        1.2185   -1.1701    9.6786 C.ar      1 RES1    0.0000
     32 C14        1.1647   -2.5156    9.5085 C.ar      1 RES1    0.0000
     33 H12        1.6170   -2.8908    8.7866 H         1 RES1    0.0000
     34 C15        0.4742   -3.3442   10.3506 C.ar      1 RES1    0.0000
     35 H13        0.4628   -4.2645   10.2170 H         1 RES1    0.0000
     36 C16       -0.1996   -2.7740   11.3958 C.ar      1 RES1    0.0000
     37 H14       -0.6888   -3.3124   11.9743 H         1 RES1    0.0000
     38 C17       -0.1632   -1.4151   11.6036 C.ar      1 RES1    0.0000
     39 H15       -0.6178   -1.0382   12.3219 H         1 RES1    0.0000
     40 C18        0.5541   -0.6127   10.7359 C.ar      1 RES1    0.0000
     41 H16        0.5843    0.3063   10.8708 H         1 RES1    0.0000
@<TRIPOS>BOND
     1    1    2 1
     2    2   10 1
     3    3    9 1
     4    4    6 2
     5    5    8 2
     6    7    4 2
     7    8    1 1
     8    9    8 1
     9   10    9 2
    10   11   10 1
    11   12   11 1
    12   13   11 1
    13   14   11 1
    14   15    2 1
    15   16   15 1
    16   17   15 1
    17   18   15 1
    18   19    3 2
    19   20   19 1
    20   21   19 1
    21   22   21 ar
    22   23   22 1
    23   24   22 ar
    24   25   24 1
    25   26    4 1
    26   27   26 ar
    27   28   27 1
    28   29   21 ar
    29   30   29 1
    30   31    1 1
    31   32   31 ar
    32   33   32 1
    33   34   32 ar
    34   35   34 1
    35   36   34 ar
    36   37   36 1
    37   38   36 ar
    38   39   38 1
    39   40   31 ar
    40   41   40 1
    41   24   26 ar
    42   27   29 ar
    43   38   40 ar
@<TRIPOS>SUBSTRUCTURE
     1 RES1 1

@<TRIPOS>CRYSIN
   7.0030    9.5370   12.5400 100.3970  98.8080  94.5490   2 1

