# MOL2 file generated by ConQuest
# Please check atom types

@<TRIPOS>MOLECULE
WAJXEM
    27    29     1
SMALL
NO_CHARGES
****
Generated from CSD

@<TRIPOS>ATOM
      1 C1         3.8534   12.5610    6.8403 C.ar      1 RES1    0.0000
      2 H1         4.4685   13.1219    7.2535 H         1 RES1    0.0000
      3 C2         2.8358   13.0945    6.1136 C.ar      1 RES1    0.0000
      4 H2         2.7621   14.0181    6.0355 H         1 RES1    0.0000
      5 C3         1.9009   12.2699    5.4839 C.ar      1 RES1    0.0000
      6 C4         0.8402   12.8266    4.6804 C.2       1 RES1    0.0000
      7 C5         2.0406   10.9056    5.6495 C.ar      1 RES1    0.0000
      8 H3         1.4298   10.3285    5.2513 H         1 RES1    0.0000
      9 C6         3.0703   10.3933    6.3958 C.ar      1 RES1    0.0000
     10 H4         3.1418    9.4722    6.5096 H         1 RES1    0.0000
     11 N1         0.5509   14.0618    4.4473 N.2       1 RES1    0.0000
     12 N2         3.9803   11.2075    6.9674 N.pl3     1 RES1    0.0000
     13 O1         0.0000   11.9705    4.0172 O.3       1 RES1    0.0000
     14 O2         4.9584   10.7033    7.6524 O.2       1 RES1    0.0000
     15 C1B       -3.8534   12.5610    1.1942 C.ar      1 RES1    0.0000
     16 H1B       -4.4685   13.1219    0.7810 H         1 RES1    0.0000
     17 C2B       -2.8358   13.0945    1.9209 C.ar      1 RES1    0.0000
     18 H2B       -2.7621   14.0181    1.9990 H         1 RES1    0.0000
     19 C3B       -1.9009   12.2699    2.5506 C.ar      1 RES1    0.0000
     20 C4B       -0.8402   12.8266    3.3541 C.2       1 RES1    0.0000
     21 C5B       -2.0406   10.9056    2.3850 C.ar      1 RES1    0.0000
     22 H3B       -1.4298   10.3285    2.7832 H         1 RES1    0.0000
     23 C6B       -3.0703   10.3933    1.6387 C.ar      1 RES1    0.0000
     24 H4B       -3.1418    9.4722    1.5249 H         1 RES1    0.0000
     25 N1B       -0.5509   14.0618    3.5872 N.2       1 RES1    0.0000
     26 N2B       -3.9803   11.2075    1.0671 N.pl3     1 RES1    0.0000
     27 O2B       -4.9584   10.7033    0.3821 O.2       1 RES1    0.0000
@<TRIPOS>BOND
     1    1    2 1
     2    3    1 ar
     3    4    3 1
     4    5    3 ar
     5    6    5 1
     6    7    5 ar
     7    8    7 1
     8    9    7 ar
     9   10    9 1
    10   11    6 2
    11   12    1 ar
    12   13    6 1
    13   14   12 1
    14   15   16 1
    15   17   15 ar
    16   18   17 1
    17   19   17 ar
    18   20   13 1
    19   21   19 ar
    20   22   21 1
    21   23   21 ar
    22   24   23 1
    23   25   11 1
    24   26   15 ar
    25   27   26 1
    26    9   12 ar
    27   19   20 1
    28   20   25 2
    29   23   26 ar
@<TRIPOS>SUBSTRUCTURE
     1 RES1 1

@<TRIPOS>CRYSIN
   5.5420   12.4650   16.0690  90.0000  90.0000  90.0000  60 1

