# MOL2 file generated by ConQuest
# Please check atom types

@<TRIPOS>MOLECULE
WAKBUH
    38    40     1
SMALL
NO_CHARGES
****
Generated from CSD

@<TRIPOS>ATOM
      1 C1         1.6128    1.0199    1.5745 C.2       1 RES1    0.0000
      2 C2         0.9503    2.2069    0.9883 C.2       1 RES1    0.0000
      3 N1         1.4565    3.4136    1.4281 N.am      1 RES1    0.0000
      4 C3         2.4567    3.5606    2.3694 C.2       1 RES1    0.0000
      5 C4         3.0107    2.3300    2.8899 C.2       1 RES1    0.0000
      6 N2         2.5655    1.1052    2.4426 N.2       1 RES1    0.0000
      7 C5         3.9993    2.4197    3.8699 C.2       1 RES1    0.0000
      8 O1         4.4381    3.6220    4.2163 O.3       1 RES1    0.0000
      9 H1         4.0414    4.2070    3.7623 H         1 RES1    0.0000
     10 C6         4.6414    1.3260    4.6259 C.ar      1 RES1    0.0000
     11 C7         4.1769    0.0005    4.6161 C.ar      1 RES1    0.0000
     12 H2         3.4491   -0.2408    4.0558 H         1 RES1    0.0000
     13 C8         4.7754   -0.9565    5.4214 C.ar      1 RES1    0.0000
     14 H3         4.4411   -1.8449    5.4237 H         1 RES1    0.0000
     15 C9         5.8603   -0.6277    6.2269 C.ar      1 RES1    0.0000
     16 H4         6.2730   -1.2904    6.7686 H         1 RES1    0.0000
     17 C10        6.3340    0.6786    6.2315 C.ar      1 RES1    0.0000
     18 H5         7.0787    0.9072    6.7757 H         1 RES1    0.0000
     19 C11        5.7311    1.6467    5.4515 C.ar      1 RES1    0.0000
     20 H6         6.0572    2.5384    5.4736 H         1 RES1    0.0000
     21 C12        1.0791   -0.3162    1.1255 C.3       1 RES1    0.0000
     22 H7         0.8361   -0.2577    0.1672 H         1 RES1    0.0000
     23 H8         0.2531   -0.5172    1.6330 H         1 RES1    0.0000
     24 C13        2.0526   -1.4574    1.3110 C.ar      1 RES1    0.0000
     25 C14        2.8568   -1.8690    0.2574 C.ar      1 RES1    0.0000
     26 H9         2.7799   -1.4430   -0.5888 H         1 RES1    0.0000
     27 C15        3.7762   -2.9018    0.4285 C.ar      1 RES1    0.0000
     28 H10        4.3143   -3.1845   -0.3024 H         1 RES1    0.0000
     29 C16        3.9059   -3.5165    1.6616 C.ar      1 RES1    0.0000
     30 H11        4.5446   -4.2087    1.7842 H         1 RES1    0.0000
     31 C17        3.0993   -3.1177    2.7151 C.ar      1 RES1    0.0000
     32 H12        3.1834   -3.5406    3.5613 H         1 RES1    0.0000
     33 C18        2.1673   -2.1003    2.5374 C.ar      1 RES1    0.0000
     34 H13        1.6055   -1.8432    3.2589 H         1 RES1    0.0000
     35 O2         0.0242    2.1450    0.1845 O.2       1 RES1    0.0000
     36 O3         0.8444    4.5507    0.9464 O.3       1 RES1    0.0000
     37 H14        1.4178    5.0446    0.5817 H         1 RES1    0.0000
     38 O4         2.8138    4.7109    2.7030 O.2       1 RES1    0.0000
@<TRIPOS>BOND
     1    1    2 1
     2    2    3 1
     3    3    4 1
     4    4    5 1
     5    5    6 1
     6    6    1 2
     7    7    5 2
     8    8    7 1
     9    9    8 1
    10   10    7 1
    11   11   10 ar
    12   12   11 1
    13   13   11 ar
    14   14   13 1
    15   15   13 ar
    16   16   15 1
    17   17   15 ar
    18   18   17 1
    19   19   10 ar
    20   20   19 1
    21   21    1 1
    22   22   21 1
    23   23   21 1
    24   24   21 1
    25   25   24 ar
    26   26   25 1
    27   27   25 ar
    28   28   27 1
    29   29   27 ar
    30   30   29 1
    31   31   29 ar
    32   32   31 1
    33   33   24 ar
    34   34   33 1
    35   35    2 2
    36   36    3 1
    37   37   36 1
    38   38    4 2
    39   17   19 ar
    40   31   33 ar
@<TRIPOS>SUBSTRUCTURE
     1 RES1 1

@<TRIPOS>CRYSIN
   4.8388   16.9567   17.7886  90.0000  90.0000  90.0000  19 1

