# MOL2 file generated by ConQuest
# Please check atom types

@<TRIPOS>MOLECULE
WAKCAN
    32    33     1
SMALL
NO_CHARGES
****
Generated from CSD

@<TRIPOS>ATOM
      1 C1        -0.3874    5.9140   -2.4480 C.ar      1 RES1    0.0000
      2 C2         0.8994    6.4913   -3.0040 C.3       1 RES1    0.0000
      3 H1         0.9211    6.3668   -3.9857 H         1 RES1    0.0000
      4 H2         1.6723    6.0102   -2.6159 H         1 RES1    0.0000
      5 C3        -0.5323    5.2964   -1.1950 C.ar      1 RES1    0.0000
      6 N1         0.6172    5.1425   -0.2934 N.pl3     1 RES1    0.0000
      7 O1         1.4819    6.0183   -0.2701 O.2       1 RES1    0.0000
      8 O2         0.6506    4.1481    0.4279 O.2       1 RES1    0.0000
      9 C4        -1.7387    4.7764   -0.7473 C.ar      1 RES1    0.0000
     10 H3        -1.7937    4.3620    0.1061 H         1 RES1    0.0000
     11 C5        -2.8543    4.8650   -1.5474 C.ar      1 RES1    0.0000
     12 H4        -3.6913    4.5301   -1.2461 H         1 RES1    0.0000
     13 C6        -2.7404    5.4504   -2.8026 C.ar      1 RES1    0.0000
     14 H5        -3.5018    5.5028   -3.3689 H         1 RES1    0.0000
     15 C7        -1.5305    5.9560   -3.2316 C.ar      1 RES1    0.0000
     16 H6        -1.4787    6.3480   -4.0958 H         1 RES1    0.0000
     17 C2B        1.0111    8.0051   -2.6704 C.3       1 RES1    0.0000
     18 C1B        2.2979    8.5824   -3.2265 C.ar      1 RES1    0.0000
     19 C3B        2.4427    9.2000   -4.4794 C.ar      1 RES1    0.0000
     20 N1B        1.2933    9.3539   -5.3811 N.pl3     1 RES1    0.0000
     21 O1B        0.4285    8.4781   -5.4043 O.2       1 RES1    0.0000
     22 O2B        1.2599   10.3483   -6.1023 O.2       1 RES1    0.0000
     23 C4B        3.6492    9.7200   -4.9271 C.ar      1 RES1    0.0000
     24 H3B        3.7042   10.1344   -5.7805 H         1 RES1    0.0000
     25 C5B        4.7647    9.6314   -4.1270 C.ar      1 RES1    0.0000
     26 H4B        5.6017    9.9663   -4.4283 H         1 RES1    0.0000
     27 C6B        4.6509    9.0460   -2.8718 C.ar      1 RES1    0.0000
     28 H5B        5.4122    8.9936   -2.3055 H         1 RES1    0.0000
     29 C7B        3.4409    8.5404   -2.4428 C.ar      1 RES1    0.0000
     30 H6B        3.3891    8.1484   -1.5786 H         1 RES1    0.0000
     31 H1B        0.9893    8.1296   -1.6887 H         1 RES1    0.0000
     32 H2B        0.2381    8.4862   -3.0585 H         1 RES1    0.0000
@<TRIPOS>BOND
     1    1    2 1
     2    2    3 1
     3    4    2 1
     4    5    1 ar
     5    6    5 1
     6    7    6 2
     7    8    6 2
     8    9    5 ar
     9   10    9 1
    10   11    9 ar
    11   12   11 1
    12   13   11 ar
    13   14   13 1
    14   15    1 ar
    15   16   15 1
    16   17    2 1
    17   18   17 1
    18   19   18 ar
    19   20   19 1
    20   21   20 2
    21   22   20 2
    22   23   19 ar
    23   24   23 1
    24   25   23 ar
    25   26   25 1
    26   27   25 ar
    27   28   27 1
    28   29   18 ar
    29   30   29 1
    30   31   17 1
    31   32   17 1
    32   13   15 ar
    33   27   29 ar
@<TRIPOS>SUBSTRUCTURE
     1 RES1 1

@<TRIPOS>CRYSIN
   7.5678   14.4964    5.9874  90.0000 108.6070  90.0000  14 1

