# MOL2 file generated by ConQuest
# Please check atom types

@<TRIPOS>MOLECULE
WAKGIZ
    37    38     1
SMALL
NO_CHARGES
****
Generated from CSD

@<TRIPOS>ATOM
      1 O1         1.0028    9.2439    2.9516 O.3       1 RES1    0.0000
      2 O2         0.5353    7.5489    4.9975 O.2       1 RES1    0.0000
      3 O3         2.1396    9.4410    0.4731 O.2       1 RES1    0.0000
      4 O4         4.0841    8.6458    0.8892 O.2       1 RES1    0.0000
      5 N1         3.1010    9.3326    1.1801 N.pl3     1 RES1    0.0000
      6 C1         3.1480   10.0586    2.4461 C.ar      1 RES1    0.0000
      7 C2         4.2876   10.7728    2.7347 C.ar      1 RES1    0.0000
      8 H1         4.9953   10.7896    2.1315 H         1 RES1    0.0000
      9 C3         4.3749   11.4649    3.9242 C.ar      1 RES1    0.0000
     10 H2         5.1636   11.9479    4.1169 H         1 RES1    0.0000
     11 C4         3.3255   11.3978    4.8133 C.ar      1 RES1    0.0000
     12 H3         3.3833   11.8542    5.6210 H         1 RES1    0.0000
     13 C5         2.1925   10.6693    4.5301 C.ar      1 RES1    0.0000
     14 H4         1.5035   10.6279    5.1534 H         1 RES1    0.0000
     15 C6         2.0696    9.9962    3.3253 C.ar      1 RES1    0.0000
     16 C7        -0.2114    9.3871    3.6982 C.3       1 RES1    0.0000
     17 H5        -0.3423   10.3016    3.9209 H         1 RES1    0.0000
     18 C8        -0.1868    8.5314    4.9632 C.2       1 RES1    0.0000
     19 C9        -1.0916    8.8714    6.0784 C.ar      1 RES1    0.0000
     20 C10       -1.6839   10.1186    6.2290 C.ar      1 RES1    0.0000
     21 H6        -1.5483   10.7689    5.5780 H         1 RES1    0.0000
     22 C11       -2.4710   10.4134    7.3266 C.ar      1 RES1    0.0000
     23 H7        -2.8402   11.2618    7.4190 H         1 RES1    0.0000
     24 C12       -2.7104    9.4488    8.2849 C.ar      1 RES1    0.0000
     25 C13       -2.1557    8.1802    8.1250 C.ar      1 RES1    0.0000
     26 H8        -2.3334    7.5157    8.7512 H         1 RES1    0.0000
     27 C14       -1.3541    7.9050    7.0543 C.ar      1 RES1    0.0000
     28 H9        -0.9752    7.0593    6.9721 H         1 RES1    0.0000
     29 C15       -4.0425   10.9187    9.6129 C.3       1 RES1    0.0000
     30 H10       -4.5449   10.9118   10.4307 H         1 RES1    0.0000
     31 H11       -4.6264   11.1307    8.8801 H         1 RES1    0.0000
     32 H12       -3.3473   11.5782    9.6692 H         1 RES1    0.0000
     33 C16       -1.3188    8.9047    2.7880 C.3       1 RES1    0.0000
     34 H13       -1.3371    9.4430    1.9940 H         1 RES1    0.0000
     35 H14       -2.1614    8.9777    3.2437 H         1 RES1    0.0000
     36 H15       -1.1618    7.9879    2.5509 H         1 RES1    0.0000
     37 O5        -3.4591    9.6272    9.4001 O.3       1 RES1    0.0000
@<TRIPOS>BOND
     1    1   15 1
     2    2   18 2
     3    3    5 2
     4    4    5 2
     5    5    6 1
     6    6    7 ar
     7    7    8 1
     8    9    7 ar
     9   10    9 1
    10   11    9 ar
    11   12   11 1
    12   13   11 ar
    13   14   13 1
    14   15    6 ar
    15   16    1 1
    16   17   16 1
    17   18   16 1
    18   19   18 1
    19   20   19 ar
    20   21   20 1
    21   22   20 ar
    22   23   22 1
    23   24   22 ar
    24   25   24 ar
    25   26   25 1
    26   27   19 ar
    27   28   27 1
    28   29   30 1
    29   31   29 1
    30   32   29 1
    31   33   16 1
    32   34   33 1
    33   35   33 1
    34   36   33 1
    35   37   24 1
    36   13   15 ar
    37   25   27 ar
    38   29   37 1
@<TRIPOS>SUBSTRUCTURE
     1 RES1 1

@<TRIPOS>CRYSIN
   8.8510    9.8580   17.2550  90.0000  94.9900  90.0000  14 1

