# MOL2 file generated by ConQuest
# Please check atom types

@<TRIPOS>MOLECULE
WAKNIG
    24    25     1
SMALL
NO_CHARGES
****
Generated from CSD

@<TRIPOS>ATOM
      1 N1         1.4366    0.9984    3.7704 N.pl3     1 RES1    0.0000
      2 O1         1.1321    1.6913    2.8154 O.2       1 RES1    0.0000
      3 H1         1.9254   -0.7616    6.1394 H         1 RES1    0.0000
      4 O2         1.1779    1.2319    4.9519 O.2       1 RES1    0.0000
      5 C1         2.1832   -0.2152    3.5284 C.2       1 RES1    0.0000
      6 N2         2.5230   -0.5406    2.3152 N.2       1 RES1    0.0000
      7 O3         3.2164   -1.7021    2.4545 O.3       1 RES1    0.0000
      8 N3         3.3006   -2.0937    3.8037 N.2       1 RES1    0.0000
      9 C2         2.6644   -1.1590    4.4856 C.2       1 RES1    0.0000
     10 N4         2.5700   -1.1466    5.8178 N.3       1 RES1    0.0000
     11 C3         3.0803   -2.2833    6.5793 C.3       1 RES1    0.0000
     12 H2         2.6915   -3.0548    6.2853 H         1 RES1    0.0000
     13 H3         4.0007   -2.4836    6.2404 H         1 RES1    0.0000
     14 C4         3.0960   -1.9877    8.0530 C.ar      1 RES1    0.0000
     15 C5         2.5069   -2.8735    8.9554 C.ar      1 RES1    0.0000
     16 H4         2.1112   -3.6675    8.6871 H         1 RES1    0.0000
     17 C6         2.5553   -2.6219   10.3258 C.ar      1 RES1    0.0000
     18 H5         2.1836   -3.2287   11.0553 H         1 RES1    0.0000
     19 C7         3.1744   -1.4802   10.8028 C.ar      1 RES1    0.0000
     20 H6         3.0721   -1.2501   11.7624 H         1 RES1    0.0000
     21 C8         3.7597   -0.5803    9.9027 C.ar      1 RES1    0.0000
     22 H7         4.1277    0.1987   10.2472 H         1 RES1    0.0000
     23 C9         3.7274   -0.8436    8.5412 C.ar      1 RES1    0.0000
     24 H8         4.0807   -0.1739    8.0362 H         1 RES1    0.0000
@<TRIPOS>BOND
     1    1    2 2
     2    3   10 1
     3    4    1 2
     4    5    1 1
     5    6    5 2
     6    7    6 1
     7    8    7 1
     8    9    5 1
     9   10    9 1
    10   11   10 1
    11   12   11 1
    12   13   11 1
    13   14   11 1
    14   15   14 ar
    15   16   15 1
    16   17   15 ar
    17   18   17 1
    18   19   17 ar
    19   20   19 1
    20   21   19 ar
    21   22   21 1
    22   23   14 ar
    23   24   23 1
    24    8    9 2
    25   21   23 ar
@<TRIPOS>SUBSTRUCTURE
     1 RES1 1

@<TRIPOS>CRYSIN
  10.5320    8.2787   11.7420  90.0000 107.0870  90.0000   9 1

