# MOL2 file generated by ConQuest
# Please check atom types

@<TRIPOS>MOLECULE
WAKSUX
    16    15     1
SMALL
NO_CHARGES
****
Generated from CSD

@<TRIPOS>ATOM
      1 N1         7.3310    2.7167    3.2087 N.3       1 RES1    0.0000
      2 N2         8.0091    1.8491    1.2665 N.2       1 RES1    0.0000
      3 C1         6.9653    1.9828    2.0838 C.2       1 RES1    0.0000
      4 N3         5.7625    1.4840    1.9559 N.3       1 RES1    0.0000
      5 H1         5.3468    1.5545    2.5842 H         1 RES1    0.0000
      6 H2         5.6692    1.0303    1.2331 H         1 RES1    0.0000
      7 N4         6.4028    3.2698    4.0679 N.pl3     1 RES1    0.0000
      8 O1         6.8619    3.8536    5.0262 O.2       1 RES1    0.0000
      9 O2         5.2245    3.1595    3.8101 O.2       1 RES1    0.0000
     10 N5         7.8701    1.0935    0.1673 N.pl3     1 RES1    0.0000
     11 O3         8.9084    0.8622   -0.4395 O.2       1 RES1    0.0000
     12 O4         6.7908    0.6760   -0.2460 O.2       1 RES1    0.0000
     13 C2         8.7261    3.1035    3.4658 C.3       1 RES1    0.0000
     14 H3         8.8150    3.4162    4.3749 H         1 RES1    0.0000
     15 H4         8.9817    3.8138    2.8663 H         1 RES1    0.0000
     16 H5         9.3041    2.3497    3.3254 H         1 RES1    0.0000
@<TRIPOS>BOND
     1    1    3 1
     2    2    3 2
     3    3    4 1
     4    4    5 1
     5    6    4 1
     6    7    1 1
     7    8    7 2
     8    9    7 2
     9   10    2 1
    10   11   10 2
    11   12   10 2
    12   13    1 1
    13   14   13 1
    14   15   13 1
    15   16   13 1
@<TRIPOS>SUBSTRUCTURE
     1 RES1 1

@<TRIPOS>CRYSIN
  11.1160   18.0750    6.5590  90.0000  90.0000  90.0000  61 1

