# MOL2 file generated by ConQuest
# Please check atom types

@<TRIPOS>MOLECULE
WAKSIM
    33    35     1
SMALL
NO_CHARGES
****
Generated from CSD

@<TRIPOS>ATOM
      1 N1         9.9684    6.1562   -0.2445 N.1       1 RES1    0.0000
      2 C1        11.0309    2.0573    2.3161 C.ar      1 RES1    0.0000
      3 H1        10.7687    1.2894    1.8614 H         1 RES1    0.0000
      4 C2        10.2164    3.1806    2.2737 C.ar      1 RES1    0.0000
      5 O1        13.7851    3.2846    4.4024 O.3       1 RES1    0.0000
      6 C3         8.9568    3.2113    1.5126 C.2       1 RES1    0.0000
      7 C4        12.6230    3.1831    3.6914 C.ar      1 RES1    0.0000
      8 O2         8.4953    0.8675    3.1744 O.2       1 RES1    0.0000
      9 N2         7.3383    3.9572    0.1149 N.pl3     1 RES1    0.0000
     10 C5        11.8379    4.3177    3.6528 C.ar      1 RES1    0.0000
     11 H2        12.1173    5.0874    4.0931 H         1 RES1    0.0000
     12 C6        12.2213    2.0548    3.0166 C.ar      1 RES1    0.0000
     13 H3        12.7506    1.2900    3.0309 H         1 RES1    0.0000
     14 C7         4.8497    3.1091   -0.6019 C.2       1 RES1    0.0000
     15 H4         3.9986    2.8339   -0.8549 H         1 RES1    0.0000
     16 C8         8.6103    4.2130    0.6362 C.2       1 RES1    0.0000
     17 C9         7.8680    2.3030    1.5040 C.2       1 RES1    0.0000
     18 N3         7.7141    1.1195    2.2689 N.pl3     1 RES1    0.0000
     19 C10       10.6448    4.3183    2.9666 C.ar      1 RES1    0.0000
     20 H5        10.1172    5.0843    2.9637 H         1 RES1    0.0000
     21 O3         6.7827    0.3586    1.9944 O.2       1 RES1    0.0000
     22 C11        9.3631    5.3043    0.1601 C.1       1 RES1    0.0000
     23 C12        5.5823    2.3356    0.2559 C.2       1 RES1    0.0000
     24 H6         5.2393    1.5358    0.5833 H         1 RES1    0.0000
     25 C13        6.8664    2.7744    0.6348 C.2       1 RES1    0.0000
     26 C14        6.5940    4.7264   -0.7534 C.2       1 RES1    0.0000
     27 H7         6.9357    5.5218   -1.0937 H         1 RES1    0.0000
     28 C15        5.3639    4.3039   -1.1023 C.2       1 RES1    0.0000
     29 H8         4.8506    4.8160   -1.6842 H         1 RES1    0.0000
     30 C16       14.6094    2.1300    4.4620 C.3       1 RES1    0.0000
     31 H9        14.1766    1.4543    4.9895 H         1 RES1    0.0000
     32 H10       15.4507    2.3575    4.8637 H         1 RES1    0.0000
     33 H11       14.7582    1.7965    3.5742 H         1 RES1    0.0000
@<TRIPOS>BOND
     1    1   22 3
     2    2    3 1
     3    4    2 ar
     4    5    7 1
     5    6    4 1
     6    7   10 ar
     7    8   18 2
     8    9   16 1
     9   10   11 1
    10   12    2 ar
    11   13   12 1
    12   14   15 1
    13   16    6 2
    14   17    6 1
    15   18   17 1
    16   19    4 ar
    17   20   19 1
    18   21   18 2
    19   22   16 1
    20   23   14 2
    21   24   23 1
    22   25    9 1
    23   26    9 1
    24   27   26 1
    25   28   14 1
    26   29   28 1
    27   30    5 1
    28   31   30 1
    29   32   30 1
    30   33   30 1
    31    7   12 ar
    32   10   19 ar
    33   17   25 2
    34   23   25 1
    35   26   28 2
@<TRIPOS>SUBSTRUCTURE
     1 RES1 1

@<TRIPOS>CRYSIN
  15.1865    6.2684   14.2967  90.0000  90.0000  90.0000  29 1

