# MOL2 file generated by ConQuest
# Please check atom types

@<TRIPOS>MOLECULE
WAKWIO
    22    24     1
SMALL
NO_CHARGES
****
Generated from CSD

@<TRIPOS>ATOM
      1 O1        10.2045    9.5150   -0.1698 O.2       1 RES1    0.0000
      2 O2         8.6053    9.5715    1.2767 O.2       1 RES1    0.0000
      3 O3         4.8162    4.0410    3.3694 O.2       1 RES1    0.0000
      4 O4         5.6365    2.6707    1.9440 O.2       1 RES1    0.0000
      5 N1         9.2332    5.4642   -0.3706 N.3       1 RES1    0.0000
      6 N2         9.3280    8.9575    0.4866 N.pl3     1 RES1    0.0000
      7 N3         5.5725    3.7782    2.4457 N.pl3     1 RES1    0.0000
      8 C1         9.7995    6.6982   -0.5060 C.2       1 RES1    0.0000
      9 C2         9.1152    7.5577    0.3580 C.2       1 RES1    0.0000
     10 C3         8.1065    6.8308    1.0447 C.ar      1 RES1    0.0000
     11 C4         7.1209    7.1304    2.0020 C.ar      1 RES1    0.0000
     12 C5         6.2993    6.1174    2.4474 C.ar      1 RES1    0.0000
     13 C6         6.4412    4.8306    1.9322 C.ar      1 RES1    0.0000
     14 C7         7.3828    4.4855    0.9817 C.ar      1 RES1    0.0000
     15 C8         8.2067    5.5194    0.5564 C.ar      1 RES1    0.0000
     16 C9         9.6636    4.2142   -1.0035 C.3       1 RES1    0.0000
     17 C10       10.9345    6.9266   -1.4263 C.ar      1 RES1    0.0000
     18 C11       12.1482    7.3993   -0.9396 C.ar      1 RES1    0.0000
     19 C12       13.2119    7.5774   -1.8028 C.ar      1 RES1    0.0000
     20 C13       13.0882    7.2999   -3.1450 C.ar      1 RES1    0.0000
     21 C14       11.8921    6.8136   -3.6350 C.ar      1 RES1    0.0000
     22 C15       10.8039    6.6307   -2.7861 C.ar      1 RES1    0.0000
@<TRIPOS>BOND
     1    1    6 2
     2    2    6 2
     3    3    7 2
     4    4    7 2
     5    5    8 1
     6    6    9 1
     7    7   13 1
     8    8    9 2
     9    9   10 1
    10   10   11 ar
    11   11   12 ar
    12   12   13 ar
    13   13   14 ar
    14   14   15 ar
    15   15    5 1
    16   16    5 1
    17   17    8 1
    18   18   17 ar
    19   19   18 ar
    20   20   19 ar
    21   21   20 ar
    22   22   17 ar
    23   10   15 ar
    24   21   22 ar
@<TRIPOS>SUBSTRUCTURE
     1 RES1 1

@<TRIPOS>CRYSIN
  12.8270   12.2790    8.6850  90.0000 104.6000  90.0000 231 1

