# MOL2 file generated by ConQuest
# Please check atom types

@<TRIPOS>MOLECULE
WAKWEK
    33    35     1
SMALL
NO_CHARGES
****
Generated from CSD

@<TRIPOS>ATOM
      1 O1         2.9263    4.3855    7.8020 O.2       1 RES1    0.0000
      2 O2         0.9109    4.5373    8.5323 O.2       1 RES1    0.0000
      3 O3        -3.8119    4.2267    7.7185 O.2       1 RES1    0.0000
      4 O4        -4.7512    2.6640    6.6049 O.2       1 RES1    0.0000
      5 N1         1.2329    1.8902    4.9872 N.3       1 RES1    0.0000
      6 N2         1.7338    4.1211    7.7251 N.pl3     1 RES1    0.0000
      7 N3        -3.7637    3.2869    6.9563 N.pl3     1 RES1    0.0000
      8 C1         2.0703    2.6019    5.7911 C.2       1 RES1    0.0000
      9 C2         1.2616    3.2816    6.7059 C.2       1 RES1    0.0000
     10 C3        -0.1018    2.9843    6.4380 C.ar      1 RES1    0.0000
     11 C4        -1.3322    3.3792    6.9970 C.ar      1 RES1    0.0000
     12 C5        -2.4609    2.8725    6.4050 C.ar      1 RES1    0.0000
     13 C6        -2.4477    2.0029    5.3243 C.ar      1 RES1    0.0000
     14 C7        -1.2364    1.6160    4.7950 C.ar      1 RES1    0.0000
     15 C8        -0.0784    2.1147    5.3661 C.ar      1 RES1    0.0000
     16 C9         1.6516    0.9877    3.9087 C.3       1 RES1    0.0000
     17 C10        3.5304    2.5513    5.5747 C.ar      1 RES1    0.0000
     18 C11        4.3363    1.8094    6.3863 C.ar      1 RES1    0.0000
     19 C12        5.6940    1.7242    6.1096 C.ar      1 RES1    0.0000
     20 C13        6.2463    2.3720    5.0629 C.ar      1 RES1    0.0000
     21 C14        5.4529    3.1254    4.2733 C.ar      1 RES1    0.0000
     22 C15        4.0933    3.2186    4.5193 C.ar      1 RES1    0.0000
     23 H1        -1.3929    3.8779    7.7207 H         1 RES1    0.0000
     24 H2        -3.5743    1.6417    4.8213 H         1 RES1    0.0000
     25 H3        -1.2219    0.9850    4.1514 H         1 RES1    0.0000
     26 H4         0.9167    0.2928    3.5474 H         1 RES1    0.0000
     27 H5         2.4528    0.4437    4.3930 H         1 RES1    0.0000
     28 H6         2.0513    1.5530    3.0751 H         1 RES1    0.0000
     29 H7         3.9574    1.3577    7.1936 H         1 RES1    0.0000
     30 H8         6.1511    1.1093    6.8092 H         1 RES1    0.0000
     31 H9         7.1016    2.2895    4.8323 H         1 RES1    0.0000
     32 H10        5.8009    3.5585    3.5144 H         1 RES1    0.0000
     33 H11        3.4324    3.8868    4.0306 H         1 RES1    0.0000
@<TRIPOS>BOND
     1    1    6 2
     2    2    6 2
     3    3    7 2
     4    4    7 2
     5    5    8 1
     6    6    9 1
     7    7   12 1
     8    8    9 2
     9    9   10 1
    10   10   11 ar
    11   11   12 ar
    12   12   13 ar
    13   13   14 ar
    14   14   15 ar
    15   15    5 1
    16   16    5 1
    17   17    8 1
    18   18   17 ar
    19   19   18 ar
    20   20   19 ar
    21   21   20 ar
    22   22   17 ar
    23   23   11 1
    24   24   13 1
    25   25   14 1
    26   26   16 1
    27   27   16 1
    28   28   16 1
    29   29   18 1
    30   30   19 1
    31   31   20 1
    32   32   21 1
    33   33   22 1
    34   10   15 ar
    35   21   22 ar
@<TRIPOS>SUBSTRUCTURE
     1 RES1 1

@<TRIPOS>CRYSIN
  14.0510    8.8740   11.3490  90.0000 104.6000  90.0000 231 1

