# MOL2 file generated by ConQuest
# Please check atom types

@<TRIPOS>MOLECULE
WAKYIQ
    28    29     1
SMALL
NO_CHARGES
****
Generated from CSD

@<TRIPOS>ATOM
      1 O1         3.8903    6.9346    2.7928 O.3       1 RES1    0.0000
      2 O2         5.8580    3.4071    0.3377 O.2       1 RES1    0.0000
      3 N1         2.7902    5.9421    2.9235 N.2       1 RES1    0.0000
      4 N2         3.7477    2.8254    1.1633 N.am      1 RES1    0.0000
      5 C1         4.8827    6.3020    2.0718 C.2       1 RES1    0.0000
      6 C2         4.4855    4.9820    1.7276 C.2       1 RES1    0.0000
      7 C3         4.8254    3.6774    0.9912 C.2       1 RES1    0.0000
      8 C4         2.6463    3.3746    1.9737 C.3       1 RES1    0.0000
      9 C5         3.2116    4.8144    2.2613 C.2       1 RES1    0.0000
     10 C6         6.1069    7.1702    1.8670 C.3       1 RES1    0.0000
     11 C7         2.3739    2.4547    3.2133 C.3       1 RES1    0.0000
     12 C8         1.1230    3.0108    3.9235 C.3       1 RES1    0.0000
     13 C9         0.6888    2.0808    5.0999 C.3       1 RES1    0.0000
     14 C10        3.5675    2.3844    4.1435 C.3       1 RES1    0.0000
     15 H1         3.7228    2.0353    0.8257 H         1 RES1    0.0000
     16 H2         1.8360    3.4418    1.4269 H         1 RES1    0.0000
     17 H3         6.6913    6.7539    1.2287 H         1 RES1    0.0000
     18 H4         6.5684    7.2737    2.7035 H         1 RES1    0.0000
     19 H5         5.8383    8.0314    1.5424 H         1 RES1    0.0000
     20 H6         2.1746    1.5502    2.8930 H         1 RES1    0.0000
     21 H7         0.3960    3.0865    3.2874 H         1 RES1    0.0000
     22 H8         1.3146    3.8975    4.2677 H         1 RES1    0.0000
     23 H9        -0.1299    2.4068    5.4811 H         1 RES1    0.0000
     24 H10        1.3738    2.0731    5.7730 H         1 RES1    0.0000
     25 H11        0.5551    1.1887    4.7709 H         1 RES1    0.0000
     26 H12        4.3512    2.1504    3.6403 H         1 RES1    0.0000
     27 H13        3.4090    1.7201    4.8188 H         1 RES1    0.0000
     28 H14        3.6980    3.2394    4.5618 H         1 RES1    0.0000
@<TRIPOS>BOND
     1    1    3 1
     2    2    7 2
     3    3    9 2
     4    4    7 1
     5    5    1 1
     6    6    5 2
     7    7    6 1
     8    8    4 1
     9    9    6 1
    10   10    5 1
    11   11    8 1
    12   12   11 1
    13   13   12 1
    14   14   11 1
    15   15    4 1
    16   16    8 1
    17   17   10 1
    18   18   10 1
    19   19   10 1
    20   20   11 1
    21   21   12 1
    22   22   12 1
    23   23   13 1
    24   24   13 1
    25   25   13 1
    26   26   14 1
    27   27   14 1
    28   28   14 1
    29    8    9 1
@<TRIPOS>SUBSTRUCTURE
     1 RES1 1

@<TRIPOS>CRYSIN
   6.3660    7.7240   21.7850  90.0000  90.0000  90.0000  19 1

