# MOL2 file generated by ConQuest
# Please check atom types

@<TRIPOS>MOLECULE
WALWUB
    43    47     1
SMALL
NO_CHARGES
****
Generated from CSD

@<TRIPOS>ATOM
      1 O1         3.5406   -0.8945    4.4921 O.3       1 RES1    0.0000
      2 N1         6.5148    2.2587    4.2923 N.3       1 RES1    0.0000
      3 N2         4.3551    0.2767    4.4781 N.2       1 RES1    0.0000
      4 C1         6.4545    0.9974    3.5491 C.3       1 RES1    0.0000
      5 C2         7.5019    1.1905    4.6036 C.3       1 RES1    0.0000
      6 C3         8.9421    1.4801    4.3086 C.ar      1 RES1    0.0000
      7 C4         9.3446    2.6963    3.7767 C.ar      1 RES1    0.0000
      8 C5        10.7044    2.9151    3.5491 C.ar      1 RES1    0.0000
      9 C6        11.6110    1.9820    3.8673 C.ar      1 RES1    0.0000
     10 C7        11.2137    0.7786    4.3899 C.ar      1 RES1    0.0000
     11 C8         9.8725    0.5277    4.6082 C.ar      1 RES1    0.0000
     12 C9         4.0276   -1.8275    3.5142 C.3       1 RES1    0.0000
     13 C10        5.4530   -1.3385    3.1937 C.3       1 RES1    0.0000
     14 C11        5.8854   -1.2870    1.7141 C.3       1 RES1    0.0000
     15 C12        7.1223   -0.4054    1.5771 C.3       1 RES1    0.0000
     16 C13        6.8595    1.0103    2.0788 C.3       1 RES1    0.0000
     17 C14        5.3926    0.0000    3.7790 C.2       1 RES1    0.0000
     18 C15        3.0813   -1.9176    2.3343 C.ar      1 RES1    0.0000
     19 C16        2.3090   -0.8752    1.9743 C.ar      1 RES1    0.0000
     20 C17        1.4766   -0.9459    0.8640 C.ar      1 RES1    0.0000
     21 C18        1.4610   -2.0849    0.1533 C.ar      1 RES1    0.0000
     22 C19        2.2095   -3.1660    0.4715 C.ar      1 RES1    0.0000
     23 C20        3.0494   -3.0631    1.6050 C.ar      1 RES1    0.0000
     24 H1         5.9131    2.1236    4.9009 H         1 RES1    0.0000
     25 H2         7.3446    0.7239    5.4095 H         1 RES1    0.0000
     26 H3         8.7051    3.3707    3.5746 H         1 RES1    0.0000
     27 H4        10.9916    3.7323    3.1635 H         1 RES1    0.0000
     28 H5        12.5357    2.1474    3.7372 H         1 RES1    0.0000
     29 H6        11.8571    0.1062    4.5943 H         1 RES1    0.0000
     30 H7         9.5966   -0.3018    4.9706 H         1 RES1    0.0000
     31 H8         4.0845   -2.6879    3.9161 H         1 RES1    0.0000
     32 H9         6.0755   -1.8616    3.6838 H         1 RES1    0.0000
     33 H10        5.1814   -0.9356    1.1869 H         1 RES1    0.0000
     34 H11        6.0936   -2.1699    1.4168 H         1 RES1    0.0000
     35 H12        7.3717   -0.3668    0.6620 H         1 RES1    0.0000
     36 H13        7.8306   -0.7844    2.0835 H         1 RES1    0.0000
     37 H14        6.1636    1.3977    1.5608 H         1 RES1    0.0000
     38 H15        7.6517    1.5257    1.9766 H         1 RES1    0.0000
     39 H16        2.3314   -0.0676    2.4806 H         1 RES1    0.0000
     40 H17        0.9288   -0.2149    0.6109 H         1 RES1    0.0000
     41 H18        0.8896   -2.1429   -0.6062 H         1 RES1    0.0000
     42 H19        2.1910   -3.9582   -0.0488 H         1 RES1    0.0000
     43 H20        3.5919   -3.7973    1.8628 H         1 RES1    0.0000
@<TRIPOS>BOND
     1    1    3 1
     2    2    4 1
     3    3   17 2
     4    4    5 1
     5    5    2 1
     6    6    5 1
     7    7    6 ar
     8    8    7 ar
     9    9    8 ar
    10   10    9 ar
    11   11    6 ar
    12   12    1 1
    13   13   12 1
    14   14   13 1
    15   15   14 1
    16   16    4 1
    17   17    4 1
    18   18   12 1
    19   19   18 ar
    20   20   19 ar
    21   21   20 ar
    22   22   21 ar
    23   23   18 ar
    24   24    2 1
    25   25    5 1
    26   26    7 1
    27   27    8 1
    28   28    9 1
    29   29   10 1
    30   30   11 1
    31   31   12 1
    32   32   13 1
    33   33   14 1
    34   34   14 1
    35   35   15 1
    36   36   15 1
    37   37   16 1
    38   38   16 1
    39   39   19 1
    40   40   20 1
    41   41   21 1
    42   42   22 1
    43   43   23 1
    44   10   11 ar
    45   13   17 1
    46   15   16 1
    47   22   23 ar
@<TRIPOS>SUBSTRUCTURE
     1 RES1 1

@<TRIPOS>CRYSIN
  11.1340    6.4350   23.6960  90.0000 101.4200  90.0000  14 1

