# MOL2 file generated by ConQuest
# Please check atom types

@<TRIPOS>MOLECULE
WAMCIZ
    48    52     1
SMALL
NO_CHARGES
****
Generated from CSD

@<TRIPOS>ATOM
      1 O1         8.7280    6.0339    2.7782 O.2       1 RES1    0.0000
      2 O2         9.1994    4.2088    1.7489 O.2       1 RES1    0.0000
      3 O3         4.7173    0.4842    7.8302 O.2       1 RES1    0.0000
      4 O4         6.2850   -0.0140    6.3920 O.3       1 RES1    0.0000
      5 O5         3.9708    3.0452    7.8517 O.2       1 RES1    0.0000
      6 N1         8.6624    4.8134    2.6664 N.pl3     1 RES1    0.0000
      7 N2         5.5682    2.1024    6.4517 N.am      1 RES1    0.0000
      8 N3         4.1944    6.2890    4.9415 N.3       1 RES1    0.0000
      9 C1         5.1107    7.1728    5.4610 C.ar      1 RES1    0.0000
     10 C2         5.3860    8.3890    4.8340 C.ar      1 RES1    0.0000
     11 H1         4.9321    8.6197    4.0550 H         1 RES1    0.0000
     12 C3         6.3265    9.2528    5.3574 C.ar      1 RES1    0.0000
     13 H2         6.4952   10.0579    4.9255 H         1 RES1    0.0000
     14 C4         7.0138    8.9448    6.4969 C.ar      1 RES1    0.0000
     15 H3         7.6349    9.5394    6.8521 H         1 RES1    0.0000
     16 C5         6.7647    7.7243    7.1171 C.ar      1 RES1    0.0000
     17 H4         7.2398    7.5008    7.8840 H         1 RES1    0.0000
     18 C6         5.8281    6.8341    6.6199 C.ar      1 RES1    0.0000
     19 C7         5.6000    5.4953    7.2732 C.3       1 RES1    0.0000
     20 H5         4.9198    5.5841    7.9594 H         1 RES1    0.0000
     21 H6         6.4195    5.2016    7.6997 H         1 RES1    0.0000
     22 C8         5.1520    4.4375    6.2447 C.3       1 RES1    0.0000
     23 C9         3.8999    4.9967    5.5417 C.3       1 RES1    0.0000
     24 H7         3.1931    5.1156    6.2103 H         1 RES1    0.0000
     25 C10        3.3373    4.2031    4.3806 C.3       1 RES1    0.0000
     26 H8         2.7081    3.5327    4.6874 H         1 RES1    0.0000
     27 H9         4.0449    3.7676    3.8801 H         1 RES1    0.0000
     28 C11        2.6454    5.2589    3.5424 C.3       1 RES1    0.0000
     29 H10        2.5693    4.9724    2.6195 H         1 RES1    0.0000
     30 H11        1.7589    5.4466    3.8882 H         1 RES1    0.0000
     31 C12        3.5278    6.4708    3.6528 C.3       1 RES1    0.0000
     32 H12        4.1724    6.5009    2.9289 H         1 RES1    0.0000
     33 H13        3.0034    7.2874    3.6447 H         1 RES1    0.0000
     34 C13        4.7791    3.1530    6.9840 C.2       1 RES1    0.0000
     35 C14        6.4540    2.6187    5.4663 C.ar      1 RES1    0.0000
     36 C15        6.2386    3.9924    5.3177 C.ar      1 RES1    0.0000
     37 C16        6.9680    4.7389    4.4078 C.ar      1 RES1    0.0000
     38 H14        6.8312    5.6528    4.3080 H         1 RES1    0.0000
     39 C17        7.9109    4.0598    3.6521 C.ar      1 RES1    0.0000
     40 C18        8.1280    2.6846    3.7967 C.ar      1 RES1    0.0000
     41 H15        8.7668    2.2620    3.2680 H         1 RES1    0.0000
     42 C19        7.4133    1.9540    4.7049 C.ar      1 RES1    0.0000
     43 H16        7.5623    1.0429    4.8111 H         1 RES1    0.0000
     44 C20        5.4282    0.7721    7.0028 C.2       1 RES1    0.0000
     45 C21        6.2540   -1.3767    6.9180 C.3       1 RES1    0.0000
     46 H17        5.5060   -1.8466    6.5427 H         1 RES1    0.0000
     47 H18        6.1669   -1.3480    7.8746 H         1 RES1    0.0000
     48 H19        7.0670   -1.8294    6.6839 H         1 RES1    0.0000
@<TRIPOS>BOND
     1    1    6 2
     2    2    6 2
     3    3   44 2
     4    4   44 1
     5    5   34 2
     6    6   39 1
     7    7   34 1
     8    8    9 1
     9    9   10 ar
    10   10   11 1
    11   12   10 ar
    12   13   12 1
    13   14   12 ar
    14   15   14 1
    15   16   14 ar
    16   17   16 1
    17   18    9 ar
    18   19   18 1
    19   20   19 1
    20   21   19 1
    21   22   19 1
    22   23    8 1
    23   24   23 1
    24   25   23 1
    25   26   25 1
    26   27   25 1
    27   28   25 1
    28   29   28 1
    29   30   28 1
    30   31    8 1
    31   32   31 1
    32   33   31 1
    33   34   22 1
    34   35    7 1
    35   36   22 1
    36   37   36 ar
    37   38   37 1
    38   39   37 ar
    39   40   39 ar
    40   41   40 1
    41   42   35 ar
    42   43   42 1
    43   44    7 1
    44   45    4 1
    45   46   45 1
    46   47   45 1
    47   48   45 1
    48   16   18 ar
    49   22   23 1
    50   28   31 1
    51   35   36 ar
    52   40   42 ar
@<TRIPOS>SUBSTRUCTURE
     1 RES1 1

@<TRIPOS>CRYSIN
   9.5950   14.3255   13.6640  90.0000 100.0590  90.0000  14 1

