# MOL2 file generated by ConQuest
# Please check atom types

@<TRIPOS>MOLECULE
WAMMAY
    55    59     1
SMALL
NO_CHARGES
****
Generated from CSD

@<TRIPOS>ATOM
      1 C1        -0.6326   -0.1575   -0.9590 C.3       1 RES1    0.0000
      2 C2        -1.9204   -0.8426   -0.4909 C.3       1 RES1    0.0000
      3 C3        -1.8447   -1.1861    0.9658 C.2       1 RES1    0.0000
      4 C4        -0.8094   -0.7572    1.8326 C.2       1 RES1    0.0000
      5 C5         0.3974   -0.0493    1.3264 C.3       1 RES1    0.0000
      6 C6         1.1682    0.7060    2.3860 C.3       1 RES1    0.0000
      7 C7         2.4347    1.2317    1.7906 C.3       1 RES1    0.0000
      8 C8         2.1915    2.1123    0.5496 C.3       1 RES1    0.0000
      9 C9         1.3131    1.3911   -0.5031 C.3       1 RES1    0.0000
     10 C10        0.0106    0.8085    0.0816 C.3       1 RES1    0.0000
     11 C11        1.1164    2.3001   -1.7396 C.3       1 RES1    0.0000
     12 C12        2.4081    2.8448   -2.3540 C.3       1 RES1    0.0000
     13 C13        3.2374    3.5375   -1.2753 C.3       1 RES1    0.0000
     14 C14        3.4488    2.5184   -0.1464 C.3       1 RES1    0.0000
     15 C15        4.6714    3.0232    0.5969 C.3       1 RES1    0.0000
     16 C16        5.4383    3.6077   -0.5519 C.2       1 RES1    0.0000
     17 C17        4.6807    3.8867   -1.6199 C.2       1 RES1    0.0000
     18 C18        2.5676    4.8622   -0.8042 C.3       1 RES1    0.0000
     19 C19       -0.9622    1.9320    0.4475 C.3       1 RES1    0.0000
     20 C20        5.1260    4.5490   -2.8365 C.2       1 RES1    0.0000
     21 C21        6.5732    4.4978   -3.2283 C.3       1 RES1    0.0000
     22 O1         4.8163    5.8509   -4.6416 O.3       1 RES1    0.0000
     23 O2        -2.2434   -1.8105    2.9875 O.3       1 RES1    0.0000
     24 N1        -2.7245   -1.8333    1.6786 N.2       1 RES1    0.0000
     25 N2        -1.0632   -1.1292    3.0416 N.2       1 RES1    0.0000
     26 N3         4.2621    5.1886   -3.5157 N.2       1 RES1    0.0000
     27 H1        -0.8386    0.4099   -1.8547 H         1 RES1    0.0000
     28 H2         0.0970   -0.9223   -1.1770 H         1 RES1    0.0000
     29 H3        -2.0546   -1.7574   -1.0512 H         1 RES1    0.0000
     30 H4        -2.7603   -0.1860   -0.6670 H         1 RES1    0.0000
     31 H5         1.0765   -0.8009    0.9536 H         1 RES1    0.0000
     32 H6         1.3941    0.0588    3.2200 H         1 RES1    0.0000
     33 H7         0.5874    1.5486    2.7313 H         1 RES1    0.0000
     34 H8         2.9876    0.3739    1.4354 H         1 RES1    0.0000
     35 H9         3.0275    1.7631    2.5194 H         1 RES1    0.0000
     36 H10        1.6799    2.9682    0.9811 H         1 RES1    0.0000
     37 H11        1.8606    0.5409   -0.8858 H         1 RES1    0.0000
     38 H12        0.6007    1.7308   -2.4996 H         1 RES1    0.0000
     39 H13        0.5010    3.1333   -1.4354 H         1 RES1    0.0000
     40 H14        2.1769    3.5565   -3.1331 H         1 RES1    0.0000
     41 H15        2.9956    2.0382   -2.7664 H         1 RES1    0.0000
     42 H16        3.7332    1.5429   -0.5146 H         1 RES1    0.0000
     43 H17        5.2243    2.2375    1.0893 H         1 RES1    0.0000
     44 H18        4.3857    3.7728    1.3218 H         1 RES1    0.0000
     45 H19        1.5629    4.7217   -0.4330 H         1 RES1    0.0000
     46 H20        2.5450    5.5131   -1.6664 H         1 RES1    0.0000
     47 H21        3.1776    5.3081   -0.0320 H         1 RES1    0.0000
     48 H22        7.0610    3.9854   -2.4134 H         1 RES1    0.0000
     49 H23        7.0238    5.4695   -3.3663 H         1 RES1    0.0000
     50 H24        6.6809    3.9190   -4.1340 H         1 RES1    0.0000
     51 H25        6.4523    3.9778   -0.6053 H         1 RES1    0.0000
     52 H26       -1.7795    1.4252    0.9407 H         1 RES1    0.0000
     53 H27       -1.3277    2.4216   -0.4429 H         1 RES1    0.0000
     54 H28       -0.5396    2.6664    1.1152 H         1 RES1    0.0000
     55 H29        4.3033    6.5873   -4.8025 H         1 RES1    0.0000
@<TRIPOS>BOND
     1    1    2 1
     2    2    3 1
     3    3    4 1
     4    4    5 1
     5    5    6 1
     6    6    7 1
     7    7    8 1
     8    8    9 1
     9    9   10 1
    10   10    1 1
    11   11    9 1
    12   12   11 1
    13   13   12 1
    14   14    8 1
    15   15   14 1
    16   16   15 1
    17   17   13 1
    18   18   13 1
    19   19   10 1
    20   20   17 1
    21   21   20 1
    22   22   26 1
    23   23   24 1
    24   24    3 2
    25   25    4 2
    26   26   20 2
    27   27    1 1
    28   28    1 1
    29   29    2 1
    30   30    2 1
    31   31    5 1
    32   32    6 1
    33   33    6 1
    34   34    7 1
    35   35    7 1
    36   36    8 1
    37   37    9 1
    38   38   11 1
    39   39   11 1
    40   40   12 1
    41   41   12 1
    42   42   14 1
    43   43   15 1
    44   44   15 1
    45   45   18 1
    46   46   18 1
    47   47   18 1
    48   48   21 1
    49   49   21 1
    50   50   21 1
    51   51   16 1
    52   52   19 1
    53   53   19 1
    54   54   19 1
    55   55   22 1
    56    5   10 1
    57   13   14 1
    58   16   17 2
    59   23   25 1
@<TRIPOS>SUBSTRUCTURE
     1 RES1 1

@<TRIPOS>CRYSIN
  13.2900   18.9780    7.6230  90.0000  90.0000  90.0000  19 1

