# MOL2 file generated by ConQuest
# Please check atom types

@<TRIPOS>MOLECULE
WAMNAZ
    39    40     1
SMALL
NO_CHARGES
****
Generated from CSD

@<TRIPOS>ATOM
      1 O1         1.4180    2.8488    3.7524 O.3       1 RES1    0.0000
      2 O2         0.8904    2.6400    0.5842 O.2       1 RES1    0.0000
      3 N1         5.2468    2.3726    3.9855 N.pl3     1 RES1    0.0000
      4 C1         3.1809    1.4124    3.0680 C.3       1 RES1    0.0000
      5 C2         2.9529    3.6482    1.1586 C.3       1 RES1    0.0000
      6 C3         4.6945    6.1062    2.0212 C.ar      1 RES1    0.0000
      7 C4         4.3436    2.3762    2.7759 C.3       1 RES1    0.0000
      8 O3         5.9930    1.4239    4.1051 O.2       1 RES1    0.0000
      9 C5         1.2874    0.1759    1.8761 C.3       1 RES1    0.0000
     10 C6         2.4032    1.2010    1.7487 C.3       1 RES1    0.0000
     11 O4         5.1692    3.2538    4.8010 O.2       1 RES1    0.0000
     12 C7         3.8937    3.7655    2.3878 C.3       1 RES1    0.0000
     13 C8         5.0112    4.7506    2.0682 C.ar      1 RES1    0.0000
     14 C9         1.9635    2.5139    1.1684 C.2       1 RES1    0.0000
     15 C10        6.3182    4.3704    1.7820 C.ar      1 RES1    0.0000
     16 C11        2.2777    1.8228    4.2070 C.3       1 RES1    0.0000
     17 C12        7.2667    5.3245    1.4370 C.ar      1 RES1    0.0000
     18 C13        5.6455    7.0407    1.6742 C.ar      1 RES1    0.0000
     19 C14        6.9244    6.6587    1.3801 C.ar      1 RES1    0.0000
     20 C15        0.4644    3.2698    4.7246 C.3       1 RES1    0.0000
     21 H1         3.5599    0.5330    3.2739 H         1 RES1    0.0000
     22 H2         3.5087    3.4288    0.3137 H         1 RES1    0.0000
     23 H3         2.4501    4.5392    0.9802 H         1 RES1    0.0000
     24 H4         3.7819    6.4668    2.2349 H         1 RES1    0.0000
     25 H5         4.8576    1.9809    2.0780 H         1 RES1    0.0000
     26 H6         1.5964   -0.5774    2.4309 H         1 RES1    0.0000
     27 H7         0.9818   -0.1155    0.9606 H         1 RES1    0.0000
     28 H8         0.5976    0.6307    2.3525 H         1 RES1    0.0000
     29 H9         3.0306    0.8705    1.0978 H         1 RES1    0.0000
     30 H10        3.3465    4.1750    3.1758 H         1 RES1    0.0000
     31 H11        6.5650    3.4200    1.7448 H         1 RES1    0.0000
     32 H12        2.7062    2.2296    5.0382 H         1 RES1    0.0000
     33 H13        1.7757    1.0215    4.5285 H         1 RES1    0.0000
     34 H14        8.2894    4.9567    1.2351 H         1 RES1    0.0000
     35 H15        5.3356    7.9769    1.6663 H         1 RES1    0.0000
     36 H16        7.5552    7.3551    1.1566 H         1 RES1    0.0000
     37 H17       -0.1024    3.9441    4.1953 H         1 RES1    0.0000
     38 H18        0.9305    3.5266    5.5479 H         1 RES1    0.0000
     39 H19       -0.0341    2.3629    5.1559 H         1 RES1    0.0000
@<TRIPOS>BOND
     1    1   16 1
     2    2   14 2
     3    3    7 1
     4    4    7 1
     5    5   12 1
     6    6   13 ar
     7    7   12 1
     8    8    3 2
     9    9   10 1
    10   10    4 1
    11   11    3 2
    12   12   13 1
    13   13   15 ar
    14   14    5 1
    15   15   17 ar
    16   16    4 1
    17   17   19 ar
    18   18    6 ar
    19   19   18 ar
    20   20    1 1
    21   21    4 1
    22   22    5 1
    23   23    5 1
    24   24    6 1
    25   25    7 1
    26   26    9 1
    27   27    9 1
    28   28    9 1
    29   29   10 1
    30   30   12 1
    31   31   15 1
    32   32   16 1
    33   33   16 1
    34   34   17 1
    35   35   18 1
    36   36   19 1
    37   37   20 1
    38   38   20 1
    39   39   20 1
    40   10   14 1
@<TRIPOS>SUBSTRUCTURE
     1 RES1 1

@<TRIPOS>CRYSIN
   8.5370    8.8830   19.6040  90.0000  90.0000  90.0000  19 1

