# MOL2 file generated by ConQuest
# Please check atom types

@<TRIPOS>MOLECULE
WAMTIO
    31    33     1
SMALL
NO_CHARGES
****
Generated from CSD

@<TRIPOS>ATOM
      1 N1         1.7839    2.9467   -0.0743 N.3       1 RES1    0.0000
      2 C1         0.7286    2.5423   -0.8408 C.2       1 RES1    0.0000
      3 H1         0.5519    1.5708   -0.8191 H         1 RES1    0.0000
      4 C2         0.0350    3.4214   -1.5829 C.2       1 RES1    0.0000
      5 H2        -0.7081    3.1246   -2.1110 H         1 RES1    0.0000
      6 C3         0.3961    4.8224   -1.6053 C.2       1 RES1    0.0000
      7 N2         1.4297    5.1443   -0.7517 N.am      1 RES1    0.0000
      8 C4         2.1806    4.2596    0.0141 C.2       1 RES1    0.0000
      9 N3         3.1441    4.7305    0.7000 N.2       1 RES1    0.0000
     10 C5         3.1112    6.1940    0.4601 C.3       1 RES1    0.0000
     11 H3         3.9838    6.5060    0.1735 H         1 RES1    0.0000
     12 H4         2.8693    6.6618    1.2745 H         1 RES1    0.0000
     13 C6         2.0613    6.4584   -0.6403 C.3       1 RES1    0.0000
     14 H5         1.4241    7.1375   -0.3687 H         1 RES1    0.0000
     15 H6         2.4790    6.7250   -1.4746 H         1 RES1    0.0000
     16 O1         2.4261    2.0030    0.7176 O.3       1 RES1    0.0000
     17 C7         3.6843    1.5734    0.0945 C.3       1 RES1    0.0000
     18 H7         4.4074    2.1670    0.3478 H         1 RES1    0.0000
     19 H8         3.6026    1.5794   -0.8724 H         1 RES1    0.0000
     20 C8         3.9505    0.1862    0.5884 C.ar      1 RES1    0.0000
     21 C9         3.1889   -0.8756    0.1103 C.ar      1 RES1    0.0000
     22 H9         2.5109   -0.7167   -0.5063 H         1 RES1    0.0000
     23 C10        3.4314   -2.1641    0.5436 C.ar      1 RES1    0.0000
     24 H10        2.9185   -2.8679    0.2177 H         1 RES1    0.0000
     25 C11        4.4400   -2.4085    1.4665 C.ar      1 RES1    0.0000
     26 H11        4.6020   -3.2767    1.7574 H         1 RES1    0.0000
     27 C12        5.2004   -1.3696    1.9514 C.ar      1 RES1    0.0000
     28 H12        5.8770   -1.5343    2.5681 H         1 RES1    0.0000
     29 C13        4.9533   -0.0739    1.5151 C.ar      1 RES1    0.0000
     30 H13        5.4645    0.6278    1.8475 H         1 RES1    0.0000
     31 O2        -0.1486    5.6930   -2.2850 O.2       1 RES1    0.0000
@<TRIPOS>BOND
     1    1    2 1
     2    2    3 1
     3    4    2 2
     4    5    4 1
     5    6    4 1
     6    7    6 1
     7    8    1 1
     8    9    8 2
     9   10    9 1
    10   11   10 1
    11   12   10 1
    12   13    7 1
    13   14   13 1
    14   15   13 1
    15   16    1 1
    16   17   16 1
    17   18   17 1
    18   19   17 1
    19   20   17 1
    20   21   20 ar
    21   22   21 1
    22   23   21 ar
    23   24   23 1
    24   25   23 ar
    25   26   25 1
    26   27   25 ar
    27   28   27 1
    28   29   20 ar
    29   30   29 1
    30   31    6 2
    31    7    8 1
    32   10   13 1
    33   27   29 ar
@<TRIPOS>SUBSTRUCTURE
     1 RES1 1

@<TRIPOS>CRYSIN
  11.7377   12.1676    8.3598  90.0000  93.8710  90.0000  14 1

