# MOL2 file generated by ConQuest
# Please check atom types

@<TRIPOS>MOLECULE
WAMTOU
    27    28     1
SMALL
NO_CHARGES
****
Generated from CSD

@<TRIPOS>ATOM
      1 N1         0.7200    1.3540   10.5273 N.3       1 RES1    0.0000
      2 C1         1.3050    1.6546   11.7338 C.2       1 RES1    0.0000
      3 N2         1.6673    2.9664   11.7547 N.3       1 RES1    0.0000
      4 C2         1.4903    3.5469   10.4188 C.3       1 RES1    0.0000
      5 C3         0.4334    2.6141    9.8236 C.3       1 RES1    0.0000
      6 N3         1.4589    0.7676   12.6777 N.2       1 RES1    0.0000
      7 O1         2.2346    1.4109   13.7404 O.3       1 RES1    0.0000
      8 C4         2.0604    0.6469   14.9247 C.3       1 RES1    0.0000
      9 C5         0.6738    0.7691   15.5251 C.ar      1 RES1    0.0000
     10 C6         0.2384   -0.1499   16.4802 C.ar      1 RES1    0.0000
     11 C7        -1.0266   -0.0350   17.0454 C.ar      1 RES1    0.0000
     12 C8        -1.8781    0.9840   16.6440 C.ar      1 RES1    0.0000
     13 C9        -1.4538    1.9025   15.6971 C.ar      1 RES1    0.0000
     14 C10       -0.1782    1.8035   15.1487 C.ar      1 RES1    0.0000
     15 H1         0.1409    2.4539   14.4816 H         1 RES1    0.0000
     16 H2         0.1314    0.7087   10.5191 H         1 RES1    0.0000
     17 H3        -2.0418    2.6440   15.3978 H         1 RES1    0.0000
     18 H4         2.2710   -0.3107   14.7323 H         1 RES1    0.0000
     19 H5         2.3499    3.2443   12.2344 H         1 RES1    0.0000
     20 H6         1.1734    4.4676   10.4933 H         1 RES1    0.0000
     21 H7         0.8443   -0.8762   16.7616 H         1 RES1    0.0000
     22 H8         2.7515    1.0065   15.5478 H         1 RES1    0.0000
     23 H9         0.5278    2.4846    8.8460 H         1 RES1    0.0000
     24 H10       -0.4794    2.9498   10.0364 H         1 RES1    0.0000
     25 H11        2.3288    3.5097    9.9098 H         1 RES1    0.0000
     26 H12       -1.3248   -0.6877   17.7411 H         1 RES1    0.0000
     27 H13       -2.7662    1.0639   17.0264 H         1 RES1    0.0000
@<TRIPOS>BOND
     1    1    2 1
     2    2    3 1
     3    3    4 1
     4    4    5 1
     5    5    1 1
     6    6    2 2
     7    7    6 1
     8    8    7 1
     9    9    8 1
    10   10    9 ar
    11   11   10 ar
    12   12   11 ar
    13   13   12 ar
    14   14    9 ar
    15   15   14 1
    16   16    1 1
    17   17   13 1
    18   18    8 1
    19   19    3 1
    20   20    4 1
    21   21   10 1
    22   22    8 1
    23   23    5 1
    24   24    5 1
    25   25    4 1
    26   26   11 1
    27   27   12 1
    28   13   14 ar
@<TRIPOS>SUBSTRUCTURE
     1 RES1 1

@<TRIPOS>CRYSIN
  10.5139    8.0906   23.4330  90.0000  90.0000  90.0000  61 1

