# MOL2 file generated by ConQuest
# Please check atom types

@<TRIPOS>MOLECULE
WANPOS
    38    41     1
SMALL
NO_CHARGES
****
Generated from CSD

@<TRIPOS>ATOM
      1 C1         7.0495    3.8667    0.3757 C.ar      1 RES1    0.0000
      2 H1         6.2197    3.6040    0.0483 H         1 RES1    0.0000
      3 O1        10.9726    8.0183    2.8713 O.3       1 RES1    0.0000
      4 O2         7.8718    8.0662    4.3409 O.3       1 RES1    0.0000
      5 C2         9.9573    8.7596    2.4626 C.2       1 RES1    0.0000
      6 O3         8.4496    7.7954   -0.2150 O.3       1 RES1    0.0000
      7 C3         8.7758    7.8594    2.1097 C.3       1 RES1    0.0000
      8 O4         9.9659    9.9395    2.3566 O.2       1 RES1    0.0000
      9 N1         7.4375    8.6211    0.3514 N.2       1 RES1    0.0000
     10 C4         9.0973    7.0348    0.8466 C.3       1 RES1    0.0000
     11 H2        10.0660    7.0562    0.6983 H         1 RES1    0.0000
     12 C5         6.9572    9.0071    3.9304 C.ar      1 RES1    0.0000
     13 C6         8.2977    7.1139    3.3525 C.3       1 RES1    0.0000
     14 H3         7.5608    6.5278    3.1207 H         1 RES1    0.0000
     15 H4         9.0179    6.5708    3.7084 H         1 RES1    0.0000
     16 C7         8.6458    5.5970    0.8586 C.ar      1 RES1    0.0000
     17 C8         6.7519    9.3164    2.5882 C.ar      1 RES1    0.0000
     18 C9         7.6108    8.6617    1.6143 C.2       1 RES1    0.0000
     19 C10        9.5065    4.6368    1.3481 C.ar      1 RES1    0.0000
     20 H5        10.3364    4.8916    1.6804 H         1 RES1    0.0000
     21 C11        5.7726   10.2638    2.2579 C.ar      1 RES1    0.0000
     22 H6         5.6033   10.4605    1.3655 H         1 RES1    0.0000
     23 C12        6.2424    9.6654    4.9317 C.ar      1 RES1    0.0000
     24 H7         6.3937    9.4696    5.8284 H         1 RES1    0.0000
     25 C13       12.2062    8.6934    3.2032 C.3       1 RES1    0.0000
     26 H8        12.3136    9.4606    2.6375 H         1 RES1    0.0000
     27 H9        12.9448    8.0931    3.0724 H         1 RES1    0.0000
     28 H10       12.1809    8.9731    4.1215 H         1 RES1    0.0000
     29 C14        7.3986    5.2123    0.3863 C.ar      1 RES1    0.0000
     30 H11        6.7978    5.8526    0.0779 H         1 RES1    0.0000
     31 C15        5.3118   10.6083    4.5688 C.ar      1 RES1    0.0000
     32 H12        4.8393   11.0588    5.2313 H         1 RES1    0.0000
     33 C16        5.0608   10.9040    3.2431 C.ar      1 RES1    0.0000
     34 H13        4.4136   11.5323    3.0194 H         1 RES1    0.0000
     35 C17        9.1536    3.3028    1.3505 C.ar      1 RES1    0.0000
     36 H14        9.7396    2.6651    1.6882 H         1 RES1    0.0000
     37 C18        7.9344    2.9218    0.8520 C.ar      1 RES1    0.0000
     38 H15        7.7034    2.0218    0.8355 H         1 RES1    0.0000
@<TRIPOS>BOND
     1    1    2 1
     2    3    5 1
     3    4   12 1
     4    5    7 1
     5    6    9 1
     6    7   10 1
     7    8    5 2
     8    9   18 2
     9   10    6 1
    10   11   10 1
    11   12   17 ar
    12   13    4 1
    13   14   13 1
    14   15   13 1
    15   16   10 1
    16   17   18 1
    17   18    7 1
    18   19   16 ar
    19   20   19 1
    20   21   17 ar
    21   22   21 1
    22   23   12 ar
    23   24   23 1
    24   25    3 1
    25   26   25 1
    26   27   25 1
    27   28   25 1
    28   29    1 ar
    29   30   29 1
    30   31   23 ar
    31   32   31 1
    32   33   21 ar
    33   34   33 1
    34   35   19 ar
    35   36   35 1
    36   37    1 ar
    37   38   37 1
    38    7   13 1
    39   16   29 ar
    40   31   33 ar
    41   35   37 ar
@<TRIPOS>SUBSTRUCTURE
     1 RES1 1

@<TRIPOS>CRYSIN
   9.8320    9.9890   15.5880  90.0000  90.0000  90.0000  19 1

