# MOL2 file generated by ConQuest
# Please check atom types

@<TRIPOS>MOLECULE
WANSUZ
    70    48     2
SMALL
NO_CHARGES
****
Generated from CSD

@<TRIPOS>ATOM
      1 O1         3.8325    0.7283    0.4305 O.2       1 RES1    0.0000
      2 N1         3.6376   -0.0555    1.4093 N.3       1 RES1    0.0000
      3 C1         4.3719    0.2372    2.6087 C.ar      1 RES1    0.0000
      4 C2         3.7273    0.6728    3.7738 C.ar      1 RES1    0.0000
      5 C3         4.5061    0.8469    4.9068 C.ar      1 RES1    0.0000
      6 C4         5.8730    0.6424    4.9368 C.ar      1 RES1    0.0000
      7 C5         6.4805    0.2699    3.7460 C.ar      1 RES1    0.0000
      8 C6         5.7543    0.0639    2.6044 C.ar      1 RES1    0.0000
      9 C7         2.2657    0.9457    3.8402 C.ar      1 RES1    0.0000
     10 C8         1.5237    0.4683    4.9132 C.ar      1 RES1    0.0000
     11 C9         0.1771    0.7222    5.0160 C.ar      1 RES1    0.0000
     12 C10       -0.4445    1.4413    4.0458 C.ar      1 RES1    0.0000
     13 C11        0.2516    1.9393    2.9685 C.ar      1 RES1    0.0000
     14 C12        1.6289    1.6892    2.8636 C.ar      1 RES1    0.0000
     15 C13        6.6374    0.7929    6.1983 C.ar      1 RES1    0.0000
     16 C14        7.7987    0.0517    6.4339 C.ar      1 RES1    0.0000
     17 C15        8.4687    0.1361    7.6204 C.ar      1 RES1    0.0000
     18 C16        8.0376    0.9905    8.6035 C.ar      1 RES1    0.0000
     19 C17        6.9060    1.7348    8.4001 C.ar      1 RES1    0.0000
     20 C18        6.2169    1.6436    7.2007 C.ar      1 RES1    0.0000
     21 C19        3.0708   -1.4064    1.1394 C.3       1 RES1    0.0000
     22 C20        2.5284   -1.9978    2.3452 C.3       1 RES1    0.0000
     23 C21        4.2183   -2.3186    0.6832 C.3       1 RES1    0.0000
     24 C22        2.0551   -1.2695    0.1007 C.3       1 RES1    0.0000
     25 H1         8.4776    1.0628    9.4538 H         1 RES1    0.0000
     26 H2         6.5510    2.3505    9.1026 H         1 RES1    0.0000
     27 H3         5.4146    2.1962    7.0465 H         1 RES1    0.0000
     28 H4         8.0973   -0.5770    5.7314 H         1 RES1    0.0000
     29 H5         9.3088   -0.3619    7.7447 H         1 RES1    0.0000
     30 H6         4.0248    1.1555    5.7528 H         1 RES1    0.0000
     31 H7         6.2251   -0.2022    1.7627 H         1 RES1    0.0000
     32 H8         7.4413    0.1695    3.7267 H         1 RES1    0.0000
     33 H9         1.9610   -0.0836    5.6479 H         1 RES1    0.0000
     34 H10       -0.3414    0.4037    5.7892 H         1 RES1    0.0000
     35 H11       -1.3898    1.6245    4.0929 H         1 RES1    0.0000
     36 H12       -0.2153    2.5216    2.2724 H         1 RES1    0.0000
     37 H13        2.1452    2.0313    2.0775 H         1 RES1    0.0000
     38 H14        1.8962   -1.4900    2.7929 H         1 RES1    0.0000
     39 H15        2.2099   -2.9017    2.2296 H         1 RES1    0.0000
     40 H16        3.2967   -2.1210    3.0156 H         1 RES1    0.0000
     41 H17        3.9101   -3.1624    0.3620 H         1 RES1    0.0000
     42 H18        4.6341   -1.8800   -0.1264 H         1 RES1    0.0000
     43 H19        4.8812   -2.4106    1.3108 H         1 RES1    0.0000
     44 H20        1.4094   -0.7161    0.2249 H         1 RES1    0.0000
     45 H21        2.5715   -1.0156   -0.7582 H         1 RES1    0.0000
     46 H22        1.7290   -2.1810   -0.1735 H         1 RES1    0.0000
     47 O2         1.3681    0.9122    1.2851 Du        2 SUP2    0.0000
     48 N2         0.7122    0.6386    0.9424 Du        2 SUP2    0.0000
     49 C23        0.6385    0.5017    1.0066 Du        2 SUP2    0.0000
     50 C24        0.4849    0.4257    1.1994 Du        2 SUP2    0.0000
     51 C25        0.5002    0.4485    1.1566 Du        2 SUP2    0.0000
     52 C26        0.5095    0.4105    1.1780 Du        2 SUP2    0.0000
     53 C27        0.4583    0.6614    1.2422 Du        2 SUP2    0.0000
     54 C28        0.5965    0.6842    1.0923 Du        2 SUP2    0.0000
     55 C29        0.4385    0.4257    1.6920 Du        2 SUP2    0.0000
     56 C30        0.5186    0.6234    1.7991 Du        2 SUP2    0.0000
     57 C31        0.4536    0.7678    2.8486 Du        2 SUP2    0.0000
     58 C32        0.2357    0.6766    4.5620 Du        2 SUP2    0.0000
     59 C33        0.5993    0.5702    3.5768 Du        2 SUP2    0.0000
     60 C34        0.6406    0.5017    2.4202 Du        2 SUP2    0.0000
     61 C35        0.5022    0.4181    1.1351 Du        2 SUP2    0.0000
     62 C36        0.5232    0.5549    1.3922 Du        2 SUP2    0.0000
     63 C37        0.5791    0.6006    1.7563 Du        2 SUP2    0.0000
     64 C38        0.8411    0.6614    1.3707 Du        2 SUP2    0.0000
     65 C39        0.9414    0.6234    1.2636 Du        2 SUP2    0.0000
     66 C40        0.6654    0.5321    1.1994 Du        2 SUP2    0.0000
     67 C41        0.7927    0.6538    1.2851 Du        2 SUP2    0.0000
     68 C42        2.5397    0.6766    2.1418 Du        2 SUP2    0.0000
     69 C43        1.3000    1.1935    5.7186 Du        2 SUP2    0.0000
     70 C44        2.8717    1.1783    6.6395 Du        2 SUP2    0.0000
@<TRIPOS>BOND
     1    1    2 1
     2    2    3 1
     3    3    4 ar
     4    4    5 ar
     5    5    6 ar
     6    6    7 ar
     7    7    8 ar
     8    8    3 ar
     9    9    4 1
    10   10    9 ar
    11   11   10 ar
    12   12   11 ar
    13   13   12 ar
    14   14    9 ar
    15   15    6 1
    16   16   15 ar
    17   17   16 ar
    18   18   17 ar
    19   19   18 ar
    20   20   15 ar
    21   21    2 1
    22   22   21 1
    23   23   21 1
    24   24   21 1
    25   25   18 1
    26   26   19 1
    27   27   20 1
    28   28   16 1
    29   29   17 1
    30   30    5 1
    31   31    8 1
    32   32    7 1
    33   33   10 1
    34   34   11 1
    35   35   12 1
    36   36   13 1
    37   37   14 1
    38   38   22 1
    39   39   22 1
    40   40   22 1
    41   41   23 1
    42   42   23 1
    43   43   23 1
    44   44   24 1
    45   45   24 1
    46   46   24 1
    47   13   14 ar
    48   19   20 ar
@<TRIPOS>SUBSTRUCTURE
     1 RES1 1
     2 SUP2 47

@<TRIPOS>CRYSIN
  11.2820    7.6020   21.5127  90.0000  95.3840  90.0000 231 1

