# MOL2 file generated by ConQuest
# Please check atom types

@<TRIPOS>MOLECULE
WANSEL
    44    45     1
SMALL
NO_CHARGES
****
Generated from CSD

@<TRIPOS>ATOM
      1 O1         2.9819    7.6921    1.6924 O.2       1 RES1    0.0000
      2 O2         5.9248    8.2672    2.0078 O.3       1 RES1    0.0000
      3 O3         7.4785    5.9261    2.7377 O.3       1 RES1    0.0000
      4 N1         3.6086    8.7141    2.1964 N.pl3     1 RES1    0.0000
      5 C1         3.2658    9.4225    3.2546 C.2       1 RES1    0.0000
      6 C2         2.0821    9.1459    4.0004 C.2       1 RES1    0.0000
      7 H1         1.4800    8.4840    3.6817 H         1 RES1    0.0000
      8 C3         1.7953    9.7941    5.1378 C.2       1 RES1    0.0000
      9 H2         2.4238   10.4506    5.4131 H         1 RES1    0.0000
     10 C4         0.6390    9.6135    6.0000 C.ar      1 RES1    0.0000
     11 C5        -0.4066    8.7272    5.7170 C.ar      1 RES1    0.0000
     12 H3        -0.3749    8.1926    4.9320 H         1 RES1    0.0000
     13 C6        -1.4800    8.6278    6.5722 C.ar      1 RES1    0.0000
     14 H4        -2.1854    8.0233    6.3728 H         1 RES1    0.0000
     15 C7        -1.5438    9.3988    7.7204 C.ar      1 RES1    0.0000
     16 H5        -2.2963    9.3330    8.2972 H         1 RES1    0.0000
     17 C8        -0.5150   10.2600    8.0258 C.ar      1 RES1    0.0000
     18 H6        -0.5458   10.7774    8.8221 H         1 RES1    0.0000
     19 C9         0.5603   10.3685    7.1719 C.ar      1 RES1    0.0000
     20 H7         1.2639   10.9703    7.3839 H         1 RES1    0.0000
     21 C10        4.2856   10.4812    3.5162 C.3       1 RES1    0.0000
     22 H8         4.8662   10.2342    4.2785 H         1 RES1    0.0000
     23 H9         3.8534   11.3510    3.7074 H         1 RES1    0.0000
     24 C11        5.0917   10.5413    2.2056 C.3       1 RES1    0.0000
     25 C12        4.4383   11.5511    1.2475 C.3       1 RES1    0.0000
     26 H10        4.9019   11.5296    0.3833 H         1 RES1    0.0000
     27 H11        4.5010   12.4518    1.6286 H         1 RES1    0.0000
     28 H12        3.4955   11.3165    1.1192 H         1 RES1    0.0000
     29 C13        6.5530   10.9061    2.4472 C.3       1 RES1    0.0000
     30 H13        7.0460   10.8566    1.6028 H         1 RES1    0.0000
     31 H14        6.9442   10.2788    3.0899 H         1 RES1    0.0000
     32 H15        6.6077   11.8168    2.8043 H         1 RES1    0.0000
     33 C14        4.9035    9.1449    1.6085 C.3       1 RES1    0.0000
     34 H16        4.8439    9.1898    0.6123 H         1 RES1    0.0000
     35 C15        5.9876    7.0532    1.2391 C.3       1 RES1    0.0000
     36 H17        5.8345    7.2543    0.2830 H         1 RES1    0.0000
     37 H18        5.2817    6.4289    1.5411 H         1 RES1    0.0000
     38 C16        7.3270    6.4222    1.4132 C.3       1 RES1    0.0000
     39 H19        7.4288    5.6784    0.7667 H         1 RES1    0.0000
     40 H20        8.0337    7.0901    1.2272 H         1 RES1    0.0000
     41 C17        8.7065    5.2177    2.8957 C.3       1 RES1    0.0000
     42 H21        8.7563    4.8488    3.8026 H         1 RES1    0.0000
     43 H22        9.4580    5.8301    2.7503 H         1 RES1    0.0000
     44 H23        8.7487    4.4875    2.2435 H         1 RES1    0.0000
@<TRIPOS>BOND
     1    1    4 1
     2    2   33 1
     3    3   38 1
     4    4    5 2
     5    5    6 1
     6    6    7 1
     7    8    6 2
     8    9    8 1
     9   10    8 1
    10   11   10 ar
    11   12   11 1
    12   13   11 ar
    13   14   13 1
    14   15   13 ar
    15   16   15 1
    16   17   15 ar
    17   18   17 1
    18   19   10 ar
    19   20   19 1
    20   21    5 1
    21   22   21 1
    22   23   21 1
    23   24   21 1
    24   25   24 1
    25   26   25 1
    26   27   25 1
    27   28   25 1
    28   29   24 1
    29   30   29 1
    30   31   29 1
    31   32   29 1
    32   33    4 1
    33   34   33 1
    34   35    2 1
    35   36   35 1
    36   37   35 1
    37   38   35 1
    38   39   38 1
    39   40   38 1
    40   41    3 1
    41   42   41 1
    42   43   41 1
    43   44   41 1
    44   17   19 ar
    45   24   33 1
@<TRIPOS>SUBSTRUCTURE
     1 RES1 1

@<TRIPOS>CRYSIN
   7.5181    8.4225   25.7280  90.0000  90.2150  90.0000 231 1

