# MOL2 file generated by ConQuest
# Please check atom types

@<TRIPOS>MOLECULE
WAPGEZ
    34    36     1
SMALL
NO_CHARGES
****
Generated from CSD

@<TRIPOS>ATOM
      1 N1         5.8465    1.9750   -3.1508 N.3       1 RES1    0.0000
      2 N2         4.4267   -0.5302   -2.2619 N.pl3     1 RES1    0.0000
      3 N3         7.1004   -0.0571    1.6871 N.pl3     1 RES1    0.0000
      4 O1         3.7149   -0.0150   -3.1316 O.2       1 RES1    0.0000
      5 O2         7.7247    0.6233    2.4927 O.2       1 RES1    0.0000
      6 O3         7.1005   -1.2856    1.7373 O.2       1 RES1    0.0000
      7 O4         4.3724   -1.7332   -1.9809 O.2       1 RES1    0.0000
      8 C1         5.8072   -0.2163   -0.3184 C.ar      1 RES1    0.0000
      9 C2         6.4035    0.5978    0.6015 C.ar      1 RES1    0.0000
     10 C3         5.8312    2.5592   -0.7565 C.ar      1 RES1    0.0000
     11 C4         6.2751    2.0306    0.4979 C.ar      1 RES1    0.0000
     12 C5         5.2911    0.3079   -1.4958 C.ar      1 RES1    0.0000
     13 C6         5.6233    1.6446   -1.8826 C.ar      1 RES1    0.0000
     14 C7         5.5480    3.9320   -0.8494 C.ar      1 RES1    0.0000
     15 C8         6.0520    0.9717   -4.2129 C.3       1 RES1    0.0000
     16 C9         6.4632    2.9347    1.5557 C.ar      1 RES1    0.0000
     17 C10        5.7452    4.7745    0.2148 C.ar      1 RES1    0.0000
     18 C11        6.3051    3.3042   -3.6338 C.3       1 RES1    0.0000
     19 C12        7.1064    1.5950   -5.0869 C.3       1 RES1    0.0000
     20 C13        6.2155    4.2699    1.4071 C.ar      1 RES1    0.0000
     21 C14        6.7771    3.0534   -5.0570 C.3       1 RES1    0.0000
     22 H1         6.7374    2.5532    2.4147 H         1 RES1    0.0000
     23 H2         5.1919    4.2954   -1.6561 H         1 RES1    0.0000
     24 H3         6.3673    0.1352   -3.7823 H         1 RES1    0.0000
     25 H4         7.0440    3.6046   -3.0451 H         1 RES1    0.0000
     26 H5         6.2549    4.8812    2.1689 H         1 RES1    0.0000
     27 H6         5.5560    3.9500   -3.6434 H         1 RES1    0.0000
     28 H7         5.1707    0.7509   -4.6798 H         1 RES1    0.0000
     29 H8         5.7907   -1.0513   -0.1816 H         1 RES1    0.0000
     30 H9         8.0591    1.5470   -4.6584 H         1 RES1    0.0000
     31 H10        5.5019    5.7373    0.0748 H         1 RES1    0.0000
     32 H11        7.2276    1.1865   -6.0047 H         1 RES1    0.0000
     33 H12        5.9555    3.0639   -5.6841 H         1 RES1    0.0000
     34 H13        7.4246    3.6646   -5.2995 H         1 RES1    0.0000
@<TRIPOS>BOND
     1    1   13 1
     2    2    4 2
     3    3    5 2
     4    6    3 2
     5    7    2 2
     6    8    9 ar
     7    9    3 1
     8   10   11 ar
     9   11    9 ar
    10   12    2 1
    11   13   10 ar
    12   14   10 ar
    13   15    1 1
    14   16   11 ar
    15   17   14 ar
    16   18    1 1
    17   19   15 1
    18   20   16 ar
    19   21   18 1
    20   22   16 1
    21   23   14 1
    22   24   15 1
    23   25   18 1
    24   26   20 1
    25   27   18 1
    26   28   15 1
    27   29    8 1
    28   30   19 1
    29   31   17 1
    30   32   19 1
    31   33   21 1
    32   34   21 1
    33    8   12 ar
    34   12   13 ar
    35   17   20 ar
    36   19   21 1
@<TRIPOS>SUBSTRUCTURE
     1 RES1 1

@<TRIPOS>CRYSIN
  16.0540   15.0190   10.7050  90.0000  93.5500  90.0000  15 2

