# MOL2 file generated by ConQuest
# Please check atom types

@<TRIPOS>MOLECULE
WAPQUA
    47    48     1
SMALL
NO_CHARGES
****
Generated from CSD

@<TRIPOS>ATOM
      1 C1         0.4421    2.6934   10.8331 C.3       1 RES1    0.0000
      2 C2         1.5729    2.6934   11.8363 C.3       1 RES1    0.0000
      3 H1         1.2081    2.6934   12.7020 H         1 RES1    0.0000
      4 H2         2.1199    1.8746   11.6618 H         1 RES1    0.0000
      5 C3        -0.3993    1.4588   10.9614 C.3       1 RES1    0.0000
      6 H3        -1.1057    1.4835   10.3119 H         1 RES1    0.0000
      7 H4        -0.7764    1.4178   11.8433 H         1 RES1    0.0000
      8 H5         0.1460    0.6831   10.8112 H         1 RES1    0.0000
      9 C4         0.5078    2.6934    8.3725 C.2       1 RES1    0.0000
     10 C5         1.1437    2.6934    5.9696 C.3       1 RES1    0.0000
     11 C6         2.4755    2.6934    5.2680 C.2       1 RES1    0.0000
     12 N1         1.0043    2.6934    3.4145 N.3       1 RES1    0.0000
     13 C7         0.4319    1.4011    3.9390 C.3       1 RES1    0.0000
     14 C8         1.3398    0.2693    3.4568 C.3       1 RES1    0.0000
     15 H6         1.4525    0.3329    2.5057 H         1 RES1    0.0000
     16 H7         0.9417   -0.5764    3.6765 H         1 RES1    0.0000
     17 H8         2.1960    0.3404    3.8857 H         1 RES1    0.0000
     18 C9        -0.9449    1.1593    3.3244 C.3       1 RES1    0.0000
     19 H9        -0.9140    1.3510    2.3844 H         1 RES1    0.0000
     20 H10       -1.5895    1.7313    3.7470 H         1 RES1    0.0000
     21 H11       -1.1972    0.2424    3.4558 H         1 RES1    0.0000
     22 C10        0.3827    1.4514    5.4846 C.3       1 RES1    0.0000
     23 H12       -0.5393    1.4922    5.7835 H         1 RES1    0.0000
     24 H13        0.7875    0.6507    5.8540 H         1 RES1    0.0000
     25 N2         1.4305    2.6934    7.3917 N.am      1 RES1    0.0000
     26 H14        2.2302    2.6934    7.6281 H         1 RES1    0.0000
     27 O1         1.1486    2.6934    9.5547 O.3       1 RES1    0.0000
     28 O2        -0.6844    2.6934    8.2085 O.2       1 RES1    0.0000
     29 O3         2.4003    2.6934    3.9280 O.3       1 RES1    0.0000
     30 O4         3.5588    2.6934    5.7987 O.2       1 RES1    0.0000
     31 H2C        2.1199    3.5122   11.6618 H         1 RES1    0.0000
     32 C3C       -0.3993    3.9281   10.9614 C.3       1 RES1    0.0000
     33 H3C       -1.1057    3.9033   10.3119 H         1 RES1    0.0000
     34 H4C       -0.7764    3.9690   11.8433 H         1 RES1    0.0000
     35 H5C        0.1460    4.7038   10.8112 H         1 RES1    0.0000
     36 C7C        0.4319    3.9857    3.9390 C.3       1 RES1    0.0000
     37 C8C        1.3398    5.1175    3.4568 C.3       1 RES1    0.0000
     38 H6C        1.4525    5.0539    2.5057 H         1 RES1    0.0000
     39 H7C        0.9417    5.9632    3.6765 H         1 RES1    0.0000
     40 H8C        2.1960    5.0464    3.8857 H         1 RES1    0.0000
     41 C9C       -0.9449    4.2276    3.3244 C.3       1 RES1    0.0000
     42 H9C       -0.9140    4.0358    2.3844 H         1 RES1    0.0000
     43 H10C      -1.5895    3.6555    3.7470 H         1 RES1    0.0000
     44 H11C      -1.1972    5.1444    3.4558 H         1 RES1    0.0000
     45 C10C       0.3827    3.9354    5.4846 C.3       1 RES1    0.0000
     46 H12C      -0.5393    3.8947    5.7835 H         1 RES1    0.0000
     47 H13C       0.7875    4.7361    5.8540 H         1 RES1    0.0000
@<TRIPOS>BOND
     1    1    2 1
     2    2    3 1
     3    4    2 1
     4    5    1 1
     5    6    5 1
     6    7    5 1
     7    8    5 1
     8    9   25 1
     9   10   11 1
    10   11   29 1
    11   12   13 1
    12   13   14 1
    13   14   15 1
    14   16   14 1
    15   17   14 1
    16   18   13 1
    17   19   18 1
    18   20   18 1
    19   21   18 1
    20   22   10 1
    21   23   22 1
    22   24   22 1
    23   25   10 1
    24   26   25 1
    25   27    1 1
    26   28    9 2
    27   29   12 1
    28   30   11 2
    29   31    2 1
    30   32    1 1
    31   33   32 1
    32   34   32 1
    33   35   32 1
    34   36   12 1
    35   37   36 1
    36   38   37 1
    37   39   37 1
    38   40   37 1
    39   41   36 1
    40   42   41 1
    41   43   41 1
    42   44   41 1
    43   45   10 1
    44   46   45 1
    45   47   45 1
    46    9   27 1
    47   13   22 1
    48   36   45 1
@<TRIPOS>SUBSTRUCTURE
     1 RES1 1

@<TRIPOS>CRYSIN
   6.6243   10.7737   11.6880  90.0000  98.5600  90.0000  11 1

