# MOL2 file generated by ConQuest
# Please check atom types

@<TRIPOS>MOLECULE
WAPTAJ
    36    38     1
SMALL
NO_CHARGES
****
Generated from CSD

@<TRIPOS>ATOM
      1 O1         3.9804    3.7584    8.4753 O.3       1 RES1    0.0000
      2 O2         1.4666    1.1650   16.2103 O.2       1 RES1    0.0000
      3 O3         0.5402    3.1226   16.0810 O.2       1 RES1    0.0000
      4 O4         1.9951    2.1580    7.6560 O.3       1 RES1    0.0000
      5 H1         1.4797    1.5295    7.5106 H         1 RES1    0.0000
      6 N1         3.3950    3.9286    9.7552 N.2       1 RES1    0.0000
      7 N2         1.2314    2.2200   15.6183 N.pl3     1 RES1    0.0000
      8 C1         4.2805    2.3316    8.2632 C.3       1 RES1    0.0000
      9 H2         5.2232    2.2188    7.9490 H         1 RES1    0.0000
     10 C2         4.1055    1.7008    9.6403 C.3       1 RES1    0.0000
     11 H3         3.5232    0.9021    9.6005 H         1 RES1    0.0000
     12 H4         4.9773    1.4519   10.0389 H         1 RES1    0.0000
     13 C3         3.4557    2.8172   10.3988 C.2       1 RES1    0.0000
     14 C4         3.3044    1.7818    7.2226 C.3       1 RES1    0.0000
     15 H5         3.3606    0.7837    7.2451 H         1 RES1    0.0000
     16 C5         3.6113    2.2328    5.8097 C.ar      1 RES1    0.0000
     17 C6         4.4180    1.4301    5.0108 C.ar      1 RES1    0.0000
     18 H6         4.7413    0.6084    5.3621 H         1 RES1    0.0000
     19 C7         4.7638    1.7935    3.7207 C.ar      1 RES1    0.0000
     20 H7         5.3126    1.2247    3.1950 H         1 RES1    0.0000
     21 C8         4.3027    2.9942    3.2040 C.ar      1 RES1    0.0000
     22 H8         4.5443    3.2599    2.3245 H         1 RES1    0.0000
     23 C9         3.4878    3.8047    3.9773 C.ar      1 RES1    0.0000
     24 H9         3.1632    4.6230    3.6210 H         1 RES1    0.0000
     25 C10        3.1403    3.4335    5.2701 C.ar      1 RES1    0.0000
     26 H10        2.5797    3.9973    5.7912 H         1 RES1    0.0000
     27 C11        2.9044    2.7050   11.7605 C.ar      1 RES1    0.0000
     28 C12        3.2124    1.5769   12.5294 C.ar      1 RES1    0.0000
     29 H11        3.7925    0.9110   12.1812 H         1 RES1    0.0000
     30 C13        2.6748    1.4262   13.7985 C.ar      1 RES1    0.0000
     31 H12        2.8835    0.6620   14.3236 H         1 RES1    0.0000
     32 C14        1.8345    2.4025   14.2878 C.ar      1 RES1    0.0000
     33 C15        1.5204    3.5451   13.5558 C.ar      1 RES1    0.0000
     34 H13        0.9484    4.2116   13.9192 H         1 RES1    0.0000
     35 C16        2.0594    3.6880   12.2908 C.ar      1 RES1    0.0000
     36 H14        1.8557    4.4606   11.7768 H         1 RES1    0.0000
@<TRIPOS>BOND
     1    1    6 1
     2    2    7 2
     3    3    7 2
     4    4    5 1
     5    6   13 2
     6    7   32 1
     7    8    1 1
     8    9    8 1
     9   10    8 1
    10   11   10 1
    11   12   10 1
    12   13   10 1
    13   14    4 1
    14   15   14 1
    15   16   14 1
    16   17   16 ar
    17   18   17 1
    18   19   17 ar
    19   20   19 1
    20   21   19 ar
    21   22   21 1
    22   23   21 ar
    23   24   23 1
    24   25   16 ar
    25   26   25 1
    26   27   13 1
    27   28   27 ar
    28   29   28 1
    29   30   28 ar
    30   31   30 1
    31   32   30 ar
    32   33   32 ar
    33   34   33 1
    34   35   27 ar
    35   36   35 1
    36    8   14 1
    37   23   25 ar
    38   33   35 ar
@<TRIPOS>SUBSTRUCTURE
     1 RES1 1

@<TRIPOS>CRYSIN
   7.9740    5.5820   30.9140  90.0000  93.0650  90.0000 231 1

