# MOL2 file generated by ConQuest
# Please check atom types

@<TRIPOS>MOLECULE
WAPWAN
    46    48     1
SMALL
NO_CHARGES
****
Generated from CSD

@<TRIPOS>ATOM
      1 O1        21.7761   10.1230    5.6742 O.3       1 RES1    0.0000
      2 O2        24.0725    5.7849    2.3969 O.3       1 RES1    0.0000
      3 O3        24.1790    7.9496    2.0784 O.2       1 RES1    0.0000
      4 N1        21.8769    8.7913    5.1946 N.2       1 RES1    0.0000
      5 C1        15.6413   11.6888    6.3392 C.3       1 RES1    0.0000
      6 H1        15.6073   10.7969    5.9834 H         1 RES1    0.0000
      7 H2        15.9424   12.2919    5.6572 H         1 RES1    0.0000
      8 H3        14.7660   11.9506    6.6323 H         1 RES1    0.0000
      9 C2        16.6148   11.7288    7.5274 C.3       1 RES1    0.0000
     10 C3        17.9992   11.3027    7.0339 C.ar      1 RES1    0.0000
     11 C4        19.1409   12.0576    7.2244 C.ar      1 RES1    0.0000
     12 H4        19.0741   12.8726    7.6664 H         1 RES1    0.0000
     13 C5        20.3846   11.6356    6.7760 C.ar      1 RES1    0.0000
     14 H5        21.1377   12.1598    6.9243 H         1 RES1    0.0000
     15 C6        20.4956   10.4354    6.1106 C.ar      1 RES1    0.0000
     16 C7        23.0175    8.6275    4.6266 C.2       1 RES1    0.0000
     17 C8        23.2435    7.2381    4.1487 C.2       1 RES1    0.0000
     18 C9        22.8901    6.1534    4.8648 C.2       1 RES1    0.0000
     19 H6        22.5177    6.2696    5.7087 H         1 RES1    0.0000
     20 C10       23.0716    4.8263    4.3611 C.ar      1 RES1    0.0000
     21 C11       22.6770    3.6622    5.0358 C.ar      1 RES1    0.0000
     22 H7        22.3012    3.7239    5.8841 H         1 RES1    0.0000
     23 C12       22.8424    2.4291    4.4496 C.ar      1 RES1    0.0000
     24 H8        22.5703    1.6606    4.8991 H         1 RES1    0.0000
     25 C13       23.4107    2.3307    3.1941 C.ar      1 RES1    0.0000
     26 H9        23.5083    1.4938    2.8004 H         1 RES1    0.0000
     27 C14       16.6050   13.1454    8.0859 C.3       1 RES1    0.0000
     28 H10       15.7180   13.3695    8.3741 H         1 RES1    0.0000
     29 H11       16.8846   13.7600    7.4026 H         1 RES1    0.0000
     30 H12       17.2082   13.1994    8.8304 H         1 RES1    0.0000
     31 C15       16.1547   10.7690    8.6023 C.3       1 RES1    0.0000
     32 H13       16.7736   10.7880    9.3358 H         1 RES1    0.0000
     33 H14       16.1141    9.8794    8.2417 H         1 RES1    0.0000
     34 H15       15.2841   11.0286    8.9126 H         1 RES1    0.0000
     35 C16       18.1589   10.1012    6.3551 C.ar      1 RES1    0.0000
     36 H16       17.4104    9.5706    6.2079 H         1 RES1    0.0000
     37 C17       19.3850    9.6576    5.8877 C.ar      1 RES1    0.0000
     38 H17       19.4543    8.8499    5.4327 H         1 RES1    0.0000
     39 C18       23.6589    4.6838    3.1054 C.ar      1 RES1    0.0000
     40 C19       23.8561    7.0681    2.8293 C.2       1 RES1    0.0000
     41 C20       23.8335    3.4484    2.5186 C.ar      1 RES1    0.0000
     42 H18       24.2313    3.3737    1.6805 H         1 RES1    0.0000
     43 C21       24.0431    9.6922    4.4499 C.3       1 RES1    0.0000
     44 H19       23.7594   10.2990    3.7633 H         1 RES1    0.0000
     45 H20       24.8789    9.2930    4.1987 H         1 RES1    0.0000
     46 H21       24.1521   10.1714    5.2745 H         1 RES1    0.0000
@<TRIPOS>BOND
     1    1    4 1
     2    2   39 1
     3    3   40 2
     4    4   16 2
     5    5    6 1
     6    7    5 1
     7    8    5 1
     8    9    5 1
     9   10    9 1
    10   11   10 ar
    11   12   11 1
    12   13   11 ar
    13   14   13 1
    14   15    1 1
    15   16   17 1
    16   17   18 2
    17   18   19 1
    18   20   18 1
    19   21   20 ar
    20   22   21 1
    21   23   21 ar
    22   24   23 1
    23   25   23 ar
    24   26   25 1
    25   27    9 1
    26   28   27 1
    27   29   27 1
    28   30   27 1
    29   31    9 1
    30   32   31 1
    31   33   31 1
    32   34   31 1
    33   35   10 ar
    34   36   35 1
    35   37   15 ar
    36   38   37 1
    37   39   20 ar
    38   40    2 1
    39   41   25 ar
    40   42   41 1
    41   43   16 1
    42   44   43 1
    43   45   43 1
    44   46   43 1
    45   13   15 ar
    46   17   40 1
    47   35   37 ar
    48   39   41 ar
@<TRIPOS>SUBSTRUCTURE
     1 RES1 1

@<TRIPOS>CRYSIN
  26.9794   11.1897   13.5271  90.0000 114.9350  90.0000  15 1

