# MOL2 file generated by ConQuest
# Please check atom types

@<TRIPOS>MOLECULE
WAQHED
    20    19     1
SMALL
NO_CHARGES
****
Generated from CSD

@<TRIPOS>ATOM
      1 N1        -0.3533    5.4503    1.8522 N.3       1 RES1    0.0000
      2 N2         0.5196    6.4391    1.9527 N.2       1 RES1    0.0000
      3 C1        -0.0590    4.2874    2.6530 C.3       1 RES1    0.0000
      4 H1         0.8909    4.2654    2.8485 H         1 RES1    0.0000
      5 H2        -0.2789    3.4878    2.1496 H         1 RES1    0.0000
      6 O1         0.1595    7.4479    1.3688 O.2       1 RES1    0.0000
      7 C2        -1.5998    5.5974    1.1428 C.3       1 RES1    0.0000
      8 H3        -2.2146    6.1038    1.6779 H         1 RES1    0.0000
      9 H4        -1.9709    4.7297    0.9645 H         1 RES1    0.0000
     10 H5        -1.4448    6.0558    0.3144 H         1 RES1    0.0000
     11 N1A       -0.5410    5.4503    4.7538 N.3       1 RES1    0.0000
     12 N2A       -1.4140    6.4391    4.6533 N.2       1 RES1    0.0000
     13 C1A       -0.8353    4.2874    3.9531 C.3       1 RES1    0.0000
     14 H1A       -1.7852    4.2654    3.7575 H         1 RES1    0.0000
     15 H2A       -0.6155    3.4878    4.4564 H         1 RES1    0.0000
     16 O1A       -1.0538    7.4479    5.2373 O.2       1 RES1    0.0000
     17 C2A        0.7055    5.5974    5.4632 C.3       1 RES1    0.0000
     18 H3A        1.3203    6.1038    4.9281 H         1 RES1    0.0000
     19 H4A        1.0765    4.7297    5.6416 H         1 RES1    0.0000
     20 H5A        0.5505    6.0558    6.2916 H         1 RES1    0.0000
@<TRIPOS>BOND
     1    1    2 1
     2    2    6 2
     3    3    1 1
     4    4    3 1
     5    5    3 1
     6    7    1 1
     7    8    7 1
     8    9    7 1
     9   10    7 1
    10   11   12 1
    11   12   16 2
    12   13    3 1
    13   14   13 1
    14   15   13 1
    15   17   11 1
    16   18   17 1
    17   19   17 1
    18   20   17 1
    19   11   13 1
@<TRIPOS>SUBSTRUCTURE
     1 RES1 1

@<TRIPOS>CRYSIN
   5.7944   10.0079   13.3326  90.0000  97.7100  90.0000  15 1

