# MOL2 file generated by ConQuest
# Please check atom types

@<TRIPOS>MOLECULE
WARVOC
    37    38     1
SMALL
NO_CHARGES
****
Generated from CSD

@<TRIPOS>ATOM
      1 C1         0.8196   11.6884   12.0033 C.3       1 RES1    0.0000
      2 H1         0.1799   11.7112   11.2614 H         1 RES1    0.0000
      3 C2         0.0762   11.7935   13.2924 C.2       1 RES1    0.0000
      4 H2        -0.3951   11.0474   13.5844 H         1 RES1    0.0000
      5 C3         0.0436   12.8799   14.0461 C.2       1 RES1    0.0000
      6 H3        -0.4332   12.8481   14.8433 H         1 RES1    0.0000
      7 C4         0.7328   14.1550   13.6818 C.3       1 RES1    0.0000
      8 H4         1.5216   14.2599   14.2369 H         1 RES1    0.0000
      9 H5         0.1392   14.9012   13.8633 H         1 RES1    0.0000
     10 C5         1.1479   14.1882   12.2059 C.3       1 RES1    0.0000
     11 H6         0.3223   14.2486   11.6810 H         1 RES1    0.0000
     12 C6         1.7926   12.8513   11.8612 C.3       1 RES1    0.0000
     13 H7         2.5372   12.7022   12.4808 H         1 RES1    0.0000
     14 C7         1.9866   15.3947   11.8441 C.ar      1 RES1    0.0000
     15 C8         1.6118   16.1746   10.7615 C.ar      1 RES1    0.0000
     16 H8         0.8689   15.9315   10.2577 H         1 RES1    0.0000
     17 C9         2.3284   17.3140   10.4169 C.ar      1 RES1    0.0000
     18 C10        3.4438   17.6876   11.1680 C.ar      1 RES1    0.0000
     19 C11        3.8391   16.9132   12.2243 C.ar      1 RES1    0.0000
     20 H9         4.5901   17.1489   12.7202 H         1 RES1    0.0000
     21 C12        3.1100   15.7651   12.5571 C.ar      1 RES1    0.0000
     22 H10        3.3879   15.2397   13.2740 H         1 RES1    0.0000
     23 C13        0.9628   17.7622    8.5016 C.3       1 RES1    0.0000
     24 H11        1.1329   16.8815    8.1596 H         1 RES1    0.0000
     25 H12        0.9154   18.3849    7.7742 H         1 RES1    0.0000
     26 H13        0.1298   17.7622    8.9791 H         1 RES1    0.0000
     27 C14        5.1261   19.3628   11.5324 C.3       1 RES1    0.0000
     28 H14        4.8146   19.5348   12.4229 H         1 RES1    0.0000
     29 H15        5.4528   20.1781   11.1443 H         1 RES1    0.0000
     30 H16        5.8345   18.7158   11.5600 H         1 RES1    0.0000
     31 N1         2.3463   12.8787   10.4642 N.pl3     1 RES1    0.0000
     32 O1         1.4911   10.4554   11.9954 O.3       1 RES1    0.0000
     33 H17        1.5940   10.2059   11.2219 H         1 RES1    0.0000
     34 O2         1.5825   13.0214    9.5342 O.2       1 RES1    0.0000
     35 O3         3.5421   12.7583   10.3235 O.2       1 RES1    0.0000
     36 O4         2.0130   18.1390    9.3816 O.3       1 RES1    0.0000
     37 O5         4.0471   18.8561   10.7378 O.3       1 RES1    0.0000
@<TRIPOS>BOND
     1    1    2 1
     2    3    1 1
     3    4    3 1
     4    5    3 2
     5    6    5 1
     6    7    5 1
     7    8    7 1
     8    9    7 1
     9   10    7 1
    10   11   10 1
    11   12    1 1
    12   13   12 1
    13   14   10 1
    14   15   14 ar
    15   16   15 1
    16   17   15 ar
    17   18   17 ar
    18   19   18 ar
    19   20   19 1
    20   21   14 ar
    21   22   21 1
    22   23   24 1
    23   25   23 1
    24   26   23 1
    25   27   28 1
    26   29   27 1
    27   30   27 1
    28   31   12 1
    29   32    1 1
    30   33   32 1
    31   34   31 2
    32   35   31 2
    33   36   17 1
    34   37   18 1
    35   10   12 1
    36   19   21 ar
    37   23   36 1
    38   27   37 1
@<TRIPOS>SUBSTRUCTURE
     1 RES1 1

@<TRIPOS>CRYSIN
   5.6170   18.6990   13.3630  90.0000 100.1400  90.0000 231 1

