# MOL2 file generated by ConQuest
# Please check atom types

@<TRIPOS>MOLECULE
WASHOO
    42    44     1
SMALL
NO_CHARGES
****
Generated from CSD

@<TRIPOS>ATOM
      1 O1        19.1780    0.5356    6.7580 O.2       1 RES1    0.0000
      2 N1        19.1780    1.8251    6.7580 N.3       1 RES1    0.0000
      3 C1        16.6072    1.8287   10.1217 C.ar      1 RES1    0.0000
      4 C2        17.0891    2.5736    7.8835 C.ar      1 RES1    0.0000
      5 O2        16.8989    1.1079   11.2512 O.3       1 RES1    0.0000
      6 C3        17.9368    2.6102    6.6075 C.3       1 RES1    0.0000
      7 C4        17.4180    1.8010    8.9945 C.ar      1 RES1    0.0000
      8 C5        15.9444    3.3480    7.9348 C.ar      1 RES1    0.0000
      9 C6        15.4657    2.5977   10.1469 C.ar      1 RES1    0.0000
     10 C7        18.5271    4.0016    6.3760 C.3       1 RES1    0.0000
     11 C8        17.1330    2.1014    5.4073 C.3       1 RES1    0.0000
     12 C9        15.1418    3.3605    9.0549 C.ar      1 RES1    0.0000
     13 H1        17.5728    0.6599   11.1228 H         1 RES1    0.0000
     14 H2        18.1788    1.2671    8.9810 H         1 RES1    0.0000
     15 H3        15.7125    3.8693    7.2005 H         1 RES1    0.0000
     16 H4        14.9186    2.5995   10.8993 H         1 RES1    0.0000
     17 H5        18.6832    4.1563    5.4316 H         1 RES1    0.0000
     18 H6        17.9314    4.6884    6.7130 H         1 RES1    0.0000
     19 H7        17.7090    2.0352    4.6414 H         1 RES1    0.0000
     20 H8        16.4183    2.7122    5.2190 H         1 RES1    0.0000
     21 H9        16.7692    1.2358    5.6101 H         1 RES1    0.0000
     22 H10       14.3758    3.8881    9.0693 H         1 RES1    0.0000
     23 C1C       21.7488    1.8287    3.3943 C.ar      1 RES1    0.0000
     24 C2C       21.2669    2.5736    5.6326 C.ar      1 RES1    0.0000
     25 O2C       21.4571    1.1079    2.2648 O.3       1 RES1    0.0000
     26 C3C       20.4192    2.6102    6.9085 C.3       1 RES1    0.0000
     27 C4C       20.9380    1.8010    4.5216 C.ar      1 RES1    0.0000
     28 C5C       22.4116    3.3480    5.5812 C.ar      1 RES1    0.0000
     29 C6C       22.8903    2.5977    3.3691 C.ar      1 RES1    0.0000
     30 C7C       19.8289    4.0016    7.1401 C.3       1 RES1    0.0000
     31 C8C       21.2230    2.1014    8.1087 C.3       1 RES1    0.0000
     32 C9C       23.2142    3.3605    4.4612 C.ar      1 RES1    0.0000
     33 H1C       20.7832    0.6599    2.3932 H         1 RES1    0.0000
     34 H2C       20.1772    1.2671    4.5351 H         1 RES1    0.0000
     35 H3C       22.6435    3.8693    6.3156 H         1 RES1    0.0000
     36 H4C       23.4374    2.5995    2.6167 H         1 RES1    0.0000
     37 H5C       19.6728    4.1563    8.0844 H         1 RES1    0.0000
     38 H6C       20.4246    4.6884    6.8031 H         1 RES1    0.0000
     39 H7C       20.6470    2.0352    8.8746 H         1 RES1    0.0000
     40 H8C       21.9377    2.7122    8.2971 H         1 RES1    0.0000
     41 H9C       21.5868    1.2358    7.9060 H         1 RES1    0.0000
     42 H10C      23.9802    3.8881    4.4468 H         1 RES1    0.0000
@<TRIPOS>BOND
     1    1    2 1
     2    2    6 1
     3    3    5 1
     4    4    6 1
     5    5   13 1
     6    6   10 1
     7    7    3 ar
     8    8    4 ar
     9    9    3 ar
    10   10   17 1
    11   11    6 1
    12   12    8 ar
    13   14    7 1
    14   15    8 1
    15   16    9 1
    16   18   10 1
    17   19   11 1
    18   20   11 1
    19   21   11 1
    20   22   12 1
    21   23   25 1
    22   24   26 1
    23   25   33 1
    24   26    2 1
    25   27   23 ar
    26   28   24 ar
    27   29   23 ar
    28   30   10 1
    29   31   26 1
    30   32   28 ar
    31   34   27 1
    32   35   28 1
    33   36   29 1
    34   37   30 1
    35   38   30 1
    36   39   31 1
    37   40   31 1
    38   41   31 1
    39   42   32 1
    40    4    7 ar
    41    9   12 ar
    42   24   27 ar
    43   26   30 1
    44   29   32 ar
@<TRIPOS>SUBSTRUCTURE
     1 RES1 1

@<TRIPOS>CRYSIN
  19.1780    8.9422    9.0107  90.0000  90.0000  90.0000  60 1

