# MOL2 file generated by ConQuest
# Please check atom types

@<TRIPOS>MOLECULE
WASRAJ
    20    20     1
SMALL
NO_CHARGES
****
Generated from CSD

@<TRIPOS>ATOM
      1 O1         1.5124    0.2000    9.7849 O.2       1 RES1    0.0000
      2 O2        -0.1564    1.3950   10.4292 O.2       1 RES1    0.0000
      3 O3         3.8851    1.1695    5.7789 O.2       1 RES1    0.0000
      4 O4         3.2635    2.8307    4.5455 O.2       1 RES1    0.0000
      5 N1        -0.6029    3.7502    9.3700 N.3       1 RES1    0.0000
      6 N2        -1.2064    5.0092    9.2227 N.3       1 RES1    0.0000
      7 N3         0.7876    1.1753    9.6602 N.pl3     1 RES1    0.0000
      8 N4         3.1876    2.1541    5.5622 N.pl3     1 RES1    0.0000
      9 C1         0.3082    3.3352    8.4694 C.ar      1 RES1    0.0000
     10 C2         1.0171    2.1065    8.5826 C.ar      1 RES1    0.0000
     11 C3         1.9672    1.7356    7.6396 C.ar      1 RES1    0.0000
     12 C4         2.2146    2.5517    6.5733 C.ar      1 RES1    0.0000
     13 C5         1.5211    3.7398    6.4133 C.ar      1 RES1    0.0000
     14 C6         0.6070    4.1304    7.3379 C.ar      1 RES1    0.0000
     15 H1        -0.7562    3.1969   10.0256 H         1 RES1    0.0000
     16 H2        -1.0331    5.5568    9.9265 H         1 RES1    0.0000
     17 H3        -2.0698    4.8476    9.3459 H         1 RES1    0.0000
     18 H4         2.4268    0.9416    7.7033 H         1 RES1    0.0000
     19 H5         1.7495    4.3129    5.7350 H         1 RES1    0.0000
     20 H6         0.2060    4.9174    7.3068 H         1 RES1    0.0000
@<TRIPOS>BOND
     1    1    7 2
     2    2    7 2
     3    3    8 2
     4    4    8 2
     5    5    6 1
     6    6   16 1
     7    7   10 1
     8    8   12 1
     9    9    5 1
    10   10    9 ar
    11   11   10 ar
    12   12   11 ar
    13   13   12 ar
    14   14    9 ar
    15   15    5 1
    16   17    6 1
    17   18   11 1
    18   19   13 1
    19   20   14 1
    20   13   14 ar
@<TRIPOS>SUBSTRUCTURE
     1 RES1 1

@<TRIPOS>CRYSIN
   4.8190   11.6250   14.2680  90.0000  97.0400  90.0000  14 1

