# MOL2 file generated by ConQuest
# Please check atom types

@<TRIPOS>MOLECULE
WASRAJ02
    20    20     1
SMALL
NO_CHARGES
****
Generated from CSD

@<TRIPOS>ATOM
      1 C1         0.0149    0.2897    4.4141 C.ar      1 RES1    0.0000
      2 C2         0.5312    0.7876    5.6486 C.ar      1 RES1    0.0000
      3 C3         0.6357    2.1519    5.9111 C.ar      1 RES1    0.0000
      4 C4         0.2688    3.0439    4.9308 C.ar      1 RES1    0.0000
      5 C5        -0.1979    2.6169    3.6746 C.ar      1 RES1    0.0000
      6 C6        -0.3343    1.2738    3.4339 C.ar      1 RES1    0.0000
      7 N1         0.9600   -0.0901    6.7108 N.pl3     1 RES1    0.0000
      8 N2         0.3825    4.4640    5.2241 N.pl3     1 RES1    0.0000
      9 N3        -0.1550   -1.0126    4.1535 N.3       1 RES1    0.0000
     10 N4        -0.7037   -1.4219    2.9114 N.3       1 RES1    0.0000
     11 O1         0.9419   -1.3195    6.5252 O.2       1 RES1    0.0000
     12 O2         1.3202    0.3999    7.7885 O.2       1 RES1    0.0000
     13 O3         0.7458    4.8068    6.3453 O.2       1 RES1    0.0000
     14 O4         0.1082    5.2643    4.3297 O.2       1 RES1    0.0000
     15 H1         1.0116    2.4600    6.7870 H         1 RES1    0.0000
     16 H2         0.0603   -1.4870    4.7765 H         1 RES1    0.0000
     17 H3        -0.4544    3.2127    2.9709 H         1 RES1    0.0000
     18 H4        -1.5841   -1.5696    3.0478 H         1 RES1    0.0000
     19 H5        -0.3030   -2.3223    2.7020 H         1 RES1    0.0000
     20 H6        -0.7011    1.0097    2.6508 H         1 RES1    0.0000
@<TRIPOS>BOND
     1    1    2 ar
     2    2    3 ar
     3    3    4 ar
     4    4    5 ar
     5    5    6 ar
     6    6    1 ar
     7    7    2 1
     8    8    4 1
     9    9    1 1
    10   10    9 1
    11   11    7 2
    12   12    7 2
    13   13    8 2
    14   14    8 2
    15   15    3 1
    16   16    9 1
    17   17    5 1
    18   18   10 1
    19   19   10 1
    20   20    6 1
@<TRIPOS>SUBSTRUCTURE
     1 RES1 1

@<TRIPOS>CRYSIN
  12.6970    9.1790    7.6620  90.0000 123.3150  90.0000   9 1

