# MOL2 file generated by ConQuest
# Please check atom types

@<TRIPOS>MOLECULE
WASTIT
    59    60     1
SMALL
NO_CHARGES
****
Generated from CSD

@<TRIPOS>ATOM
      1 N1        -4.4817    0.0152    0.5239 N.3       1 RES1    0.0000
      2 C1        -3.6240    0.8211    1.2461 C.2       1 RES1    0.0000
      3 C2        -3.3974    0.5187    2.5490 C.2       1 RES1    0.0000
      4 C3        -4.2009   -0.5865    3.2283 C.3       1 RES1    0.0000
      5 C4        -4.6683   -1.6120    2.2158 C.2       1 RES1    0.0000
      6 C5        -4.8591   -1.2425    0.9247 C.2       1 RES1    0.0000
      7 C6        -5.3806   -0.0048    4.0083 C.ar      1 RES1    0.0000
      8 C7        -5.4070   -0.0527    5.3980 C.ar      1 RES1    0.0000
      9 C8        -6.4729    0.5283    6.0687 C.ar      1 RES1    0.0000
     10 C9        -7.5305    1.1268    5.4205 C.ar      1 RES1    0.0000
     11 C10       -7.5168    1.1300    4.0469 C.ar      1 RES1    0.0000
     12 C11       -6.4568    0.5849    3.3483 C.ar      1 RES1    0.0000
     13 N2        -6.4773    0.4892    7.5387 N.pl3     1 RES1    0.0000
     14 O1        -7.3355    1.0925    8.1366 O.2       1 RES1    0.0000
     15 O2        -5.6113   -0.1492    8.1087 O.2       1 RES1    0.0000
     16 C12       -2.4086    1.1587    3.4201 C.2       1 RES1    0.0000
     17 O3        -2.2074    0.8060    4.5558 O.2       1 RES1    0.0000
     18 O4        -1.7445    2.1825    2.8758 O.3       1 RES1    0.0000
     19 C13       -0.7245    2.8090    3.7072 C.3       1 RES1    0.0000
     20 C14       -0.2378    4.0243    2.9593 C.3       1 RES1    0.0000
     21 C15       -1.2667    5.1064    2.9926 C.3       1 RES1    0.0000
     22 O5        -0.8092    6.2954    2.2940 O.3       1 RES1    0.0000
     23 N3        -1.0572    6.3497    0.9439 N.pl3     1 RES1    0.0000
     24 O6        -0.6313    7.3376    0.4372 O.2       1 RES1    0.0000
     25 O7        -1.7347    5.4567    0.4725 O.2       1 RES1    0.0000
     26 C16       -4.9310   -2.9733    2.6776 C.2       1 RES1    0.0000
     27 O8        -5.3126   -3.9182    2.0325 O.2       1 RES1    0.0000
     28 O9        -4.6546   -3.0819    3.9944 O.3       1 RES1    0.0000
     29 C17       -4.8013   -4.3978    4.5837 C.3       1 RES1    0.0000
     30 C18       -4.1397   -4.3659    5.9219 C.3       1 RES1    0.0000
     31 O10       -4.7928   -3.4609    6.7651 O.3       1 RES1    0.0000
     32 C19       -4.4771   -3.6070    8.1195 C.3       1 RES1    0.0000
     33 C20       -5.4522   -2.0740   -0.1779 C.3       1 RES1    0.0000
     34 C21       -3.0419    1.9447    0.4372 C.3       1 RES1    0.0000
     35 H1        -4.6616    0.2314   -0.2571 H         1 RES1    0.0000
     36 H2        -3.6492   -1.0214    3.8572 H         1 RES1    0.0000
     37 H3        -4.7128   -0.5267    5.8715 H         1 RES1    0.0000
     38 H4        -8.2283    1.4603    5.8715 H         1 RES1    0.0000
     39 H5        -8.2461    1.5960    3.5465 H         1 RES1    0.0000
     40 H6        -6.4216    0.5905    2.4000 H         1 RES1    0.0000
     41 H7        -1.1278    3.0005    4.5322 H         1 RES1    0.0000
     42 H8         0.0466    2.2025    3.8787 H         1 RES1    0.0000
     43 H9        -0.0178    3.8623    1.8858 H         1 RES1    0.0000
     44 H10        0.5514    4.3970    3.3858 H         1 RES1    0.0000
     45 H11       -2.0759    4.8199    2.4108 H         1 RES1    0.0000
     46 H12       -1.4962    5.3147    4.1037 H         1 RES1    0.0000
     47 H13       -4.3972   -5.1311    3.9537 H         1 RES1    0.0000
     48 H14       -5.7156   -4.5566    4.6608 H         1 RES1    0.0000
     49 H15       -4.1835   -5.2349    6.2894 H         1 RES1    0.0000
     50 H16       -3.2411   -4.0459    5.8501 H         1 RES1    0.0000
     51 H17       -4.9444   -3.1122    8.5502 H         1 RES1    0.0000
     52 H18       -4.6557   -4.4688    8.3787 H         1 RES1    0.0000
     53 H19       -3.5442   -3.8304    8.1323 H         1 RES1    0.0000
     54 H20       -5.8585   -1.5322   -0.8250 H         1 RES1    0.0000
     55 H21       -6.1590   -2.7611    0.1821 H         1 RES1    0.0000
     56 H22       -4.8468   -2.5616   -0.5572 H         1 RES1    0.0000
     57 H23       -1.9922    1.9950    0.2250 H         1 RES1    0.0000
     58 H24       -3.4543    2.1466   -0.2786 H         1 RES1    0.0000
     59 H25       -3.2124    2.7451    0.8464 H         1 RES1    0.0000
@<TRIPOS>BOND
     1    1    2 1
     2    2    3 2
     3    3    4 1
     4    4    5 1
     5    5    6 2
     6    6    1 1
     7    7    4 1
     8    8    7 ar
     9    9    8 ar
    10   10    9 ar
    11   11   10 ar
    12   12    7 ar
    13   13    9 1
    14   14   13 2
    15   15   13 2
    16   16    3 1
    17   17   16 2
    18   18   16 1
    19   19   18 1
    20   20   19 1
    21   21   20 1
    22   22   21 1
    23   23   22 1
    24   24   23 2
    25   25   23 2
    26   26    5 1
    27   27   26 2
    28   28   26 1
    29   29   28 1
    30   30   29 1
    31   31   30 1
    32   32   31 1
    33   33    6 1
    34   34    2 1
    35   35    1 1
    36   36    4 1
    37   37    8 1
    38   38   10 1
    39   39   11 1
    40   40   12 1
    41   41   19 1
    42   42   19 1
    43   43   20 1
    44   44   20 1
    45   45   21 1
    46   46   21 1
    47   47   29 1
    48   48   29 1
    49   49   30 1
    50   50   30 1
    51   51   32 1
    52   52   32 1
    53   53   32 1
    54   54   33 1
    55   55   33 1
    56   56   33 1
    57   57   34 1
    58   58   34 1
    59   59   34 1
    60   11   12 ar
@<TRIPOS>SUBSTRUCTURE
     1 RES1 1

@<TRIPOS>CRYSIN
  13.2160    7.9800   10.9700  90.0000 102.3900  90.0000   4 1

