# MOL2 file generated by ConQuest
# Please check atom types

@<TRIPOS>MOLECULE
WATSUG
    64    66     1
SMALL
NO_CHARGES
****
Generated from CSD

@<TRIPOS>ATOM
      1 C1        -0.9237    1.6509    5.9621 C.ar      1 RES1    0.0000
      2 H1        -0.2028    1.6253    6.5491 H         1 RES1    0.0000
      3 N1         0.9876    3.7468    4.1336 N.am      1 RES1    0.0000
      4 C2         2.2004    4.9095    2.3057 C.3       1 RES1    0.0000
      5 H2         1.6728    5.7090    2.5128 H         1 RES1    0.0000
      6 N2        -2.3554    0.7333    7.7387 N.pl3     1 RES1    0.0000
      7 O1         1.2925    1.5436    3.6910 O.2       1 RES1    0.0000
      8 C3        -3.0615    1.6779    4.2552 C.ar      1 RES1    0.0000
      9 C4        -3.2734    1.2822    5.5511 C.ar      1 RES1    0.0000
     10 H3        -4.1187    1.0432    5.8571 H         1 RES1    0.0000
     11 N3        -4.2053    1.7056    3.3317 N.pl3     1 RES1    0.0000
     12 C5        -2.1790    1.2573    6.3721 C.ar      1 RES1    0.0000
     13 C6        -1.1917    4.9865    4.3704 C.ar      1 RES1    0.0000
     14 C7         3.2274    4.6165    4.6768 C.ar      1 RES1    0.0000
     15 C8         2.3426    4.0648    3.5756 C.3       1 RES1    0.0000
     16 H4         2.7380    3.2120    3.3006 H         1 RES1    0.0000
     17 C9        -1.8299    2.0479    3.7901 C.ar      1 RES1    0.0000
     18 H5        -1.7139    2.2728    2.8958 H         1 RES1    0.0000
     19 C10        0.2644    4.8602    4.8185 C.3       1 RES1    0.0000
     20 H6         0.7050    5.6840    4.5217 H         1 RES1    0.0000
     21 O2        -5.3165    1.5584    3.8025 O.2       1 RES1    0.0000
     22 C11        0.4448    4.8190    6.3360 C.3       1 RES1    0.0000
     23 H7         0.0217    4.0324    6.6869 H         1 RES1    0.0000
     24 H8         0.0441    5.5996    6.7272 H         1 RES1    0.0000
     25 H9         1.3816    4.8008    6.5458 H         1 RES1    0.0000
     26 O3        -3.9844    1.8879    2.1566 O.2       1 RES1    0.0000
     27 C12       -0.7572    2.0837    4.6654 C.ar      1 RES1    0.0000
     28 O4         3.5401    6.5888    1.3725 O.3       1 RES1    0.0000
     29 C13        0.6170    2.4585    4.1342 C.2       1 RES1    0.0000
     30 C14       -2.2633    4.8089    5.2328 C.ar      1 RES1    0.0000
     31 H10       -2.1054    4.6536    6.1359 H         1 RES1    0.0000
     32 O5        -3.4789    0.4450    8.0948 O.2       1 RES1    0.0000
     33 O6        -1.3731    0.6117    8.4333 O.2       1 RES1    0.0000
     34 C15        3.5456    5.3349    1.7806 C.2       1 RES1    0.0000
     35 C16        3.4706    5.9595    4.8782 C.ar      1 RES1    0.0000
     36 H11        3.1450    6.5874    4.2732 H         1 RES1    0.0000
     37 O7         4.4906    4.5962    1.6866 O.2       1 RES1    0.0000
     38 C17       -1.4734    5.2809    3.0441 C.ar      1 RES1    0.0000
     39 H12       -0.7729    5.4497    2.4557 H         1 RES1    0.0000
     40 C18        1.4951    4.1202    1.1991 C.3       1 RES1    0.0000
     41 H13        2.0608    3.3747    0.9440 H         1 RES1    0.0000
     42 H14        0.6715    3.7535    1.5588 H         1 RES1    0.0000
     43 C19        3.7689    3.7130    5.5729 C.ar      1 RES1    0.0000
     44 H15        3.6420    2.8022    5.4355 H         1 RES1    0.0000
     45 C20        4.7026    5.4693    6.8701 C.ar      1 RES1    0.0000
     46 H16        5.1864    5.7583    7.6107 H         1 RES1    0.0000
     47 C21        4.1979    6.3721    5.9802 C.ar      1 RES1    0.0000
     48 H17        4.3459    7.2802    6.1158 H         1 RES1    0.0000
     49 C22       -3.5633    4.8596    4.7651 C.ar      1 RES1    0.0000
     50 H18       -4.2711    4.7306    5.3549 H         1 RES1    0.0000
     51 C23        4.7450    7.0804    0.7387 C.3       1 RES1    0.0000
     52 H19        5.5125    6.7590    1.2178 H         1 RES1    0.0000
     53 H20        4.7416    8.0405    0.7458 H         1 RES1    0.0000
     54 H21        4.7795    6.7684   -0.1680 H         1 RES1    0.0000
     55 C24       -3.8185    5.0966    3.4451 C.ar      1 RES1    0.0000
     56 H22       -4.6938    5.1013    3.1310 H         1 RES1    0.0000
     57 C25       -2.7702    5.3295    2.5793 C.ar      1 RES1    0.0000
     58 H23       -2.9383    5.5186    1.6847 H         1 RES1    0.0000
     59 C26        1.1651    4.9170   -0.0386 C.3       1 RES1    0.0000
     60 H24        0.5824    5.6442    0.1948 H         1 RES1    0.0000
     61 H25        0.7274    4.3498   -0.6769 H         1 RES1    0.0000
     62 H26        1.9745    5.2647   -0.4216 H         1 RES1    0.0000
     63 C27        4.4894    4.1344    6.6605 C.ar      1 RES1    0.0000
     64 H27        4.8344    3.5105    7.2580 H         1 RES1    0.0000
@<TRIPOS>BOND
     1    1    2 1
     2    3   15 1
     3    4    5 1
     4    6   12 1
     5    7   29 2
     6    8    9 ar
     7    9   10 1
     8   11    8 1
     9   12    1 ar
    10   13   19 1
    11   14   15 1
    12   15    4 1
    13   16   15 1
    14   17    8 ar
    15   18   17 1
    16   19    3 1
    17   20   19 1
    18   21   11 2
    19   22   19 1
    20   23   22 1
    21   24   22 1
    22   25   22 1
    23   26   11 2
    24   27    1 ar
    25   28   34 1
    26   29    3 1
    27   30   13 ar
    28   31   30 1
    29   32    6 2
    30   33    6 2
    31   34    4 1
    32   35   14 ar
    33   36   35 1
    34   37   34 2
    35   38   13 ar
    36   39   38 1
    37   40    4 1
    38   41   40 1
    39   42   40 1
    40   43   14 ar
    41   44   43 1
    42   45   46 1
    43   47   35 ar
    44   48   47 1
    45   49   30 ar
    46   50   49 1
    47   51   28 1
    48   52   51 1
    49   53   51 1
    50   54   51 1
    51   55   49 ar
    52   56   55 1
    53   57   38 ar
    54   58   57 1
    55   59   40 1
    56   60   59 1
    57   61   59 1
    58   62   59 1
    59   63   43 ar
    60   64   63 1
    61    9   12 ar
    62   17   27 ar
    63   27   29 1
    64   45   47 ar
    65   45   63 ar
    66   55   57 ar
@<TRIPOS>SUBSTRUCTURE
     1 RES1 1

@<TRIPOS>CRYSIN
  11.3587    6.7522   17.6162  90.0000 107.5420  90.0000   4 1

