# MOL2 file generated by ConQuest
# Please check atom types

@<TRIPOS>MOLECULE
WAWQOD
    44    47     1
SMALL
NO_CHARGES
****
Generated from CSD

@<TRIPOS>ATOM
      1 O1         3.1081   12.7645    0.8657 O.3       1 RES1    0.0000
      2 C1         2.4061    8.7528    0.2698 C.ar      1 RES1    0.0000
      3 H1         2.4322    8.3761   -0.5807 H         1 RES1    0.0000
      4 N1         5.7690   12.7511   -4.8403 N.pl3     1 RES1    0.0000
      5 C2         1.7980    8.0833    1.2844 C.ar      1 RES1    0.0000
      6 H2         1.4054    7.2529    1.1322 H         1 RES1    0.0000
      7 N2         5.8561   13.0218    1.5504 N.3       1 RES1    0.0000
      8 O2         7.0428   15.4418    0.9336 O.3       1 RES1    0.0000
      9 O3         5.1250   16.3041    1.4992 O.2       1 RES1    0.0000
     10 C3         5.6538   13.1033   -3.4160 C.ar      1 RES1    0.0000
     11 C4         5.9940   12.1592   -2.4835 C.ar      1 RES1    0.0000
     12 H3         6.3004   11.3211   -2.7469 H         1 RES1    0.0000
     13 O4         5.4783   13.6204   -5.6606 O.2       1 RES1    0.0000
     14 C5         5.8736   12.4771   -1.1365 C.ar      1 RES1    0.0000
     15 H4         6.1241   11.8553   -0.4932 H         1 RES1    0.0000
     16 O5         6.1613   11.6284   -5.1392 O.2       1 RES1    0.0000
     17 C6         5.3858   13.7103   -0.7439 C.ar      1 RES1    0.0000
     18 C7         5.1473   14.0337    0.7362 C.3       1 RES1    0.0000
     19 C8         3.6350   14.0698    0.9897 C.3       1 RES1    0.0000
     20 H5         3.4590   14.4116    1.8802 H         1 RES1    0.0000
     21 H6         3.2078   14.6599    0.3486 H         1 RES1    0.0000
     22 C9         3.5079   11.9536    1.9859 C.3       1 RES1    0.0000
     23 H7         3.0883   12.3159    2.7944 H         1 RES1    0.0000
     24 C10        2.9495   10.5715    1.7409 C.ar      1 RES1    0.0000
     25 C11        2.3392    9.8856    2.7523 C.ar      1 RES1    0.0000
     26 H8         2.3042   10.2561    3.6049 H         1 RES1    0.0000
     27 C12        5.1893   14.3455   -3.0663 C.ar      1 RES1    0.0000
     28 H9         4.9687   14.9715   -3.7172 H         1 RES1    0.0000
     29 C13        1.7685    8.6398    2.5202 C.ar      1 RES1    0.0000
     30 H10        1.3623    8.1826    3.2218 H         1 RES1    0.0000
     31 C14        5.0574   14.6462   -1.7226 C.ar      1 RES1    0.0000
     32 H11        4.7455   15.4851   -1.4690 H         1 RES1    0.0000
     33 C15        5.7425   15.3987    1.0955 C.2       1 RES1    0.0000
     34 C16        7.7135   16.6684    1.2973 C.3       1 RES1    0.0000
     35 H12        8.6489   16.5929    1.0955 H         1 RES1    0.0000
     36 H13        7.6003   16.8275    2.2374 H         1 RES1    0.0000
     37 H14        7.3360   17.3994    0.8019 H         1 RES1    0.0000
     38 C17        5.0163   11.9763    2.1813 C.3       1 RES1    0.0000
     39 H15        5.4383   11.0951    2.2579 H         1 RES1    0.0000
     40 C18        5.6439   13.0495    3.0005 C.3       1 RES1    0.0000
     41 H16        5.0653   13.7404    3.3588 H         1 RES1    0.0000
     42 H17        6.3889   12.8055    3.5715 H         1 RES1    0.0000
     43 C19        2.9928    9.9996    0.4932 C.ar      1 RES1    0.0000
     44 H18        3.4145   10.4444   -0.2061 H         1 RES1    0.0000
@<TRIPOS>BOND
     1    1   19 1
     2    2    3 1
     3    4   10 1
     4    5    2 ar
     5    6    5 1
     6    7   18 1
     7    8   33 1
     8    9   33 2
     9   10   11 ar
    10   11   12 1
    11   13    4 2
    12   14   11 ar
    13   15   14 1
    14   16    4 2
    15   17   14 ar
    16   18   17 1
    17   19   18 1
    18   20   19 1
    19   21   19 1
    20   22    1 1
    21   23   22 1
    22   24   22 1
    23   25   24 ar
    24   26   25 1
    25   27   10 ar
    26   28   27 1
    27   29    5 ar
    28   30   29 1
    29   31   17 ar
    30   32   31 1
    31   33   18 1
    32   34    8 1
    33   35   34 1
    34   36   34 1
    35   37   34 1
    36   38    7 1
    37   39   38 1
    38   40    7 1
    39   41   40 1
    40   42   40 1
    41   43    2 ar
    42   44   43 1
    43   22   38 1
    44   24   43 ar
    45   25   29 ar
    46   27   31 ar
    47   38   40 1
@<TRIPOS>SUBSTRUCTURE
     1 RES1 1

@<TRIPOS>CRYSIN
   9.4300   17.1220   11.0390  90.0000 102.1140  90.0000 231 1

