# MOL2 file generated by ConQuest
# Please check atom types

@<TRIPOS>MOLECULE
WAXSUL
    42    43     1
SMALL
NO_CHARGES
****
Generated from CSD

@<TRIPOS>ATOM
      1 C1         1.0330    7.1410    4.5800 C.3       1 RES1    0.0000
      2 H1         0.1691    7.5316    4.8269 H         1 RES1    0.0000
      3 C2         0.8307    5.6611    4.1638 C.3       1 RES1    0.0000
      4 C3         2.1270    4.9572    4.6193 C.3       1 RES1    0.0000
      5 H2         1.9746    4.0087    4.7508 H         1 RES1    0.0000
      6 H3         2.8296    5.0728    3.9616 H         1 RES1    0.0000
      7 C4         2.5074    5.6398    5.9475 C.3       1 RES1    0.0000
      8 H4         3.4822    5.7188    5.9995 H         1 RES1    0.0000
      9 C5         1.9025    7.0231    5.8103 C.2       1 RES1    0.0000
     10 C6         1.6871    7.9998    3.5100 C.ar      1 RES1    0.0000
     11 C7         3.0395    8.0029    3.2479 C.ar      1 RES1    0.0000
     12 H5         3.6048    7.4632    3.7525 H         1 RES1    0.0000
     13 C8         3.5647    8.7888    2.2565 C.ar      1 RES1    0.0000
     14 H6         4.4785    8.7607    2.0854 H         1 RES1    0.0000
     15 C9         2.7755    9.6067    1.5181 C.ar      1 RES1    0.0000
     16 H7         3.1469   10.1516    0.8652 H         1 RES1    0.0000
     17 C10        1.4418    9.6226    1.7450 C.ar      1 RES1    0.0000
     18 H8         0.8938   10.1653    1.2265 H         1 RES1    0.0000
     19 C11        0.8882    8.8466    2.7357 C.ar      1 RES1    0.0000
     20 H9        -0.0277    8.8853    2.8936 H         1 RES1    0.0000
     21 C12       -0.3672    5.0682    4.8950 C.2       1 RES1    0.0000
     22 C13       -1.5319    3.0472    5.2991 C.3       1 RES1    0.0000
     23 H10       -1.4965    3.2288    6.2435 H         1 RES1    0.0000
     24 H11       -1.4141    2.1062    5.1501 H         1 RES1    0.0000
     25 H12       -2.3841    3.3215    4.9536 H         1 RES1    0.0000
     26 C14        0.5751    5.5281    2.6689 C.2       1 RES1    0.0000
     27 C15       -1.0988    5.7675    1.0116 C.3       1 RES1    0.0000
     28 H13       -0.6589    6.4690    0.5261 H         1 RES1    0.0000
     29 H14       -2.0501    5.8785    0.9413 H         1 RES1    0.0000
     30 H15       -0.8487    4.9170    0.6434 H         1 RES1    0.0000
     31 C16        1.9975    4.9238    7.1927 C.3       1 RES1    0.0000
     32 H16        2.1360    5.4893    7.9676 H         1 RES1    0.0000
     33 H17        1.0448    4.7634    7.1056 H         1 RES1    0.0000
     34 N1         2.1533    7.9276    6.6483 N.2       1 RES1    0.0000
     35 O1        -1.0857    5.6626    5.6445 O.2       1 RES1    0.0000
     36 O2        -0.4794    3.7776    4.6288 O.3       1 RES1    0.0000
     37 O3         1.3843    5.2514    1.8395 O.2       1 RES1    0.0000
     38 O4        -0.7039    5.8260    2.4150 O.3       1 RES1    0.0000
     39 O5         2.6695    3.6833    7.3858 O.3       1 RES1    0.0000
     40 H18        3.2272    3.7647    7.9803 H         1 RES1    0.0000
     41 O6         1.4598    9.1202    6.3481 O.3       1 RES1    0.0000
     42 H19        1.8360    9.7533    6.7094 H         1 RES1    0.0000
@<TRIPOS>BOND
     1    1    2 1
     2    3    1 1
     3    4    3 1
     4    5    4 1
     5    6    4 1
     6    7    4 1
     7    8    7 1
     8    9    1 1
     9   10    1 1
    10   11   10 ar
    11   12   11 1
    12   13   11 ar
    13   14   13 1
    14   15   13 ar
    15   16   15 1
    16   17   15 ar
    17   18   17 1
    18   19   10 ar
    19   20   19 1
    20   21    3 1
    21   22   23 1
    22   24   22 1
    23   25   22 1
    24   26    3 1
    25   27   28 1
    26   29   27 1
    27   30   27 1
    28   31    7 1
    29   32   31 1
    30   33   31 1
    31   34    9 2
    32   35   21 2
    33   36   21 1
    34   37   26 2
    35   38   26 1
    36   39   31 1
    37   40   39 1
    38   41   34 1
    39   42   41 1
    40    7    9 1
    41   17   19 ar
    42   22   36 1
    43   27   38 1
@<TRIPOS>SUBSTRUCTURE
     1 RES1 1

@<TRIPOS>CRYSIN
   6.9284    7.6008   31.6931  90.0000  90.0000  90.0000  19 1

