# MOL2 file generated by ConQuest
# Please check atom types

@<TRIPOS>MOLECULE
WAZCOS
    26    28     1
SMALL
NO_CHARGES
****
Generated from CSD

@<TRIPOS>ATOM
      1 C1         3.1670    5.7455    5.4890 C.ar      1 RES1    0.0000
      2 H1         2.7266    6.1553    4.7787 H         1 RES1    0.0000
      3 C2         4.1494    6.4273    6.1755 C.ar      1 RES1    0.0000
      4 H2         4.3816    7.2948    5.9324 H         1 RES1    0.0000
      5 C3         4.7759    5.8079    7.2234 C.ar      1 RES1    0.0000
      6 H3         5.4425    6.2716    7.6768 H         1 RES1    0.0000
      7 C4         3.5296    3.9019    6.9539 C.ar      1 RES1    0.0000
      8 C5         2.8342    4.4443    5.8568 C.ar      1 RES1    0.0000
      9 C6         1.7956    3.6401    5.1918 C.2       1 RES1    0.0000
     10 C7         1.4776    2.2944    5.7132 C.2       1 RES1    0.0000
     11 C8         2.2412    1.7794    6.8682 C.ar      1 RES1    0.0000
     12 C9         3.2406    2.5536    7.4426 C.ar      1 RES1    0.0000
     13 C10        3.7408    0.9068    8.9603 C.ar      1 RES1    0.0000
     14 H4         4.2698    0.5911    9.6581 H         1 RES1    0.0000
     15 C11        2.7394    0.0967    8.4867 C.ar      1 RES1    0.0000
     16 H5         2.5723   -0.7314    8.8746 H         1 RES1    0.0000
     17 C12        1.9914    0.5372    7.4274 C.ar      1 RES1    0.0000
     18 H6         1.3143    0.0009    7.0836 H         1 RES1    0.0000
     19 N1         4.4794    4.5769    7.6227 N.ar      1 RES1    0.0000
     20 N2         3.9946    2.1165    8.4766 N.ar      1 RES1    0.0000
     21 N3         1.0800    3.9703    4.1627 N.2       1 RES1    0.0000
     22 N4         0.5662    1.4697    5.2850 N.2       1 RES1    0.0000
     23 O1         1.2973    5.1928    3.5997 O.3       1 RES1    0.0000
     24 H7         0.9024    5.2373    2.8818 H         1 RES1    0.0000
     25 O2        -0.2248    1.8538    4.2295 O.3       1 RES1    0.0000
     26 H8        -0.0052    2.6041    3.9826 H         1 RES1    0.0000
@<TRIPOS>BOND
     1    1    2 1
     2    3    1 ar
     3    4    3 1
     4    5    3 ar
     5    6    5 1
     6    7    8 ar
     7    8    1 ar
     8    9    8 1
     9   10    9 1
    10   11   10 1
    11   12    7 1
    12   13   14 1
    13   15   13 ar
    14   16   15 1
    15   17   11 ar
    16   18   17 1
    17   19    5 ar
    18   20   12 ar
    19   21    9 2
    20   22   10 2
    21   23   21 1
    22   24   23 1
    23   25   22 1
    24   26   25 1
    25    7   19 ar
    26   11   12 ar
    27   13   20 ar
    28   15   17 ar
@<TRIPOS>SUBSTRUCTURE
     1 RES1 1

@<TRIPOS>CRYSIN
   4.8736    8.5549   12.5992  90.0000  91.4280  90.0000   7 1

