# MOL2 file generated by ConQuest
# Please check atom types

@<TRIPOS>MOLECULE
WECNID
    56    61     1
SMALL
NO_CHARGES
****
Generated from CSD

@<TRIPOS>ATOM
      1 O1         0.3646    4.9661    3.6289 O.2       1 RES1    0.0000
      2 O2         1.5767    3.6071    2.4690 O.2       1 RES1    0.0000
      3 N1         0.9292    3.8887    3.4684 N.pl3     1 RES1    0.0000
      4 C1         0.5550    0.2685    7.8366 C.2       1 RES1    0.0000
      5 C2        -0.3056    1.1111    8.7834 C.3       1 RES1    0.0000
      6 H1         0.1885    1.3425    9.6213 H         1 RES1    0.0000
      7 C3        -1.6801    0.4737    9.0916 C.3       1 RES1    0.0000
      8 H2        -1.6430   -0.4937    9.3412 H         1 RES1    0.0000
      9 C4        -2.4126    1.3675   10.1067 C.3       1 RES1    0.0000
     10 H3        -1.8148    1.6213   10.8540 H         1 RES1    0.0000
     11 H4        -3.2102    0.9097   10.4730 H         1 RES1    0.0000
     12 C5        -2.8152    2.6084    9.2678 C.3       1 RES1    0.0000
     13 H5        -3.7996    2.7127    9.2336 H         1 RES1    0.0000
     14 H6        -2.4148    3.4349    9.6370 H         1 RES1    0.0000
     15 C6        -2.2432    2.2873    7.8787 C.3       1 RES1    0.0000
     16 H7        -2.6512    2.8048    7.1269 H         1 RES1    0.0000
     17 C7        -0.7052    2.3918    7.9785 C.3       1 RES1    0.0000
     18 H8        -0.4276    3.2249    8.4571 H         1 RES1    0.0000
     19 C8         0.0175    2.2456    6.6720 C.ar      1 RES1    0.0000
     20 C9         0.0599    3.1812    5.6505 C.ar      1 RES1    0.0000
     21 H9        -0.4258    3.9957    5.7116 H         1 RES1    0.0000
     22 C10        0.8309    2.8932    4.5388 C.ar      1 RES1    0.0000
     23 C11        1.5433    1.7104    4.4173 C.ar      1 RES1    0.0000
     24 H10        2.0612    1.5403    3.6397 H         1 RES1    0.0000
     25 C12        1.4930    0.7806    5.4379 C.ar      1 RES1    0.0000
     26 H11        1.9831   -0.0299    5.3642 H         1 RES1    0.0000
     27 C13        0.7202    1.0309    6.5829 C.ar      1 RES1    0.0000
     28 C14       -2.4539    0.7692    7.8041 C.3       1 RES1    0.0000
     29 H12       -3.4081    0.5108    7.8620 H         1 RES1    0.0000
     30 H13       -2.0366    0.3629    7.0037 H         1 RES1    0.0000
     31 C15        0.9939   -0.9706    8.1340 C.2       1 RES1    0.0000
     32 C16        1.5040   -1.9713    7.1098 C.3       1 RES1    0.0000
     33 H14        1.1735   -1.6678    6.1699 H         1 RES1    0.0000
     34 C17        0.8973   -3.3711    7.3653 C.3       1 RES1    0.0000
     35 H15        0.6765   -3.7934    6.4971 H         1 RES1    0.0000
     36 H16        1.5703   -3.9401    7.8172 H         1 RES1    0.0000
     37 C18       -0.3655   -3.3053    8.2279 C.3       1 RES1    0.0000
     38 H17       -1.0517   -2.7428    7.7881 H         1 RES1    0.0000
     39 H18       -0.7399   -4.2129    8.3573 H         1 RES1    0.0000
     40 C19        0.0230   -2.7097    9.5533 C.ar      1 RES1    0.0000
     41 C20       -0.2648   -3.2916   10.7767 C.ar      1 RES1    0.0000
     42 H19       -0.8328   -4.0526   10.8204 H         1 RES1    0.0000
     43 C21        0.2742   -2.7626   11.9351 C.ar      1 RES1    0.0000
     44 H20        0.0772   -3.1584   12.7758 H         1 RES1    0.0000
     45 C22        1.0900   -1.6702   11.8682 C.ar      1 RES1    0.0000
     46 H21        1.4643   -1.3248   12.6705 H         1 RES1    0.0000
     47 C23        1.3897   -1.0458   10.6566 C.ar      1 RES1    0.0000
     48 C24        0.8166   -1.5559    9.4898 C.ar      1 RES1    0.0000
     49 C25        2.3566    0.1053   10.6589 C.3       1 RES1    0.0000
     50 H22        2.5093    0.4059    9.7390 H         1 RES1    0.0000
     51 H23        3.2069   -0.1830   11.0534 H         1 RES1    0.0000
     52 H24        1.9854    0.8424   11.1868 H         1 RES1    0.0000
     53 C26        3.0205   -2.0392    7.1221 C.3       1 RES1    0.0000
     54 H25        3.3886   -1.1656    6.8748 H         1 RES1    0.0000
     55 H26        3.3229   -2.7154    6.4803 H         1 RES1    0.0000
     56 H27        3.3298   -2.2806    8.0200 H         1 RES1    0.0000
@<TRIPOS>BOND
     1    1    3 2
     2    2    3 2
     3    3   22 1
     4    4    5 1
     5    5    6 1
     6    7    5 1
     7    8    7 1
     8    9    7 1
     9   10    9 1
    10   11    9 1
    11   12    9 1
    12   13   12 1
    13   14   12 1
    14   15   12 1
    15   16   15 1
    16   17    5 1
    17   18   17 1
    18   19   17 1
    19   20   19 ar
    20   21   20 1
    21   22   20 ar
    22   23   22 ar
    23   24   23 1
    24   25   23 ar
    25   26   25 1
    26   27    4 1
    27   28    7 1
    28   29   28 1
    29   30   28 1
    30   31    4 2
    31   32   31 1
    32   33   32 1
    33   34   32 1
    34   35   34 1
    35   36   34 1
    36   37   34 1
    37   38   37 1
    38   39   37 1
    39   40   37 1
    40   41   40 ar
    41   42   41 1
    42   43   41 ar
    43   44   43 1
    44   45   43 ar
    45   46   45 1
    46   47   45 ar
    47   48   31 1
    48   49   47 1
    49   50   49 1
    50   51   49 1
    51   52   49 1
    52   53   32 1
    53   54   53 1
    54   55   53 1
    55   56   53 1
    56   15   17 1
    57   15   28 1
    58   19   27 ar
    59   25   27 ar
    60   40   48 ar
    61   47   48 ar
@<TRIPOS>SUBSTRUCTURE
     1 RES1 1

@<TRIPOS>CRYSIN
   9.6278    9.9460   11.6593  98.7740  99.3350 110.5050   2 1

