# MOL2 file generated by ConQuest
# Please check atom types

@<TRIPOS>MOLECULE
WECYUA
    42    45     1
SMALL
USER_CHARGES
****
Generated from CSD

@<TRIPOS>ATOM
      1 O1         3.6253   19.0817    5.6125 O.2       1 RES1   -1.0000
      2 O2         4.2174   25.9656    5.3370 O.2       1 RES1    0.0000
      3 O3         2.9615   25.5770    6.9916 O.2       1 RES1    0.0000
      4 N1         1.6742   20.0038    2.8260 N.ar      1 RES1    0.0000
      5 N2         2.8812   18.9055    4.5589 N.pl3     1 RES1    1.0000
      6 N3         3.4914   25.2360    5.9691 N.pl3     1 RES1    0.0000
      7 C1         1.8503   17.5902    2.8687 C.ar      1 RES1    0.0000
      8 C2         1.5328   16.3621    2.2409 C.ar      1 RES1    0.0000
      9 H1         1.8294   15.5622    2.6107 H         1 RES1    0.0000
     10 C3         0.7905   16.3473    1.0908 C.ar      1 RES1    0.0000
     11 H2         0.5763   15.5320    0.6957 H         1 RES1    0.0000
     12 C4         0.3486   17.5368    0.5009 C.ar      1 RES1    0.0000
     13 H3        -0.1423   17.5078   -0.2883 H         1 RES1    0.0000
     14 C5         0.6356   18.7392    1.0800 C.ar      1 RES1    0.0000
     15 H4         0.3349   19.5290    0.6893 H         1 RES1    0.0000
     16 C6         1.3880   18.7831    2.2699 C.ar      1 RES1    0.0000
     17 C7         2.3728   20.0477    3.9123 C.ar      1 RES1    0.0000
     18 C8         2.6316   17.6835    4.0519 C.ar      1 RES1    0.0000
     19 C9         3.2871   16.5124    4.7229 C.3       1 RES1    0.0000
     20 H5         4.1077   16.8223    5.1360 H         1 RES1    0.0000
     21 H6         3.5330   15.8722    4.0376 H         1 RES1    0.0000
     22 C10        2.4705   15.7860    5.7789 C.ar      1 RES1    0.0000
     23 C11        2.1695   16.3818    6.9929 C.ar      1 RES1    0.0000
     24 H7         2.4157   17.2659    7.1475 H         1 RES1    0.0000
     25 C12        1.5034   15.6706    7.9808 C.ar      1 RES1    0.0000
     26 H8         1.3141   16.0764    8.7951 H         1 RES1    0.0000
     27 C13        1.1220   14.3699    7.7613 C.ar      1 RES1    0.0000
     28 H9         0.6798   13.8939    8.4263 H         1 RES1    0.0000
     29 C14        1.3968   13.7769    6.5568 C.ar      1 RES1    0.0000
     30 H10        1.1296   12.9009    6.4019 H         1 RES1    0.0000
     31 C15        2.0703   14.4763    5.5708 C.ar      1 RES1    0.0000
     32 H11        2.2563   14.0627    4.7591 H         1 RES1    0.0000
     33 C16        2.6996   21.3746    4.5006 C.ar      1 RES1    0.0000
     34 C17        3.3459   22.3086    3.6965 C.ar      1 RES1    0.0000
     35 H12        3.5915   22.0820    2.8281 H         1 RES1    0.0000
     36 C18        3.6248   23.5732    4.1825 C.ar      1 RES1    0.0000
     37 H13        4.0784   24.1939    3.6591 H         1 RES1    0.0000
     38 C19        3.2160   23.8910    5.4547 C.ar      1 RES1    0.0000
     39 C20        2.5546   22.9900    6.2703 C.ar      1 RES1    0.0000
     40 H14        2.2809   23.2337    7.1250 H         1 RES1    0.0000
     41 C21        2.3117   21.7219    5.7828 C.ar      1 RES1    0.0000
     42 H15        1.8834   21.0966    6.3197 H         1 RES1    0.0000
@<TRIPOS>BOND
     1    1    5 1
     2    2    6 2
     3    3    6 2
     4    4   16 ar
     5    5   17 ar
     6    6   38 1
     7    7    8 ar
     8    8    9 1
     9   10    8 ar
    10   11   10 1
    11   12   10 ar
    12   13   12 1
    13   14   12 ar
    14   15   14 1
    15   16    7 ar
    16   17    4 ar
    17   18    5 ar
    18   19   18 1
    19   20   19 1
    20   21   19 1
    21   22   19 1
    22   23   22 ar
    23   24   23 1
    24   25   23 ar
    25   26   25 1
    26   27   25 ar
    27   28   27 1
    28   29   27 ar
    29   30   29 1
    30   31   22 ar
    31   32   31 1
    32   33   17 1
    33   34   33 ar
    34   35   34 1
    35   36   34 ar
    36   37   36 1
    37   38   36 ar
    38   39   38 ar
    39   40   39 1
    40   41   33 ar
    41   42   41 1
    42    7   18 ar
    43   14   16 ar
    44   29   31 ar
    45   39   41 ar
@<TRIPOS>SUBSTRUCTURE
     1 RES1 1

@<TRIPOS>CRYSIN
   4.1224   25.2020   16.1080  90.0000  91.0510  90.0000  14 1

