# MOL2 file generated by ConQuest
# Please check atom types

@<TRIPOS>MOLECULE
WEDGET
    65    71     1
SMALL
USER_CHARGES
****
Generated from CSD

@<TRIPOS>ATOM
      1 O1         4.6396   -0.0380    5.5849 O.2       1 RES1   -1.0000
      2 N1         4.1459    1.1549    5.6797 N.pl3     1 RES1    1.0000
      3 O2         0.7792   -0.9284    5.7643 O.3       1 RES1    0.0000
      4 C1         1.0101    0.1401    9.2914 C.3       1 RES1    0.0000
      5 H1         0.0680    0.1194    9.5616 H         1 RES1    0.0000
      6 C2         2.6867    0.2404    7.3778 C.3       1 RES1    0.0000
      7 H2         2.8837   -0.5751    6.8715 H         1 RES1    0.0000
      8 C3         3.9320   -2.0807    9.8221 C.ar      1 RES1    0.0000
      9 H3         4.8330   -2.0659    9.5933 H         1 RES1    0.0000
     10 O3        -0.4108   -1.5842    7.5465 O.2       1 RES1    0.0000
     11 C4         3.5162    0.2035    8.7032 C.3       1 RES1    0.0000
     12 H4         4.4788    0.2241    8.5236 H         1 RES1    0.0000
     13 C5         0.4172   -0.8700    7.0369 C.2       1 RES1    0.0000
     14 C6         3.1195   -1.0484    9.4505 C.ar      1 RES1    0.0000
     15 C7         1.7567   -1.0779    9.7780 C.ar      1 RES1    0.0000
     16 C8         3.1124    1.4186    6.5496 C.ar      1 RES1    0.0000
     17 C9         1.1610    0.2300    7.7499 C.3       1 RES1    0.0000
     18 H5         0.7778    1.0853    7.4612 H         1 RES1    0.0000
     19 C10        4.6885    2.1662    4.9156 C.ar      1 RES1    0.0000
     20 C11        5.7801    1.8315    3.9838 C.ar      1 RES1    0.0000
     21 C12        1.2460   -2.1411   10.4846 C.ar      1 RES1    0.0000
     22 H6         0.3428   -2.1633   10.7069 H         1 RES1    0.0000
     23 C13        3.0848    1.3847    9.5170 C.ar      1 RES1    0.0000
     24 C14        6.5911    0.9320    1.8531 C.ar      1 RES1    0.0000
     25 C15        1.1532    2.4139   10.5056 C.ar      1 RES1    0.0000
     26 H7         0.2500    2.3889   10.7264 H         1 RES1    0.0000
     27 C16        3.4248   -3.1468   10.5353 C.ar      1 RES1    0.0000
     28 H8         3.9830   -3.8443   10.7946 H         1 RES1    0.0000
     29 C17        4.2274    3.4521    5.0752 C.ar      1 RES1    0.0000
     30 H9         4.6092    4.1378    4.5761 H         1 RES1    0.0000
     31 C18        1.7220    1.3729    9.8306 C.ar      1 RES1    0.0000
     32 C19        4.2876    0.5117    2.4862 C.ar      1 RES1    0.0000
     33 H10        3.5863    0.5780    3.0946 H         1 RES1    0.0000
     34 C20        2.6712    2.7118    6.6780 C.ar      1 RES1    0.0000
     35 H11        1.9812    2.8947    7.2735 H         1 RES1    0.0000
     36 C21        5.5498    1.0765    2.7990 C.ar      1 RES1    0.0000
     37 C22        3.2612    3.5302   10.5485 C.ar      1 RES1    0.0000
     38 H12        3.7797    4.2631   10.7921 H         1 RES1    0.0000
     39 C23        3.2144    3.7455    5.9553 C.ar      1 RES1    0.0000
     40 H13        2.9063    4.6170    6.0576 H         1 RES1    0.0000
     41 C24        6.3602    0.2477    0.6569 C.ar      1 RES1    0.0000
     42 H14        7.0522    0.1460    0.0439 H         1 RES1    0.0000
     43 C25        3.8498    2.4788    9.8747 C.ar      1 RES1    0.0000
     44 H15        4.7551    2.5068    9.6640 H         1 RES1    0.0000
     45 C26        7.8562    1.5218    2.1309 C.ar      1 RES1    0.0000
     46 H16        8.5539    1.4259    1.5229 H         1 RES1    0.0000
     47 C27        7.0126    2.3977    4.1816 C.ar      1 RES1    0.0000
     48 H17        7.1564    2.9138    4.9416 H         1 RES1    0.0000
     49 C28        2.0726   -3.1748   10.8635 C.ar      1 RES1    0.0000
     50 H18        1.7262   -3.8930   11.3404 H         1 RES1    0.0000
     51 C29        8.0531    2.2222    3.2740 C.ar      1 RES1    0.0000
     52 H19        8.8890    2.5879    3.4528 H         1 RES1    0.0000
     53 C30        5.1411   -0.2654    0.3818 C.ar      1 RES1    0.0000
     54 H20        4.9966   -0.7122   -0.4215 H         1 RES1    0.0000
     55 C31        0.1006   -1.8742    4.9090 C.3       1 RES1    0.0000
     56 H21       -0.7615   -1.5203    4.6395 H         1 RES1    0.0000
     57 H22       -0.0453   -2.7074    5.3851 H         1 RES1    0.0000
     58 C32        1.9309    3.5155   10.8648 C.ar      1 RES1    0.0000
     59 H23        1.5477    4.2336   11.3160 H         1 RES1    0.0000
     60 C33        4.0977   -0.1283    1.3002 C.ar      1 RES1    0.0000
     61 H24        3.2612   -0.4807    1.0990 H         1 RES1    0.0000
     62 C34        0.9428   -2.1102    3.7230 C.3       1 RES1    0.0000
     63 H25        0.5128   -2.7472    3.1458 H         1 RES1    0.0000
     64 H26        1.7956   -2.4538    3.9986 H         1 RES1    0.0000
     65 H27        1.0675   -1.2844    3.2506 H         1 RES1    0.0000
@<TRIPOS>BOND
     1    1    2 1
     2    2   16 ar
     3    3   13 1
     4    4    5 1
     5    6    7 1
     6    8    9 1
     7   10   13 2
     8   11    6 1
     9   12   11 1
    10   13   17 1
    11   14    8 ar
    12   15    4 1
    13   16    6 1
    14   17    4 1
    15   18   17 1
    16   19    2 ar
    17   20   19 1
    18   21   15 ar
    19   22   21 1
    20   23   11 1
    21   24   36 ar
    22   25   26 1
    23   27    8 ar
    24   28   27 1
    25   29   19 ar
    26   30   29 1
    27   31    4 1
    28   32   33 1
    29   34   16 ar
    30   35   34 1
    31   36   20 ar
    32   37   38 1
    33   39   29 ar
    34   40   39 1
    35   41   24 ar
    36   42   41 1
    37   43   23 ar
    38   44   43 1
    39   45   24 ar
    40   46   45 1
    41   47   20 ar
    42   48   47 1
    43   49   21 ar
    44   50   49 1
    45   51   45 ar
    46   52   51 1
    47   53   41 ar
    48   54   53 1
    49   55    3 1
    50   56   55 1
    51   57   55 1
    52   58   25 ar
    53   59   58 1
    54   60   32 ar
    55   61   60 1
    56   62   55 1
    57   63   62 1
    58   64   62 1
    59   65   62 1
    60    6   17 1
    61   11   14 1
    62   14   15 ar
    63   23   31 ar
    64   25   31 ar
    65   27   49 ar
    66   32   36 ar
    67   34   39 ar
    68   37   43 ar
    69   37   58 ar
    70   47   51 ar
    71   53   60 ar
@<TRIPOS>SUBSTRUCTURE
     1 RES1 1

@<TRIPOS>CRYSIN
   7.0834   14.7461   24.3670  90.0000  90.0000  90.0000  19 1

