# MOL2 file generated by ConQuest
# Please check atom types

@<TRIPOS>MOLECULE
WEFBAM
    31    32     1
SMALL
NO_CHARGES
****
Generated from CSD

@<TRIPOS>ATOM
      1 O1         5.2573    0.1970    8.0190 O.2       1 RES1    0.0000
      2 O2         5.8862    2.0466    8.9262 O.2       1 RES1    0.0000
      3 N1         5.3339    0.9452    8.9915 N.pl3     1 RES1    0.0000
      4 N2         4.7836    1.6107   13.7767 N.3       1 RES1    0.0000
      5 N3         3.1793   -0.6442   13.8767 N.3       1 RES1    0.0000
      6 C1         4.7827    0.5111   10.2538 C.ar      1 RES1    0.0000
      7 C2         5.0268    1.2924   11.3816 C.ar      1 RES1    0.0000
      8 H1         5.5300    2.0709   11.3078 H         1 RES1    0.0000
      9 C3         4.5197    0.9103   12.6102 C.ar      1 RES1    0.0000
     10 C4         5.6881    2.7393   13.7946 C.3       1 RES1    0.0000
     11 H2         5.6135    3.1859   14.6531 H         1 RES1    0.0000
     12 H3         5.4151    3.3692   13.1099 H         1 RES1    0.0000
     13 C5         7.1357    2.3660   13.5644 C.ar      1 RES1    0.0000
     14 C6         7.9944    3.2847   12.9935 C.ar      1 RES1    0.0000
     15 H4         7.6674    4.1134   12.7253 H         1 RES1    0.0000
     16 C7         9.3362    2.9889   12.8146 C.ar      1 RES1    0.0000
     17 H5         9.9021    3.6159   12.4249 H         1 RES1    0.0000
     18 C8         9.8306    1.7710   13.2120 C.ar      1 RES1    0.0000
     19 H6        10.7331    1.5740   13.1023 H         1 RES1    0.0000
     20 C9         4.0571   -0.6560   10.3139 C.ar      1 RES1    0.0000
     21 H7         3.9213   -1.1753    9.5547 H         1 RES1    0.0000
     22 C10        3.5359   -1.0334   11.5347 C.ar      1 RES1    0.0000
     23 H8         3.0366   -1.8165   11.5913 H         1 RES1    0.0000
     24 C11        3.7373   -0.2721   12.6848 C.ar      1 RES1    0.0000
     25 C12        8.9864    0.8476   13.7718 C.ar      1 RES1    0.0000
     26 H9         9.3185    0.0219   14.0416 H         1 RES1    0.0000
     27 C13        7.6443    1.1363   13.9377 C.ar      1 RES1    0.0000
     28 H10        7.0776    0.4963   14.3052 H         1 RES1    0.0000
     29 H11        4.2098    1.6148   14.3098 H         1 RES1    0.0000
     30 H12        2.7647   -1.4433   13.8715 H         1 RES1    0.0000
     31 H13        3.3831   -0.2366   14.6071 H         1 RES1    0.0000
@<TRIPOS>BOND
     1    1    3 2
     2    2    3 2
     3    3    6 1
     4    4    9 1
     5    5   24 1
     6    6    7 ar
     7    7    8 1
     8    9    7 ar
     9   10    4 1
    10   11   10 1
    11   12   10 1
    12   13   10 1
    13   14   13 ar
    14   15   14 1
    15   16   14 ar
    16   17   16 1
    17   18   16 ar
    18   19   18 1
    19   20    6 ar
    20   21   20 1
    21   22   20 ar
    22   23   22 1
    23   24    9 ar
    24   25   18 ar
    25   26   25 1
    26   27   13 ar
    27   28   27 1
    28   29    4 1
    29   30    5 1
    30   31    5 1
    31   22   24 ar
    32   25   27 ar
@<TRIPOS>SUBSTRUCTURE
     1 RES1 1

@<TRIPOS>CRYSIN
  13.1110    5.9151   16.3090  90.0000 110.0120  90.0000  14 1

