# MOL2 file generated by ConQuest
# Please check atom types

@<TRIPOS>MOLECULE
WEFJEZ
    46    47     1
SMALL
NO_CHARGES
****
Generated from CSD

@<TRIPOS>ATOM
      1 C1         9.1944    9.5127    1.3524 C.ar      1 RES1    0.0000
      2 C2         8.4437    8.4602    1.8846 C.ar      1 RES1    0.0000
      3 C3         7.6156    7.7607    1.0011 C.ar      1 RES1    0.0000
      4 C4         7.5515    8.1146   -0.3503 C.ar      1 RES1    0.0000
      5 H1         6.9948    7.6214   -0.9416 H         1 RES1    0.0000
      6 C5         8.2950    9.1795   -0.8334 C.ar      1 RES1    0.0000
      7 H2         8.2383    9.4225   -1.7499 H         1 RES1    0.0000
      8 C6         9.1220    9.8896    0.0232 C.ar      1 RES1    0.0000
      9 H3         9.6314   10.6238   -0.2982 H         1 RES1    0.0000
     10 N1        10.1406   10.2498    2.2060 N.pl3     1 RES1    0.0000
     11 O1        10.5138    9.7264    3.2501 O.2       1 RES1    0.0000
     12 O2        10.5373   11.3417    1.8177 O.2       1 RES1    0.0000
     13 C7         6.7223    6.6627    1.5319 C.2       1 RES1    0.0000
     14 O3         5.8092    6.9432    2.3134 O.2       1 RES1    0.0000
     15 N2         6.9583    5.4115    1.1036 N.am      1 RES1    0.0000
     16 C8         8.1051    5.0003    0.2965 C.3       1 RES1    0.0000
     17 H4         8.6744    5.7777    0.1169 H         1 RES1    0.0000
     18 H5         7.7896    4.6236   -0.5516 H         1 RES1    0.0000
     19 H6         8.6207    4.3228    0.7821 H         1 RES1    0.0000
     20 C9         6.1054    4.3254    1.5787 C.3       1 RES1    0.0000
     21 H7         6.5136    3.9094    2.3660 H         1 RES1    0.0000
     22 H8         6.0052    3.6555    0.8706 H         1 RES1    0.0000
     23 H9         5.2243    4.6819    1.8176 H         1 RES1    0.0000
     24 C10        9.1255    6.9284    3.7827 C.ar      1 RES1    0.0000
     25 C11        8.4531    8.0631    3.3291 C.ar      1 RES1    0.0000
     26 C12        7.6625    8.7457    4.2706 C.ar      1 RES1    0.0000
     27 C13        7.6115    8.3053    5.5912 C.ar      1 RES1    0.0000
     28 H10        7.1015    8.7958    6.2251 H         1 RES1    0.0000
     29 C14        8.2904    7.1652    6.0024 C.ar      1 RES1    0.0000
     30 H11        8.2330    6.8712    6.9034 H         1 RES1    0.0000
     31 C15        9.0494    6.4641    5.0858 C.ar      1 RES1    0.0000
     32 H12        9.5117    5.6754    5.3447 H         1 RES1    0.0000
     33 N3        10.0158    6.1715    2.8811 N.pl3     1 RES1    0.0000
     34 O4        10.5815    6.7743    1.9776 O.2       1 RES1    0.0000
     35 O5        10.1647    4.9746    3.0979 O.2       1 RES1    0.0000
     36 C16        6.9596   10.0260    3.8815 C.2       1 RES1    0.0000
     37 O6         7.6068   10.9255    3.3331 O.2       1 RES1    0.0000
     38 N4         5.6511   10.1543    4.1897 N.am      1 RES1    0.0000
     39 C17        4.9761   11.4367    3.9843 C.3       1 RES1    0.0000
     40 H13        5.5817   12.0549    3.5249 H         1 RES1    0.0000
     41 H14        4.7205   11.8139    4.8521 H         1 RES1    0.0000
     42 H15        4.1738   11.2997    3.4386 H         1 RES1    0.0000
     43 C18        4.8159    9.0996    4.7494 C.3       1 RES1    0.0000
     44 H16        5.2382    8.2300    4.5910 H         1 RES1    0.0000
     45 H17        3.9346    9.1182    4.3201 H         1 RES1    0.0000
     46 H18        4.7128    9.2419    5.7139 H         1 RES1    0.0000
@<TRIPOS>BOND
     1    1    2 ar
     2    2    3 ar
     3    3    4 ar
     4    4    5 1
     5    6    4 ar
     6    7    6 1
     7    8    1 ar
     8    9    8 1
     9   10    1 1
    10   11   10 2
    11   12   10 2
    12   13    3 1
    13   14   13 2
    14   15   13 1
    15   16   15 1
    16   17   16 1
    17   18   16 1
    18   19   16 1
    19   20   15 1
    20   21   20 1
    21   22   20 1
    22   23   20 1
    23   24   25 ar
    24   25    2 1
    25   26   25 ar
    26   27   26 ar
    27   28   27 1
    28   29   27 ar
    29   30   29 1
    30   31   24 ar
    31   32   31 1
    32   33   24 1
    33   34   33 2
    34   35   33 2
    35   36   26 1
    36   37   36 2
    37   38   36 1
    38   39   38 1
    39   40   39 1
    40   41   39 1
    41   42   39 1
    42   43   38 1
    43   44   43 1
    44   45   43 1
    45   46   43 1
    46    6    8 ar
    47   29   31 ar
@<TRIPOS>SUBSTRUCTURE
     1 RES1 1

@<TRIPOS>CRYSIN
   8.6855    9.5744   11.5557  72.1880  79.7270  77.2470   2 1

