# MOL2 file generated by ConQuest
# Please check atom types

@<TRIPOS>MOLECULE
WEFROR
    61    55     2
SMALL
NO_CHARGES
****
Generated from CSD

@<TRIPOS>ATOM
      1 N1        -0.7084    0.4721    9.9144 N.2       1 RES1    0.0000
      2 O1        -1.6907   -0.0890    7.6261 O.3       1 RES1    0.0000
      3 H1        -1.6294    0.2871    8.3520 H         1 RES1    0.0000
      4 O2         3.6399    4.0379   13.0642 O.3       1 RES1    0.0000
      5 C1         0.3410   -0.2151    9.5815 C.2       1 RES1    0.0000
      6 H2         1.0475   -0.2635   10.1837 H         1 RES1    0.0000
      7 C2         1.6067   -1.7050    8.0126 C.ar      1 RES1    0.0000
      8 C3         0.4562   -0.9079    8.3229 C.ar      1 RES1    0.0000
      9 C4         1.6622   -2.3704    6.7498 C.ar      1 RES1    0.0000
     10 C5         0.4311    1.7552   11.6764 C.ar      1 RES1    0.0000
     11 H3         1.2552    1.5990   11.2700 H         1 RES1    0.0000
     12 C6        -0.7196    1.2094   11.1142 C.ar      1 RES1    0.0000
     13 C7         3.7620   -2.6819    8.5352 C.ar      1 RES1    0.0000
     14 H4         4.4711   -2.7765    9.1289 H         1 RES1    0.0000
     15 N2         2.4794    3.4650   12.4714 N.2       1 RES1    0.0000
     16 C8         0.3746    2.5283   12.8280 C.ar      1 RES1    0.0000
     17 C9         2.7037   -1.9149    8.8868 C.ar      1 RES1    0.0000
     18 H5         2.6948   -1.5148    9.7247 H         1 RES1    0.0000
     19 C10        0.6016   -2.1985    5.8277 C.ar      1 RES1    0.0000
     20 H6         0.6400   -2.6212    5.0002 H         1 RES1    0.0000
     21 C11        3.8199   -3.3381    7.2930 C.ar      1 RES1    0.0000
     22 H7         4.5468   -3.8734    7.0698 H         1 RES1    0.0000
     23 C12       -0.4738   -1.4254    6.1350 C.ar      1 RES1    0.0000
     24 H8        -1.1486   -1.3080    5.5076 H         1 RES1    0.0000
     25 C13       -0.5733   -0.7984    7.3919 C.ar      1 RES1    0.0000
     26 C14        5.7744    5.0060   12.6259 C.ar      1 RES1    0.0000
     27 C15        1.6119    3.1583   13.3564 C.2       1 RES1    0.0000
     28 C16       -1.9479    1.4624   11.7374 C.ar      1 RES1    0.0000
     29 H9        -2.7294    1.1239   11.3669 H         1 RES1    0.0000
     30 C17        2.7686   -3.1666    6.4193 C.ar      1 RES1    0.0000
     31 H10        2.7946   -3.5880    5.5897 H         1 RES1    0.0000
     32 C18       -0.8640    2.7504   13.4491 C.ar      1 RES1    0.0000
     33 H11       -0.9169    3.2591   14.2239 H         1 RES1    0.0000
     34 C19       -2.0088    2.2041   12.8891 C.ar      1 RES1    0.0000
     35 H12       -2.8305    2.3420   13.3017 H         1 RES1    0.0000
     36 C20        8.2214    5.8149   13.6301 C.ar      1 RES1    0.0000
     37 H13        9.0372    6.0252   14.0238 H         1 RES1    0.0000
     38 C21        4.4664    4.5618   12.0216 C.3       1 RES1    0.0000
     39 H14        4.0266    5.3136   11.5964 H         1 RES1    0.0000
     40 H15        4.6275    3.8804   11.3500 H         1 RES1    0.0000
     41 C22        1.8035    3.4214   14.8176 C.3       1 RES1    0.0000
     42 H16        2.5918    2.9663   15.1228 H         1 RES1    0.0000
     43 H17        1.0407    3.1007   15.3018 H         1 RES1    0.0000
     44 H18        1.9011    4.3651   14.9628 H         1 RES1    0.0000
     45 C23        6.9951    4.6988   11.9416 C.ar      1 RES1    0.0000
     46 H19        6.9793    4.2037   11.1563 H         1 RES1    0.0000
     47 C24        8.1905    5.1482   12.4575 C.ar      1 RES1    0.0000
     48 H20        8.9817    4.9912   11.9943 H         1 RES1    0.0000
     49 C25        5.8435    5.7678   13.7375 C.ar      1 RES1    0.0000
     50 H21        5.0581    6.0191   14.1670 H         1 RES1    0.0000
     51 C26        7.0523    6.1822   14.2449 C.ar      1 RES1    0.0000
     52 H22        7.0746    6.7132   15.0092 H         1 RES1    0.0000
     53 H23        9.0390    6.1107   13.9607 Du        2 SUP2    0.0000
     54 C27        6.5917    5.7547   11.9269 Du        2 SUP2    0.0000
     55 H24        6.3430    6.0116   11.0679 Du        2 SUP2    0.0000
     56 C28        7.8177    6.1779   12.4280 Du        2 SUP2    0.0000
     57 H25        8.3601    6.7254   11.9080 Du        2 SUP2    0.0000
     58 C29        6.1616    4.5898   13.9249 Du        2 SUP2    0.0000
     59 H26        5.5868    4.0654   14.4365 Du        2 SUP2    0.0000
     60 C30        7.3876    4.9606   14.4260 Du        2 SUP2    0.0000
     61 H27        7.6695    4.6652   15.2618 Du        2 SUP2    0.0000
@<TRIPOS>BOND
     1    1    5 2
     2    2    3 1
     3    4   15 1
     4    5    6 1
     5    7    8 ar
     6    8    5 1
     7    9    7 ar
     8   10   11 1
     9   12    1 1
    10   13   14 1
    11   15   27 2
    12   16   10 ar
    13   17    7 ar
    14   18   17 1
    15   19    9 ar
    16   20   19 1
    17   21   13 ar
    18   22   21 1
    19   23   19 ar
    20   24   23 1
    21   25    2 1
    22   26   38 1
    23   27   16 1
    24   28   12 ar
    25   29   28 1
    26   30    9 ar
    27   31   30 1
    28   32   16 ar
    29   33   32 1
    30   34   28 ar
    31   35   34 1
    32   36   37 1
    33   38    4 1
    34   39   38 1
    35   40   38 1
    36   41   27 1
    37   42   41 1
    38   43   41 1
    39   44   41 1
    40   45   26 ar
    41   46   45 1
    42   47   36 ar
    43   48   47 1
    44   49   26 ar
    45   50   49 1
    46   51   36 ar
    47   52   51 1
    48    8   25 ar
    49   10   12 ar
    50   13   17 ar
    51   21   30 ar
    52   23   25 ar
    53   32   34 ar
    54   45   47 ar
    55   49   51 ar
@<TRIPOS>SUBSTRUCTURE
     1 RES1 1
     2 SUP2 53

@<TRIPOS>CRYSIN
  21.8152    4.3629   22.0099  90.0000 106.9510  90.0000  14 1

