# MOL2 file generated by ConQuest
# Please check atom types

@<TRIPOS>MOLECULE
WEGTUZ
    53    56     1
SMALL
NO_CHARGES
****
Generated from CSD

@<TRIPOS>ATOM
      1 O1        -0.4077   -0.0408   14.0387 O.3       1 RES1    0.0000
      2 O2        -2.5960   -0.8186   15.6831 O.3       1 RES1    0.0000
      3 O3        -3.4216   -0.2411   13.5665 O.3       1 RES1    0.0000
      4 O4        -1.5797    4.2420   15.1811 O.2       1 RES1    0.0000
      5 O5         4.0964    6.1495   13.4779 O.3       1 RES1    0.0000
      6 O6        -0.0516    3.9431   12.2894 O.3       1 RES1    0.0000
      7 O7         1.5910    2.6364   16.8213 O.3       1 RES1    0.0000
      8 O8         3.8953    2.4732   16.5298 O.3       1 RES1    0.0000
      9 N1         0.7281    0.7873   13.8194 N.2       1 RES1    0.0000
     10 C1        -1.4026    0.7461   14.4586 C.2       1 RES1    0.0000
     11 C2        -2.7773    0.2011   14.7386 C.3       1 RES1    0.0000
     12 C3        -3.6467    1.3288   15.2405 C.2       1 RES1    0.0000
     13 H1        -4.5495    1.1230   15.4527 H         1 RES1    0.0000
     14 C4        -3.2511    2.5859   15.4092 C.2       1 RES1    0.0000
     15 H2        -3.8702    3.2061   15.7755 H         1 RES1    0.0000
     16 C5        -1.8911    3.0740   15.0561 C.2       1 RES1    0.0000
     17 C6        -0.9992    2.0336   14.5477 C.2       1 RES1    0.0000
     18 C7         0.3614    2.0025   14.1273 C.2       1 RES1    0.0000
     19 C8         1.3338    3.1035   13.9708 C.ar      1 RES1    0.0000
     20 C9         2.4866    3.1926   14.7569 C.ar      1 RES1    0.0000
     21 C10        3.4081    4.1986   14.5424 C.ar      1 RES1    0.0000
     22 H3         4.2096    4.2286   15.0503 H         1 RES1    0.0000
     23 C11        3.1549    5.1677   13.5764 C.ar      1 RES1    0.0000
     24 C12        2.0049    5.1215   12.7985 C.ar      1 RES1    0.0000
     25 H4         1.8381    5.7861   12.1399 H         1 RES1    0.0000
     26 C13        1.1036    4.0823   13.0020 C.ar      1 RES1    0.0000
     27 C14       -3.7988   -1.4824   16.1103 C.3       1 RES1    0.0000
     28 H5        -4.1686   -1.0175   16.8892 H         1 RES1    0.0000
     29 H6        -3.5932   -2.4096   16.3511 H         1 RES1    0.0000
     30 H7        -4.4547   -1.4706   15.3825 H         1 RES1    0.0000
     31 C15       -2.8227   -1.3668   12.9105 C.3       1 RES1    0.0000
     32 H8        -2.1624   -1.0513   12.2592 H         1 RES1    0.0000
     33 H9        -3.5165   -1.8831   12.4487 H         1 RES1    0.0000
     34 H10       -2.3799   -1.9346   13.5740 H         1 RES1    0.0000
     35 C16        3.7779    7.2761   12.6595 C.3       1 RES1    0.0000
     36 H11        4.0742    7.1065   11.7398 H         1 RES1    0.0000
     37 H12        4.2327    8.0717   13.0079 H         1 RES1    0.0000
     38 H13        2.8095    7.4237   12.6686 H         1 RES1    0.0000
     39 C17       -0.2967    4.8648   11.2340 C.3       1 RES1    0.0000
     40 H14       -0.7868    5.6384   11.5831 H         1 RES1    0.0000
     41 H15       -0.8292    4.4286   10.5373 H         1 RES1    0.0000
     42 H16        0.5566    5.1634   10.8555 H         1 RES1    0.0000
     43 C18        2.6351    2.2749   15.9517 C.3       1 RES1    0.0000
     44 H17        2.5324    1.3212   15.6679 H         1 RES1    0.0000
     45 C19        1.6171    1.8426   18.0231 C.3       1 RES1    0.0000
     46 H18        1.4583    0.8909   17.7992 H         1 RES1    0.0000
     47 H19        0.8978    2.1396   18.6368 H         1 RES1    0.0000
     48 C20        2.9604    1.9894   18.7025 C.3       1 RES1    0.0000
     49 H20        3.0713    2.9175   19.0322 H         1 RES1    0.0000
     50 H21        3.0137    1.3769   19.4790 H         1 RES1    0.0000
     51 C21        4.0491    1.6629   17.7157 C.3       1 RES1    0.0000
     52 H22        4.9339    1.8359   18.1244 H         1 RES1    0.0000
     53 H23        4.0026    0.7045   17.4740 H         1 RES1    0.0000
@<TRIPOS>BOND
     1    1    9 1
     2    2   11 1
     3    3   11 1
     4    4   16 2
     5    5   23 1
     6    6   26 1
     7    7   43 1
     8    8   43 1
     9    9   18 2
    10   10    1 1
    11   11   10 1
    12   12   11 1
    13   13   12 1
    14   14   12 2
    15   15   14 1
    16   16   14 1
    17   17   10 2
    18   18   17 1
    19   19   18 1
    20   20   19 ar
    21   21   20 ar
    22   22   21 1
    23   23   21 ar
    24   24   23 ar
    25   25   24 1
    26   26   19 ar
    27   27    2 1
    28   28   27 1
    29   29   27 1
    30   30   27 1
    31   31    3 1
    32   32   31 1
    33   33   31 1
    34   34   31 1
    35   35    5 1
    36   36   35 1
    37   37   35 1
    38   38   35 1
    39   39    6 1
    40   40   39 1
    41   41   39 1
    42   42   39 1
    43   43   20 1
    44   44   43 1
    45   45    7 1
    46   46   45 1
    47   47   45 1
    48   48   45 1
    49   49   48 1
    50   50   48 1
    51   51    8 1
    52   52   51 1
    53   53   51 1
    54   16   17 1
    55   24   26 ar
    56   48   51 1
@<TRIPOS>SUBSTRUCTURE
     1 RES1 1

@<TRIPOS>CRYSIN
  10.3010    8.4370   23.7600  90.0000 100.0500  90.0000  14 1

