# MOL2 file generated by ConQuest
# Please check atom types

@<TRIPOS>MOLECULE
WEGVUB
    56    59     1
SMALL
NO_CHARGES
****
Generated from CSD

@<TRIPOS>ATOM
      1 O1         6.5057   -0.1539   11.6336 O.3       1 RES1    0.0000
      2 O2         4.8162   -1.7740    9.9061 O.3       1 RES1    0.0000
      3 O3         6.4960   -3.0844   10.6022 O.3       1 RES1    0.0000
      4 O4         4.7547   -2.3817   15.2299 O.2       1 RES1    0.0000
      5 O5         8.2105   -1.0525   15.3241 O.3       1 RES1    0.0000
      6 O6         5.0355    2.9209   17.4812 O.3       1 RES1    0.0000
      7 O7         3.7408    0.8248   14.3961 O.3       1 RES1    0.0000
      8 O8         4.7023    2.9211   14.1205 O.3       1 RES1    0.0000
      9 N1         6.7956    0.6235   12.8136 N.2       1 RES1    0.0000
     10 C1         5.8525   -1.2486   12.0233 C.2       1 RES1    0.0000
     11 C2         5.4069   -2.3140   11.0463 C.3       1 RES1    0.0000
     12 C3         4.5102   -3.3209   11.7768 C.2       1 RES1    0.0000
     13 C4         4.3135   -3.2986   13.0855 C.2       1 RES1    0.0000
     14 H1         3.7515   -3.9682   13.4553 H         1 RES1    0.0000
     15 C5         4.9020   -2.3111   14.0136 C.2       1 RES1    0.0000
     16 C6         5.6653   -1.2569   13.3556 C.2       1 RES1    0.0000
     17 C7         6.2746   -0.0449   13.7997 C.2       1 RES1    0.0000
     18 C8         6.4406    0.4696   15.1918 C.ar      1 RES1    0.0000
     19 C9         7.5028   -0.0460   15.9368 C.ar      1 RES1    0.0000
     20 C10        7.7547    0.4462   17.2057 C.ar      1 RES1    0.0000
     21 H2         8.4746    0.0928   17.7150 H         1 RES1    0.0000
     22 C11        6.9546    1.4643   17.7440 C.ar      1 RES1    0.0000
     23 H3         7.1473    1.8158   18.6050 H         1 RES1    0.0000
     24 C12        5.8998    1.9478   17.0280 C.ar      1 RES1    0.0000
     25 C13        5.5832    1.4390   15.7265 C.ar      1 RES1    0.0000
     26 C14        4.3603    1.9256   15.0395 C.3       1 RES1    0.0000
     27 H4         3.7315    2.3058   15.7175 H         1 RES1    0.0000
     28 C15        2.5386    1.2156   13.7326 C.3       1 RES1    0.0000
     29 H5         1.8841    1.5463   14.3961 H         1 RES1    0.0000
     30 H6         2.1431    0.4334   13.2722 H         1 RES1    0.0000
     31 C16        2.8319    2.2895   12.7375 C.3       1 RES1    0.0000
     32 H7         1.9865    2.6133   12.3351 H         1 RES1    0.0000
     33 H8         3.4011    1.9289   12.0124 H         1 RES1    0.0000
     34 C17        3.5412    3.4305   13.4227 C.3       1 RES1    0.0000
     35 H9         3.8210    4.1035   12.7538 H         1 RES1    0.0000
     36 H10        2.9285    3.8688   14.0662 H         1 RES1    0.0000
     37 C18        3.6951   -0.9224   10.1581 C.3       1 RES1    0.0000
     38 H11        2.8733   -1.4568   10.1671 H         1 RES1    0.0000
     39 H12        3.6356   -0.2424    9.4548 H         1 RES1    0.0000
     40 H13        3.8080   -0.4836   11.0282 H         1 RES1    0.0000
     41 C19        7.5120   -2.3777    9.8862 C.3       1 RES1    0.0000
     42 H14        7.3017   -2.3844    8.9291 H         1 RES1    0.0000
     43 H15        8.3782   -2.8128   10.0330 H         1 RES1    0.0000
     44 H16        7.5529   -1.4520   10.2052 H         1 RES1    0.0000
     45 C20        3.8764   -4.3727   10.8922 C.3       1 RES1    0.0000
     46 H17        3.0128   -4.0464   10.5641 H         1 RES1    0.0000
     47 H18        3.7416   -5.1953   11.4070 H         1 RES1    0.0000
     48 H19        4.4659   -4.5566   10.1309 H         1 RES1    0.0000
     49 C21        9.3266   -1.5871   16.0293 C.3       1 RES1    0.0000
     50 H20       10.1340   -1.0877   15.7882 H         1 RES1    0.0000
     51 H21        9.4418   -2.5307   15.7918 H         1 RES1    0.0000
     52 H22        9.1701   -1.5112   16.9936 H         1 RES1    0.0000
     53 C22        5.3711    3.5364   18.7210 C.3       1 RES1    0.0000
     54 H23        4.9583    3.0365   19.4570 H         1 RES1    0.0000
     55 H24        5.0400    4.4591   18.7265 H         1 RES1    0.0000
     56 H25        6.3442    3.5375   18.8316 H         1 RES1    0.0000
@<TRIPOS>BOND
     1    1    9 1
     2    2   11 1
     3    3   11 1
     4    4   15 2
     5    5   19 1
     6    6   24 1
     7    7   26 1
     8    8   26 1
     9    9   17 2
    10   10    1 1
    11   11   10 1
    12   12   11 1
    13   13   12 2
    14   14   13 1
    15   15   13 1
    16   16   10 2
    17   17   16 1
    18   18   17 1
    19   19   18 ar
    20   20   19 ar
    21   21   20 1
    22   22   20 ar
    23   23   22 1
    24   24   22 ar
    25   25   18 ar
    26   26   25 1
    27   27   26 1
    28   28    7 1
    29   29   28 1
    30   30   28 1
    31   31   28 1
    32   32   31 1
    33   33   31 1
    34   34    8 1
    35   35   34 1
    36   36   34 1
    37   37    2 1
    38   38   37 1
    39   39   37 1
    40   40   37 1
    41   41    3 1
    42   42   41 1
    43   43   41 1
    44   44   41 1
    45   45   12 1
    46   46   45 1
    47   47   45 1
    48   48   45 1
    49   49    5 1
    50   50   49 1
    51   51   49 1
    52   52   49 1
    53   53    6 1
    54   54   53 1
    55   55   53 1
    56   56   53 1
    57   15   16 1
    58   24   25 ar
    59   31   34 1
@<TRIPOS>SUBSTRUCTURE
     1 RES1 1

@<TRIPOS>CRYSIN
   7.5730    8.3940   18.2580  87.4800  83.1200  69.4400   2 1

