# MOL2 file generated by ConQuest
# Please check atom types

@<TRIPOS>MOLECULE
WEGVAH
    57    60     1
SMALL
NO_CHARGES
****
Generated from CSD

@<TRIPOS>ATOM
      1 H1         1.2301    8.8396    2.9388 H         1 RES1    0.0000
      2 O1         2.1476    9.7912    1.5323 O.3       1 RES1    0.0000
      3 O2         2.1749   14.7943    4.4581 O.3       1 RES1    0.0000
      4 O3         2.4921   15.3642    1.7776 O.3       1 RES1    0.0000
      5 O4         0.7457   13.7263    3.0474 O.3       1 RES1    0.0000
      6 O5         2.0409   11.8816    5.0627 O.3       1 RES1    0.0000
      7 O6         5.5039    5.3780    2.7930 O.3       1 RES1    0.0000
      8 O7         4.9353   11.2911    1.5505 O.2       1 RES1    0.0000
      9 O8         1.4403    7.5881    1.4084 O.3       1 RES1    0.0000
     10 C1         2.5598   12.4537    3.9651 C.2       1 RES1    0.0000
     11 C2         3.8759    9.0620    3.7700 C.ar      1 RES1    0.0000
     12 O9         5.6187    9.5791    5.2233 O.3       1 RES1    0.0000
     13 C3         4.0959   11.9983    2.0920 C.2       1 RES1    0.0000
     14 C4         3.2323    8.1832    2.8870 C.ar      1 RES1    0.0000
     15 C5         3.7336   13.3255    1.5764 C.2       1 RES1    0.0000
     16 H2         4.1365   13.6232    0.7690 H         1 RES1    0.0000
     17 C6         3.3960   11.6075    3.3222 C.2       1 RES1    0.0000
     18 C7         1.9215    8.6047    2.2520 C.3       1 RES1    0.0000
     19 C8         2.8567   14.1416    2.1952 C.2       1 RES1    0.0000
     20 C9         5.0678    8.6629    4.3786 C.ar      1 RES1    0.0000
     21 N1         2.5246   10.5364    5.1126 N.2       1 RES1    0.0000
     22 C10        4.9992    6.5799    3.1960 C.ar      1 RES1    0.0000
     23 C11        5.6397    7.4195    4.1031 C.ar      1 RES1    0.0000
     24 H3         6.4480    7.1523    4.5246 H         1 RES1    0.0000
     25 C12        3.0683   15.8221    0.5425 C.3       1 RES1    0.0000
     26 H4         4.0334   15.9451    0.6580 H         1 RES1    0.0000
     27 H5         2.6579   16.6739    0.2866 H         1 RES1    0.0000
     28 H6         2.9061   15.1571   -0.1600 H         1 RES1    0.0000
     29 C13        3.7841    6.9424    2.6139 C.ar      1 RES1    0.0000
     30 H7         3.3364    6.3392    2.0312 H         1 RES1    0.0000
     31 C14        3.3093   10.3945    4.0729 C.2       1 RES1    0.0000
     32 C15        2.0770   13.7962    3.4729 C.3       1 RES1    0.0000
     33 C16        6.8253    5.0279    3.2346 C.3       1 RES1    0.0000
     34 H8         7.4484    5.7479    3.0021 H         1 RES1    0.0000
     35 H9         7.1069    4.1979    2.7967 H         1 RES1    0.0000
     36 H10        6.8215    4.8999    4.2058 H         1 RES1    0.0000
     37 C17       -0.2449   13.3793    4.0283 C.3       1 RES1    0.0000
     38 H11       -0.2097   12.4152    4.2010 H         1 RES1    0.0000
     39 H12       -1.1340   13.6192    3.6935 H         1 RES1    0.0000
     40 H13       -0.0666   13.8670    4.8590 H         1 RES1    0.0000
     41 C18        6.7454    9.1914    5.9967 C.3       1 RES1    0.0000
     42 H14        6.5349    8.3737    6.4937 H         1 RES1    0.0000
     43 H15        6.9706    9.9074    6.6275 H         1 RES1    0.0000
     44 H16        7.5080    9.0265    5.4035 H         1 RES1    0.0000
     45 C19        3.5202   15.1177    4.8203 C.3       1 RES1    0.0000
     46 H17        4.0155   14.2925    5.0058 H         1 RES1    0.0000
     47 H18        3.5156   15.6832    5.6196 H         1 RES1    0.0000
     48 H19        3.9505   15.5979    4.0828 H         1 RES1    0.0000
     49 C20        0.1707    7.9734    0.8357 C.3       1 RES1    0.0000
     50 H20       -0.5063    8.0420    1.5548 H         1 RES1    0.0000
     51 H21       -0.1278    7.2759    0.1994 H         1 RES1    0.0000
     52 C21        0.2724    9.3053    0.1114 C.3       1 RES1    0.0000
     53 H22        0.8189    9.2002   -0.7069 H         1 RES1    0.0000
     54 H23       -0.6304    9.6112   -0.1552 H         1 RES1    0.0000
     55 C22        0.9077   10.3239    1.0212 C.3       1 RES1    0.0000
     56 H24        1.0816   11.1601    0.5206 H         1 RES1    0.0000
     57 H25        0.2968   10.5323    1.7721 H         1 RES1    0.0000
@<TRIPOS>BOND
     1    1   18 1
     2    2   18 1
     3    3   32 1
     4    4   19 1
     5    5   32 1
     6    6   10 1
     7    7   22 1
     8    8   13 2
     9    9   18 1
    10   10   17 2
    11   11   14 ar
    12   12   20 1
    13   13   15 1
    14   14   18 1
    15   15   16 1
    16   17   13 1
    17   19   15 2
    18   20   11 ar
    19   21    6 1
    20   22   23 ar
    21   23   20 ar
    22   24   23 1
    23   25    4 1
    24   26   25 1
    25   27   25 1
    26   28   25 1
    27   29   14 ar
    28   30   29 1
    29   31   11 1
    30   32   10 1
    31   33    7 1
    32   34   33 1
    33   35   33 1
    34   36   33 1
    35   37    5 1
    36   38   37 1
    37   39   37 1
    38   40   37 1
    39   41   12 1
    40   42   41 1
    41   43   41 1
    42   44   41 1
    43   45    3 1
    44   46   45 1
    45   47   45 1
    46   48   45 1
    47   49    9 1
    48   50   49 1
    49   51   49 1
    50   52   49 1
    51   53   52 1
    52   54   52 1
    53   55    2 1
    54   56   55 1
    55   57   55 1
    56   17   31 1
    57   19   32 1
    58   21   31 2
    59   22   29 ar
    60   52   55 1
@<TRIPOS>SUBSTRUCTURE
     1 RES1 1

@<TRIPOS>CRYSIN
   7.3141   11.8710   12.5790  72.8520  83.7150  89.9020   2 1

