# MOL2 file generated by ConQuest
# Please check atom types

@<TRIPOS>MOLECULE
WEGWIP
    46    50     1
SMALL
NO_CHARGES
****
Generated from CSD

@<TRIPOS>ATOM
      1 N1        -2.1966    8.0102    7.3030 N.3       1 RES1    0.0000
      2 N2        -2.8699    5.9272    6.2801 N.2       1 RES1    0.0000
      3 N3        -1.9112   14.4958    6.6571 N.pl3     1 RES1    0.0000
      4 O1        -2.6000   15.2284    5.9875 O.2       1 RES1    0.0000
      5 O2        -1.0600   14.9141    7.4326 O.2       1 RES1    0.0000
      6 C1        -1.5715    7.8360    5.9826 C.3       1 RES1    0.0000
      7 H1        -0.6505    8.1265    5.8197 H         1 RES1    0.0000
      8 C2        -2.0704    6.5027    5.4653 C.2       1 RES1    0.0000
      9 C3        -2.9531    6.7310    7.5279 C.3       1 RES1    0.0000
     10 C4        -2.6711    8.8322    6.1682 C.3       1 RES1    0.0000
     11 H2        -3.5421    8.5838    5.7941 H         1 RES1    0.0000
     12 C5        -1.6647    5.9281    4.1772 C.ar      1 RES1    0.0000
     13 C6        -0.9771    6.6406    3.2426 C.ar      1 RES1    0.0000
     14 H3        -0.7872    7.5366    3.4056 H         1 RES1    0.0000
     15 C7        -0.5402    6.0486    2.0194 C.ar      1 RES1    0.0000
     16 C8        -0.8476    4.6645    1.8024 C.ar      1 RES1    0.0000
     17 C9        -1.5731    3.9490    2.7734 C.ar      1 RES1    0.0000
     18 H4        -1.7699    3.0515    2.6349 H         1 RES1    0.0000
     19 C10       -1.9836    4.5556    3.8984 C.ar      1 RES1    0.0000
     20 H5        -2.4869    4.0738    4.5140 H         1 RES1    0.0000
     21 C11       -2.1822    5.9782    8.6244 C.3       1 RES1    0.0000
     22 H6        -1.2657    5.8749    8.3584 H         1 RES1    0.0000
     23 H7        -2.5770    5.1133    8.7560 H         1 RES1    0.0000
     24 H8        -2.2230    6.4760    9.4442 H         1 RES1    0.0000
     25 C12       -4.4220    6.9601    7.9225 C.3       1 RES1    0.0000
     26 H9        -4.8844    7.3925    7.2000 H         1 RES1    0.0000
     27 H10       -4.4611    7.5151    8.7049 H         1 RES1    0.0000
     28 H11       -4.8391    6.1151    8.1090 H         1 RES1    0.0000
     29 C13       -2.4090   10.2984    6.2938 C.ar      1 RES1    0.0000
     30 C14       -3.0986   11.1812    5.4486 C.ar      1 RES1    0.0000
     31 H12       -3.6740   10.8453    4.7996 H         1 RES1    0.0000
     32 C15       -2.9290   12.5491    5.5752 C.ar      1 RES1    0.0000
     33 H13       -3.4044   13.1336    5.0294 H         1 RES1    0.0000
     34 C16       -2.0539   13.0375    6.5128 C.ar      1 RES1    0.0000
     35 C17       -1.3325   12.1904    7.3423 C.ar      1 RES1    0.0000
     36 H14       -0.7399   12.5313    7.9726 H         1 RES1    0.0000
     37 C18       -1.5172   10.8269    7.2088 C.ar      1 RES1    0.0000
     38 H15       -1.0279   10.2491    7.7497 H         1 RES1    0.0000
     39 C19        0.1623    6.7761    1.0446 C.ar      1 RES1    0.0000
     40 H16        0.3451    7.6773    1.1810 H         1 RES1    0.0000
     41 C20        0.5815    6.1570   -0.1139 C.ar      1 RES1    0.0000
     42 H17        1.0404    6.6475   -0.7579 H         1 RES1    0.0000
     43 C21        0.3239    4.7963   -0.3318 C.ar      1 RES1    0.0000
     44 H18        0.6306    4.3884   -1.1093 H         1 RES1    0.0000
     45 C22       -0.3740    4.0634    0.5881 C.ar      1 RES1    0.0000
     46 H19       -0.5432    3.1635    0.4251 H         1 RES1    0.0000
@<TRIPOS>BOND
     1    1    6 1
     2    2    8 2
     3    3    4 2
     4    5    3 2
     5    6    7 1
     6    8    6 1
     7    9    1 1
     8   10    1 1
     9   11   10 1
    10   12    8 1
    11   13   12 ar
    12   14   13 1
    13   15   13 ar
    14   16   15 ar
    15   17   16 ar
    16   18   17 1
    17   19   12 ar
    18   20   19 1
    19   21    9 1
    20   22   21 1
    21   23   21 1
    22   24   21 1
    23   25    9 1
    24   26   25 1
    25   27   25 1
    26   28   25 1
    27   29   10 1
    28   30   29 ar
    29   31   30 1
    30   32   30 ar
    31   33   32 1
    32   34    3 1
    33   35   34 ar
    34   36   35 1
    35   37   29 ar
    36   38   37 1
    37   39   15 ar
    38   40   39 1
    39   41   39 ar
    40   42   41 1
    41   43   41 ar
    42   44   43 1
    43   45   16 ar
    44   46   45 1
    45    2    9 1
    46    6   10 1
    47   17   19 ar
    48   32   34 ar
    49   35   37 ar
    50   43   45 ar
@<TRIPOS>SUBSTRUCTURE
     1 RES1 1

@<TRIPOS>CRYSIN
  10.1340   10.3130   10.5460 106.4800  96.3900 111.3100   2 1

