# MOL2 file generated by ConQuest
# Please check atom types

@<TRIPOS>MOLECULE
WEHJUP
    31    32     1
SMALL
NO_CHARGES
****
Generated from CSD

@<TRIPOS>ATOM
      1 N1         6.7376    0.8517    5.1139 N.pl3     1 RES1    0.0000
      2 N2         6.6779    3.1785    6.9059 N.pl3     1 RES1    0.0000
      3 H1         5.8485    2.9311    6.6548 H         1 RES1    0.0000
      4 O1         9.9899    1.7263    4.6757 O.2       1 RES1    0.0000
      5 N3         8.8331    1.1819    4.6854 N.pl3     1 RES1    0.0000
      6 C1         7.7782    1.6302    5.3738 C.2       1 RES1    0.0000
      7 O2         5.5815    0.9951    5.6420 O.2       1 RES1    0.0000
      8 N4         6.9514    4.1192    7.8188 N.2       1 RES1    0.0000
      9 C2         7.7986    2.7167    6.3014 C.2       1 RES1    0.0000
     10 C3         7.0254   -0.2576    4.1648 C.3       1 RES1    0.0000
     11 C4         8.8434    3.3904    6.8681 C.2       1 RES1    0.0000
     12 H2         9.6896    3.2384    6.6914 H         1 RES1    0.0000
     13 C5         8.2699    4.2319    7.8042 C.2       1 RES1    0.0000
     14 H3         8.6965    4.8378    8.4099 H         1 RES1    0.0000
     15 C6         8.5532   -0.0780    3.9368 C.3       1 RES1    0.0000
     16 C7         9.4119   -1.1464    4.6011 C.3       1 RES1    0.0000
     17 H4         9.0237   -1.4813    5.3629 H         1 RES1    0.0000
     18 H5         9.1410   -2.0092    4.0953 H         1 RES1    0.0000
     19 H6        10.3236   -0.8588    4.4853 H         1 RES1    0.0000
     20 C8         8.9665    0.1308    2.5023 C.3       1 RES1    0.0000
     21 H7         9.8493    0.3624    2.4742 H         1 RES1    0.0000
     22 H8         8.3845    0.8273    2.1208 H         1 RES1    0.0000
     23 H9         8.8598   -0.7328    2.0355 H         1 RES1    0.0000
     24 C9         6.1676   -0.0299    2.9484 C.3       1 RES1    0.0000
     25 H10        6.3778   -0.8352    2.2792 H         1 RES1    0.0000
     26 H11        5.3272   -0.0630    3.2055 H         1 RES1    0.0000
     27 H12        6.4691    0.8116    2.5352 H         1 RES1    0.0000
     28 C10        6.6432   -1.5514    4.8558 C.3       1 RES1    0.0000
     29 H13        5.7524   -1.4892    4.9850 H         1 RES1    0.0000
     30 H14        6.8591   -2.3165    4.2781 H         1 RES1    0.0000
     31 H15        7.1718   -1.5995    5.8016 H         1 RES1    0.0000
@<TRIPOS>BOND
     1    1    6 1
     2    2    3 1
     3    4    5 1
     4    5    6 2
     5    6    9 1
     6    7    1 2
     7    8    2 1
     8    9    2 1
     9   10    1 1
    10   11    9 2
    11   12   11 1
    12   13    8 2
    13   14   13 1
    14   15    5 1
    15   16   15 1
    16   17   16 1
    17   18   16 1
    18   19   16 1
    19   20   15 1
    20   21   20 1
    21   22   20 1
    22   23   20 1
    23   24   10 1
    24   25   24 1
    25   26   24 1
    26   27   24 1
    27   28   10 1
    28   29   28 1
    29   30   28 1
    30   31   28 1
    31   10   15 1
    32   11   13 1
@<TRIPOS>SUBSTRUCTURE
     1 RES1 1

@<TRIPOS>CRYSIN
  23.5220    7.8792   12.4170  90.0000 101.0130  90.0000  15 1

