# MOL2 file generated by ConQuest
# Please check atom types

@<TRIPOS>MOLECULE
WEHKAW
    40    41     1
SMALL
NO_CHARGES
****
Generated from CSD

@<TRIPOS>ATOM
      1 N1         2.3294    2.0987    2.9924 N.pl3     1 RES1    0.0000
      2 O1         3.2916    2.9348    3.0788 O.2       1 RES1    0.0000
      3 C1         1.7467    1.4023    4.1938 C.3       1 RES1    0.0000
      4 O2        -0.1779    0.4672    1.3486 O.2       1 RES1    0.0000
      5 N2         0.7059    0.9019    2.1659 N.pl3     1 RES1    0.0000
      6 C2         0.8459    2.4039    4.8792 C.3       1 RES1    0.0000
      7 H1         1.4432    3.2481    5.0919 H         1 RES1    0.0000
      8 H2         0.0835    2.7260    4.2755 H         1 RES1    0.0000
      9 H3         0.4919    1.9326    5.7150 H         1 RES1    0.0000
     10 N3         1.1049    2.0933   -0.4868 N.pl3     1 RES1    0.0000
     11 H4         0.6794    1.2816   -0.4512 H         1 RES1    0.0000
     12 O3         2.7428    4.5765   -3.3027 O.2       1 RES1    0.0000
     13 C3         2.8511    0.9412    5.1113 C.3       1 RES1    0.0000
     14 H5         3.2395    1.6410    5.5431 H         1 RES1    0.0000
     15 H6         2.4535    0.4408    5.7365 H         1 RES1    0.0000
     16 H7         3.4730    0.3933    4.6622 H         1 RES1    0.0000
     17 O4         3.5945    5.5618   -1.5003 O.3       1 RES1    0.0000
     18 N4         1.4351    2.7673   -1.5817 N.2       1 RES1    0.0000
     19 C4         0.9672    0.2617    3.4913 C.3       1 RES1    0.0000
     20 C5        -0.3370   -0.1390    4.1530 C.3       1 RES1    0.0000
     21 H8        -0.9628    0.5899    4.1681 H         1 RES1    0.0000
     22 H9        -0.8249   -0.9087    3.6309 H         1 RES1    0.0000
     23 H10       -0.0419   -0.5289    4.9415 H         1 RES1    0.0000
     24 C6         1.8077   -0.9697    3.1884 C.3       1 RES1    0.0000
     25 H11        1.2424   -1.6207    2.7501 H         1 RES1    0.0000
     26 H12        2.5684   -0.6510    2.8360 H         1 RES1    0.0000
     27 H13        2.0764   -1.4240    4.0606 H         1 RES1    0.0000
     28 C7         1.5910    1.8607    1.8971 C.2       1 RES1    0.0000
     29 C8         1.7788    2.5096    0.6102 C.2       1 RES1    0.0000
     30 C9         2.5469    3.5648    0.2191 C.2       1 RES1    0.0000
     31 H14        3.0714    4.0144    0.8164 H         1 RES1    0.0000
     32 C10        2.2931    3.6936   -1.1537 C.2       1 RES1    0.0000
     33 C11        2.8872    4.6240   -2.1141 C.2       1 RES1    0.0000
     34 C12        4.1718    6.5966   -2.3741 C.3       1 RES1    0.0000
     35 H15        4.8703    6.2053   -2.9219 H         1 RES1    0.0000
     36 H16        3.4839    6.9410   -2.9649 H         1 RES1    0.0000
     37 C13        4.7005    7.6381   -1.6243 C.3       1 RES1    0.0000
     38 H17        5.0723    8.2993   -2.2108 H         1 RES1    0.0000
     39 H18        5.3891    7.2991   -1.0463 H         1 RES1    0.0000
     40 H19        4.0057    8.0355   -1.0936 H         1 RES1    0.0000
@<TRIPOS>BOND
     1    1    2 1
     2    3    1 1
     3    4    5 2
     4    5   19 1
     5    6    3 1
     6    7    6 1
     7    8    6 1
     8    9    6 1
     9   10   11 1
    10   12   33 2
    11   13    3 1
    12   14   13 1
    13   15   13 1
    14   16   13 1
    15   17   33 1
    16   18   10 1
    17   19    3 1
    18   20   19 1
    19   21   20 1
    20   22   20 1
    21   23   20 1
    22   24   19 1
    23   25   24 1
    24   26   24 1
    25   27   24 1
    26   28    1 2
    27   29   10 1
    28   30   29 2
    29   31   30 1
    30   32   18 2
    31   33   32 1
    32   34   17 1
    33   35   34 1
    34   36   34 1
    35   37   34 1
    36   38   37 1
    37   39   37 1
    38   40   37 1
    39    5   28 1
    40   28   29 1
    41   30   32 1
@<TRIPOS>SUBSTRUCTURE
     1 RES1 1

@<TRIPOS>CRYSIN
  10.1880    6.7810   21.9930  90.0000 102.3400  90.0000  14 1

