# MOL2 file generated by ConQuest
# Please check atom types

@<TRIPOS>MOLECULE
WEHKUQ
    52    53     1
SMALL
NO_CHARGES
****
Generated from CSD

@<TRIPOS>ATOM
      1 O1         6.7903    4.3788    2.7930 O.3       1 RES1    0.0000
      2 H1         6.7981    5.2779    3.0745 H         1 RES1    0.0000
      3 N1         5.7966    4.2543    1.7617 N.3       1 RES1    0.0000
      4 C1         6.4070    4.1213    0.4104 C.3       1 RES1    0.0000
      5 O2         5.6291    1.1703    0.7601 O.3       1 RES1    0.0000
      6 H2         5.0793    0.5922    0.2593 H         1 RES1    0.0000
      7 N2         4.7884    2.3553    0.7483 N.3       1 RES1    0.0000
      8 C2         6.5733    5.5481   -0.1267 C.3       1 RES1    0.0000
      9 H3         7.2719    5.9593    0.4741 H         1 RES1    0.0000
     10 H4         5.7183    6.1567    0.1926 H         1 RES1    0.0000
     11 H5         6.8752    5.4306   -1.0446 H         1 RES1    0.0000
     12 N3         2.2245    4.9113    3.4094 N.2       1 RES1    0.0000
     13 O3         1.5007    0.6037    2.9708 O.2       1 RES1    0.0000
     14 C3         7.7401    3.3768    0.4386 C.3       1 RES1    0.0000
     15 H6         8.2635    3.8468    1.0224 H         1 RES1    0.0000
     16 H7         8.0101    3.5014   -0.4890 H         1 RES1    0.0000
     17 H8         7.7126    2.4768    0.8075 H         1 RES1    0.0000
     18 O4         3.6950    0.6735    3.1812 O.3       1 RES1    0.0000
     19 N4         3.4541    4.7057    2.9219 N.pl3     1 RES1    0.0000
     20 H9         4.0656    5.3930    2.7189 H         1 RES1    0.0000
     21 C4         5.2842    3.3131   -0.2941 C.3       1 RES1    0.0000
     22 O5        -0.2710    4.6441    4.3784 O.2       1 RES1    0.0000
     23 C5         4.0579    4.1711   -0.6201 C.3       1 RES1    0.0000
     24 H10        3.3715    3.6682   -0.9779 H         1 RES1    0.0000
     25 H11        4.3962    4.7656   -1.2965 H         1 RES1    0.0000
     26 H12        3.7902    4.7256    0.1556 H         1 RES1    0.0000
     27 O6        -0.3269    2.5308    3.7569 O.3       1 RES1    0.0000
     28 C6         5.7316    2.5778   -1.5565 C.3       1 RES1    0.0000
     29 H13        4.9912    2.0820   -1.9558 H         1 RES1    0.0000
     30 H14        6.4455    1.8799   -1.3854 H         1 RES1    0.0000
     31 H15        6.0489    3.3016   -2.2151 H         1 RES1    0.0000
     32 C7         5.0363    3.0300    2.0359 C.3       1 RES1    0.0000
     33 H16        5.4429    2.4533    2.5856 H         1 RES1    0.0000
     34 C8         3.7406    3.4146    2.6856 C.2       1 RES1    0.0000
     35 C9         2.6113    2.7083    3.0567 C.2       1 RES1    0.0000
     36 C10        2.5088    1.2346    3.0760 C.2       1 RES1    0.0000
     37 C11        3.7604   -0.7781    3.1449 C.3       1 RES1    0.0000
     38 H17        3.4707   -1.0504    2.2744 H         1 RES1    0.0000
     39 H18        3.0410   -1.1397    3.7043 H         1 RES1    0.0000
     40 C12        5.1520   -1.1724    3.5109 C.3       1 RES1    0.0000
     41 H19        5.2005   -2.1972    3.4820 H         1 RES1    0.0000
     42 H20        5.3107   -0.8742    4.5340 H         1 RES1    0.0000
     43 H21        5.7183   -0.8483    2.8745 H         1 RES1    0.0000
     44 C13        1.6858    3.6990    3.4694 C.2       1 RES1    0.0000
     45 C14        0.2710    3.6774    3.9324 C.2       1 RES1    0.0000
     46 C15       -1.7563    2.4787    4.0873 C.3       1 RES1    0.0000
     47 H22       -2.1926    3.2664    3.6820 H         1 RES1    0.0000
     48 H23       -1.7849    2.5849    5.0822 H         1 RES1    0.0000
     49 C16       -2.2818    1.2008    3.5790 C.3       1 RES1    0.0000
     50 H24       -3.2393    1.1703    3.8598 H         1 RES1    0.0000
     51 H25       -1.8731    0.5170    4.0302 H         1 RES1    0.0000
     52 H26       -2.0604    1.1750    2.6152 H         1 RES1    0.0000
@<TRIPOS>BOND
     1    1    2 1
     2    3    1 1
     3    4    3 1
     4    5    6 1
     5    7    5 1
     6    8    4 1
     7    9    8 1
     8   10    8 1
     9   11    8 1
    10   12   19 1
    11   13   36 2
    12   14    4 1
    13   15   14 1
    14   16   14 1
    15   17   14 1
    16   18   36 1
    17   19   20 1
    18   21    4 1
    19   22   45 2
    20   23   21 1
    21   24   23 1
    22   25   23 1
    23   26   23 1
    24   27   45 1
    25   28   21 1
    26   29   28 1
    27   30   28 1
    28   31   28 1
    29   32    3 1
    30   33   32 1
    31   34   19 1
    32   35   34 2
    33   36   35 1
    34   37   18 1
    35   38   37 1
    36   39   37 1
    37   40   37 1
    38   41   40 1
    39   42   40 1
    40   43   40 1
    41   44   12 2
    42   45   44 1
    43   46   27 1
    44   47   46 1
    45   48   46 1
    46   49   46 1
    47   50   49 1
    48   51   49 1
    49   52   49 1
    50    7   21 1
    51    7   32 1
    52   32   34 1
    53   35   44 1
@<TRIPOS>SUBSTRUCTURE
     1 RES1 1

@<TRIPOS>CRYSIN
  11.0180   23.4990    7.4085  90.0000  90.0000  90.0000  19 1

