# MOL2 file generated by ConQuest
# Please check atom types

@<TRIPOS>MOLECULE
WEHKOK
    30    31     1
SMALL
NO_CHARGES
****
Generated from CSD

@<TRIPOS>ATOM
      1 N1         9.2390    1.0281    2.6896 N.2       1 RES1    0.0000
      2 C1         8.8120    2.2063    2.9881 C.2       1 RES1    0.0000
      3 N2         7.4585    2.2063    3.3132 N.pl3     1 RES1    0.0000
      4 C2         9.5978    3.4333    3.0129 C.2       1 RES1    0.0000
      5 N3        10.8780    3.3979    2.6296 N.2       1 RES1    0.0000
      6 O1         6.7633    3.2131    3.6498 O.2       1 RES1    0.0000
      7 N4        11.2875    4.6687    2.7688 N.3       1 RES1    0.0000
      8 C3         6.8606    0.8944    2.9604 C.3       1 RES1    0.0000
      9 C4         9.2219    4.7293    3.3723 C.2       1 RES1    0.0000
     10 C5        10.3288    5.4803    3.1978 C.2       1 RES1    0.0000
     11 C6         8.1464    0.0438    2.9004 C.3       1 RES1    0.0000
     12 C7         6.1807    1.0920    1.6161 C.3       1 RES1    0.0000
     13 C8         8.1762   -0.9718    1.7724 C.3       1 RES1    0.0000
     14 C9         8.4608   -0.6475    4.2247 C.3       1 RES1    0.0000
     15 C10        5.8146    0.5143    3.9968 C.3       1 RES1    0.0000
     16 H1         8.1610   -0.5777    0.9058 H         1 RES1    0.0000
     17 H2         8.3728    4.9287    3.6517 H         1 RES1    0.0000
     18 H3        10.5404    6.4194    3.3370 H         1 RES1    0.0000
     19 H4         7.4149   -1.5932    1.8687 H         1 RES1    0.0000
     20 H5         5.7664    0.2702    1.2871 H         1 RES1    0.0000
     21 H6         6.2571    0.4099    4.9388 H         1 RES1    0.0000
     22 H7        12.1442    4.9101    2.6124 H         1 RES1    0.0000
     23 H8         6.9178    1.3137    0.9439 H         1 RES1    0.0000
     24 H9         5.1059    1.1926    4.0521 H         1 RES1    0.0000
     25 H10        8.4638    0.0373    4.9674 H         1 RES1    0.0000
     26 H11        5.5139   -0.4006    3.8137 H         1 RES1    0.0000
     27 H12        9.4023   -1.0062    4.2142 H         1 RES1    0.0000
     28 H13        7.8318   -1.3230    4.3191 H         1 RES1    0.0000
     29 H14        8.9964   -1.4628    1.8306 H         1 RES1    0.0000
     30 H15        5.4982    1.7889    1.6780 H         1 RES1    0.0000
@<TRIPOS>BOND
     1    1    2 2
     2    2    3 1
     3    3    6 2
     4    4    2 1
     5    5    4 2
     6    7    5 1
     7    8    3 1
     8    9    4 1
     9   10    7 1
    10   11    1 1
    11   12    8 1
    12   13   11 1
    13   14   11 1
    14   15    8 1
    15   16   13 1
    16   17    9 1
    17   18   10 1
    18   19   13 1
    19   20   12 1
    20   21   15 1
    21   22    7 1
    22   23   12 1
    23   24   15 1
    24   25   14 1
    25   26   15 1
    26   27   14 1
    27   28   14 1
    28   29   13 1
    29   30   12 1
    30    8   11 1
    31    9   10 2
@<TRIPOS>SUBSTRUCTURE
     1 RES1 1

@<TRIPOS>CRYSIN
  12.5310    9.3170   10.2600  90.0000 111.6780  90.0000  14 1

