# MOL2 file generated by ConQuest
# Please check atom types

@<TRIPOS>MOLECULE
WEHLAX
    37    38     1
SMALL
USER_CHARGES
****
Generated from CSD

@<TRIPOS>ATOM
      1 O1        -0.2628    4.0242    8.5450 O.3       1 RES1    0.0000
      2 H1        -0.4106    3.2040    8.9747 H         1 RES1    0.0000
      3 N1        -1.6871    4.4838    5.4291 N.pl3     1 RES1    0.0000
      4 H2        -2.3151    4.8813    4.9006 H         1 RES1    0.0000
      5 C1        -1.0482    3.1807    5.0926 C.3       1 RES1    0.0000
      6 O2         0.4539    6.7413    7.8716 O.2       1 RES1    0.0000
      7 N2        -0.7458    3.8553    7.2692 N.pl3     1 RES1    1.0000
      8 C2        -0.4480    3.2053    3.6964 C.3       1 RES1    0.0000
      9 H3         0.1546    2.4377    3.5834 H         1 RES1    0.0000
     10 H4         0.1424    4.0117    3.5460 H         1 RES1    0.0000
     11 H5        -1.1415    3.2911    3.0088 H         1 RES1    0.0000
     12 N3        -4.0199    6.8384    7.9951 N.pl3     1 RES1    0.0000
     13 H6        -4.9252    7.0119    8.0179 H         1 RES1    0.0000
     14 O3        -0.2101    7.9089    9.6176 O.3       1 RES1    0.0000
     15 H7        -1.0600    8.1975    9.9949 H         1 RES1    0.0000
     16 C3        -2.1244    2.1067    5.1989 C.3       1 RES1    0.0000
     17 H8        -2.4855    2.0036    6.1338 H         1 RES1    0.0000
     18 H9        -2.8063    2.3462    4.5339 H         1 RES1    0.0000
     19 H10       -1.7205    1.2107    4.8812 H         1 RES1    0.0000
     20 N4        -3.6105    5.8047    7.2498 N.2       1 RES1    0.0000
     21 O4        -2.3910    8.9253   10.3491 O.co2     1 RES1    0.0000
     22 C4         0.0123    3.0996    6.2334 C.3       1 RES1    0.0000
     23 O5        -4.3593    9.2494    9.3717 O.co2     1 RES1   -1.0000
     24 C5         1.2842    3.8768    5.9466 C.3       1 RES1    0.0000
     25 H11        1.0482    4.7809    5.6328 H         1 RES1    0.0000
     26 H12        1.8064    3.3900    5.1924 H         1 RES1    0.0000
     27 H13        1.7886    3.8773    6.7666 H         1 RES1    0.0000
     28 C6         0.3377    1.6955    6.7059 C.3       1 RES1    0.0000
     29 H14        0.7123    1.1827    5.9156 H         1 RES1    0.0000
     30 H15       -0.4834    1.1487    6.9938 H         1 RES1    0.0000
     31 H16        0.9749    1.7482    7.4019 H         1 RES1    0.0000
     32 C7        -1.5565    4.7298    6.7218 C.2       1 RES1    0.0000
     33 C8        -2.2883    5.7821    7.4140 C.2       1 RES1    0.0000
     34 C9        -1.8506    6.8002    8.2814 C.2       1 RES1    0.0000
     35 C10       -0.4483    7.1476    8.5775 C.2       1 RES1    0.0000
     36 C11       -3.0238    7.4612    8.6345 C.2       1 RES1    0.0000
     37 C12       -3.2776    8.6363    9.5188 C.2       1 RES1    0.0000
@<TRIPOS>BOND
     1    1    2 1
     2    3    4 1
     3    5    3 1
     4    6   35 2
     5    7    1 1
     6    8    5 1
     7    9    8 1
     8   10    8 1
     9   11    8 1
    10   12   13 1
    11   14   15 1
    12   16    5 1
    13   17   16 1
    14   18   16 1
    15   19   16 1
    16   20   12 1
    17   21   37 2
    18   22    5 1
    19   23   37 1
    20   24   22 1
    21   25   24 1
    22   26   24 1
    23   27   24 1
    24   28   22 1
    25   29   28 1
    26   30   28 1
    27   31   28 1
    28   32    3 1
    29   33   20 2
    30   34   33 1
    31   35   14 1
    32   36   12 1
    33   37   36 1
    34    7   22 1
    35    7   32 2
    36   32   33 1
    37   34   35 1
    38   34   36 2
@<TRIPOS>SUBSTRUCTURE
     1 RES1 1

@<TRIPOS>CRYSIN
   7.2370   14.7650   12.9380  90.0000  93.5410  90.0000 231 1

