# MOL2 file generated by ConQuest
# Please check atom types

@<TRIPOS>MOLECULE
WEHLOL
    36    37     1
SMALL
NO_CHARGES
****
Generated from CSD

@<TRIPOS>ATOM
      1 O1         1.9155    1.5231   11.2645 O.3       1 RES1    0.0000
      2 O2         4.3645   -1.7846   11.0014 O.3       1 RES1    0.0000
      3 O3         6.1693    1.3874   10.8121 O.3       1 RES1    0.0000
      4 C1         3.4228    1.1089   13.0807 C.3       1 RES1    0.0000
      5 N1         2.8613    0.5709   11.8103 N.3       1 RES1    0.0000
      6 C2         3.9982    0.5150   10.8571 C.3       1 RES1    0.0000
      7 N2         5.2067    0.7625   11.6810 N.3       1 RES1    0.0000
      8 C3         4.7366    1.7577   12.6607 C.3       1 RES1    0.0000
      9 C4         5.7244    2.0122   13.7938 C.3       1 RES1    0.0000
     10 C5         5.8209    0.8604   14.7735 C.3       1 RES1    0.0000
     11 C6         4.4518    0.4452   15.2628 C.3       1 RES1    0.0000
     12 C7         3.5994   -0.0030   14.0812 C.3       1 RES1    0.0000
     13 C8         4.0196   -0.7905   10.1406 C.2       1 RES1    0.0000
     14 C9         3.6781   -0.9252    8.8828 C.2       1 RES1    0.0000
     15 C10        4.2150   -3.1480   10.5537 C.3       1 RES1    0.0000
     16 C11        4.8821   -4.0203   11.5564 C.3       1 RES1    0.0000
     17 H1         2.8149    1.7367   13.3854 H         1 RES1    0.0000
     18 H2         6.9163    0.9482   10.9391 H         1 RES1    0.0000
     19 H3         2.7047   -0.2196   14.4239 H         1 RES1    0.0000
     20 H4         3.9957    1.1778   15.8201 H         1 RES1    0.0000
     21 H5         4.0561   -0.8085   13.7200 H         1 RES1    0.0000
     22 H6         4.5177    2.6649   12.1853 H         1 RES1    0.0000
     23 H7         6.2748    0.1098   14.3316 H         1 RES1    0.0000
     24 H8         3.7236   -1.7666    8.4120 H         1 RES1    0.0000
     25 H9         3.8720    1.2177   10.2583 H         1 RES1    0.0000
     26 H10        6.6908    2.2557   13.3507 H         1 RES1    0.0000
     27 H11        6.3973    1.1179   15.5547 H         1 RES1    0.0000
     28 H12        3.4711   -0.1397    8.3197 H         1 RES1    0.0000
     29 H13        4.6344   -3.1640    9.6582 H         1 RES1    0.0000
     30 H14        5.8028   -3.8626   11.6199 H         1 RES1    0.0000
     31 H15        4.5472   -0.2695   15.9586 H         1 RES1    0.0000
     32 H16        5.4102    2.8346   14.2854 H         1 RES1    0.0000
     33 H17        4.5260   -3.8427   12.5430 H         1 RES1    0.0000
     34 H18        1.1290    0.9582   11.1814 H         1 RES1    0.0000
     35 H19        4.7483   -4.9606   11.3545 H         1 RES1    0.0000
     36 H20        3.2337   -3.3436   10.5121 H         1 RES1    0.0000
@<TRIPOS>BOND
     1    1    5 1
     2    2   13 1
     3    3    7 1
     4    4    5 1
     5    5    6 1
     6    6    7 1
     7    7    8 1
     8    8    4 1
     9    9    8 1
    10   10    9 1
    11   11   10 1
    12   12    4 1
    13   13    6 1
    14   14   13 2
    15   15    2 1
    16   16   15 1
    17   17    4 1
    18   18    3 1
    19   19   12 1
    20   20   11 1
    21   21   12 1
    22   22    8 1
    23   23   10 1
    24   24   14 1
    25   25    6 1
    26   26    9 1
    27   27   10 1
    28   28   14 1
    29   29   15 1
    30   30   16 1
    31   31   11 1
    32   32    9 1
    33   33   16 1
    34   34    1 1
    35   35   16 1
    36   36   15 1
    37   11   12 1
@<TRIPOS>SUBSTRUCTURE
     1 RES1 1

@<TRIPOS>CRYSIN
  10.4730    9.9810   12.1440  90.0000 108.1600  90.0000 231 1

