# MOL2 file generated by ConQuest
# Please check atom types

@<TRIPOS>MOLECULE
WEJFUP
    65    67     2
SMALL
NO_CHARGES
****
Generated from CSD

@<TRIPOS>ATOM
      1 C1         0.3275    0.5819    0.3196 C.ar      1 RES1    0.0000
      2 C2        -0.2868    1.8282    0.3758 C.ar      1 RES1    0.0000
      3 C3         0.3072    2.9225    0.9818 C.ar      1 RES1    0.0000
      4 C4         1.5572    2.8032    1.5811 C.ar      1 RES1    0.0000
      5 C5         2.1929    1.5658    1.5297 C.ar      1 RES1    0.0000
      6 C6         1.5923    0.4864    0.9054 C.ar      1 RES1    0.0000
      7 C7         2.1791    3.9639    2.2361 C.2       1 RES1    0.0000
      8 C8         2.7241    6.1568    2.7062 C.3       1 RES1    0.0000
      9 C9         1.9508    7.3121    3.3177 C.3       1 RES1    0.0000
     10 C10        3.6490    6.6938    1.6089 C.3       1 RES1    0.0000
     11 C11        3.4338    5.2247    3.7155 C.3       1 RES1    0.0000
     12 C12        4.9213    5.4675    3.9011 C.3       1 RES1    0.0000
     13 C13        2.7509    5.1854    5.0871 C.3       1 RES1    0.0000
     14 N1         1.7898    5.2298    2.0195 N.3       1 RES1    0.0000
     15 N2         3.1973    3.8868    3.1064 N.2       1 RES1    0.0000
     16 O1         1.0241    5.7043    1.1883 O.2       1 RES1    0.0000
     17 H1        -1.1438    1.9327   -0.0212 H         1 RES1    0.0000
     18 H2        -0.1355    3.7632    0.9894 H         1 RES1    0.0000
     19 H3         3.0523    1.4642    1.9205 H         1 RES1    0.0000
     20 H4         2.0474   -0.3474    0.8836 H         1 RES1    0.0000
     21 H5         1.3789    6.9801    3.9998 H         1 RES1    0.0000
     22 H6         2.5613    7.9359    3.6930 H         1 RES1    0.0000
     23 H7         1.4297    7.7412    2.6489 H         1 RES1    0.0000
     24 H8         4.1320    5.9748    1.2204 H         1 RES1    0.0000
     25 H9         4.2589    7.3180    1.9840 H         1 RES1    0.0000
     26 H10        3.1278    7.1233    0.9418 H         1 RES1    0.0000
     27 H11        5.2645    4.8527    4.5395 H         1 RES1    0.0000
     28 H12        5.0686    6.3548    4.2044 H         1 RES1    0.0000
     29 H13        5.3641    5.3390    3.0704 H         1 RES1    0.0000
     30 H14        3.2325    4.5969    5.6558 H         1 RES1    0.0000
     31 H15        2.7432    6.0569    5.4654 H         1 RES1    0.0000
     32 H16        1.8581    4.8738    4.9910 H         1 RES1    0.0000
     33 O2         3.9452    3.0011    3.4649 Du        2 SUP2    0.0000
     34 C1B       -0.3275   -0.5819   -0.3196 C.ar      1 RES1    0.0000
     35 C2B        0.2868   -1.8282   -0.3758 C.ar      1 RES1    0.0000
     36 C3B       -0.3072   -2.9225   -0.9818 C.ar      1 RES1    0.0000
     37 C4B       -1.5572   -2.8032   -1.5811 C.ar      1 RES1    0.0000
     38 C5B       -2.1929   -1.5658   -1.5297 C.ar      1 RES1    0.0000
     39 C6B       -1.5923   -0.4864   -0.9054 C.ar      1 RES1    0.0000
     40 C7B       -2.1791   -3.9639   -2.2361 C.2       1 RES1    0.0000
     41 C8B       -2.7241   -6.1568   -2.7062 C.3       1 RES1    0.0000
     42 C9B       -1.9508   -7.3121   -3.3177 C.3       1 RES1    0.0000
     43 C10B      -3.6490   -6.6938   -1.6089 C.3       1 RES1    0.0000
     44 C11B      -3.4338   -5.2247   -3.7155 C.3       1 RES1    0.0000
     45 C12B      -4.9213   -5.4675   -3.9011 C.3       1 RES1    0.0000
     46 C13B      -2.7509   -5.1854   -5.0871 C.3       1 RES1    0.0000
     47 N1B       -1.7898   -5.2298   -2.0195 N.3       1 RES1    0.0000
     48 N2B       -3.1973   -3.8868   -3.1064 N.2       1 RES1    0.0000
     49 O1B       -1.0241   -5.7043   -1.1883 O.2       1 RES1    0.0000
     50 H1B        1.1438   -1.9327    0.0212 H         1 RES1    0.0000
     51 H2B        0.1355   -3.7632   -0.9894 H         1 RES1    0.0000
     52 H3B       -3.0523   -1.4642   -1.9205 H         1 RES1    0.0000
     53 H4B       -2.0474    0.3474   -0.8836 H         1 RES1    0.0000
     54 H5B       -1.3789   -6.9801   -3.9998 H         1 RES1    0.0000
     55 H6B       -2.5613   -7.9359   -3.6930 H         1 RES1    0.0000
     56 H7B       -1.4297   -7.7412   -2.6489 H         1 RES1    0.0000
     57 H8B       -4.1320   -5.9748   -1.2204 H         1 RES1    0.0000
     58 H9B       -4.2589   -7.3180   -1.9840 H         1 RES1    0.0000
     59 H10B      -3.1278   -7.1233   -0.9418 H         1 RES1    0.0000
     60 H11B      -5.2645   -4.8527   -4.5395 H         1 RES1    0.0000
     61 H12B      -5.0686   -6.3548   -4.2044 H         1 RES1    0.0000
     62 H13B      -5.3641   -5.3390   -3.0704 H         1 RES1    0.0000
     63 H14B      -3.2325   -4.5969   -5.6558 H         1 RES1    0.0000
     64 H15B      -2.7432   -6.0569   -5.4654 H         1 RES1    0.0000
     65 H16B      -1.8581   -4.8738   -4.9910 H         1 RES1    0.0000
@<TRIPOS>BOND
     1    1    2 ar
     2    2    3 ar
     3    3    4 ar
     4    4    5 ar
     5    5    6 ar
     6    6    1 ar
     7    7    4 1
     8    8    9 1
     9    9   21 1
    10   10    8 1
    11   11    8 1
    12   12   11 1
    13   13   11 1
    14   14    7 1
    15   15    7 2
    16   16   14 1
    17   17    2 1
    18   18    3 1
    19   19    5 1
    20   20    6 1
    21   22    9 1
    22   23    9 1
    23   24   10 1
    24   25   10 1
    25   26   10 1
    26   27   12 1
    27   28   12 1
    28   29   12 1
    29   30   13 1
    30   31   13 1
    31   32   13 1
    32   34    1 1
    33   35   34 ar
    34   36   35 ar
    35   37   36 ar
    36   38   37 ar
    37   39   34 ar
    38   40   37 1
    39   41   42 1
    40   42   54 1
    41   43   41 1
    42   44   41 1
    43   45   44 1
    44   46   44 1
    45   47   40 1
    46   48   40 2
    47   49   47 1
    48   50   35 1
    49   51   36 1
    50   52   38 1
    51   53   39 1
    52   55   42 1
    53   56   42 1
    54   57   43 1
    55   58   43 1
    56   59   43 1
    57   60   45 1
    58   61   45 1
    59   62   45 1
    60   63   46 1
    61   64   46 1
    62   65   46 1
    63    8   14 1
    64   11   15 1
    65   38   39 ar
    66   41   47 1
    67   44   48 1
@<TRIPOS>SUBSTRUCTURE
     1 RES1 1
     2 SUP2 33

@<TRIPOS>CRYSIN
   6.2359   10.5265   17.6917  90.0000  94.5530  90.0000 231 1

