# MOL2 file generated by ConQuest
# Please check atom types

@<TRIPOS>MOLECULE
WEJGEA
    66    69     1
SMALL
NO_CHARGES
****
Generated from CSD

@<TRIPOS>ATOM
      1 O1         8.7753    1.1231    2.3049 O.2       1 RES1    0.0000
      2 O2         4.7020   -0.9033    1.4743 O.2       1 RES1    0.0000
      3 N1         7.3079   -2.5466    1.8730 N.ar      1 RES1    0.0000
      4 N2         7.5117    0.9322    2.2152 N.pl3     1 RES1    0.0000
      5 N3         5.5757   -0.0489    1.8516 N.3       1 RES1    0.0000
      6 C1         9.7033   -4.7658    0.1333 C.1       1 RES1    0.0000
      7 C2         8.9758   -3.5850    0.4760 C.ar      1 RES1    0.0000
      8 C3         7.9828   -3.6208    1.4636 C.ar      1 RES1    0.0000
      9 C4         7.6359   -1.3765    1.3088 C.ar      1 RES1    0.0000
     10 C5         8.6000   -1.2291    0.3197 C.ar      1 RES1    0.0000
     11 C6         9.2692   -2.3589   -0.1216 C.ar      1 RES1    0.0000
     12 C7         6.9101   -0.1918    1.7940 C.2       1 RES1    0.0000
     13 C8         6.5194    2.0453    2.4172 C.3       1 RES1    0.0000
     14 C9         6.5964    2.8794    1.1389 C.3       1 RES1    0.0000
     15 C10        6.9040    2.8752    3.6295 C.3       1 RES1    0.0000
     16 C11        5.1968    1.2314    2.5515 C.3       1 RES1    0.0000
     17 C12        3.9914    1.8523    1.8758 C.3       1 RES1    0.0000
     18 C13        4.8483    0.8407    3.9869 C.3       1 RES1    0.0000
     19 H1         7.7740   -4.4589    1.8588 H         1 RES1    0.0000
     20 H2         8.7981   -0.3729   -0.0422 H         1 RES1    0.0000
     21 H3         9.9091   -2.3067   -0.8221 H         1 RES1    0.0000
     22 H4         5.9906    3.6092    1.1982 H         1 RES1    0.0000
     23 H5         7.4807    3.2090    1.0294 H         1 RES1    0.0000
     24 H6         6.3666    2.3371    0.3942 H         1 RES1    0.0000
     25 H7         6.2694    3.5724    3.7464 H         1 RES1    0.0000
     26 H8         7.7660    3.2510    3.4945 H         1 RES1    0.0000
     27 H9         6.9162    2.3245    4.4034 H         1 RES1    0.0000
     28 H10        3.7580    2.6565    2.3253 H         1 RES1    0.0000
     29 H11        4.1991    2.0451    0.9692 H         1 RES1    0.0000
     30 H12        3.2605    1.2458    1.9118 H         1 RES1    0.0000
     31 H13        4.5975    1.6145    4.4781 H         1 RES1    0.0000
     32 H14        5.6061    0.4380    4.3950 H         1 RES1    0.0000
     33 H15        4.1269    0.2227    3.9803 H         1 RES1    0.0000
     34 O1B       11.2857  -11.6271   -2.3049 O.2       1 RES1    0.0000
     35 O2B       15.3590   -9.6007   -1.4743 O.2       1 RES1    0.0000
     36 N1B       12.7531   -7.9574   -1.8730 N.ar      1 RES1    0.0000
     37 N2B       12.5493  -11.4362   -2.2152 N.pl3     1 RES1    0.0000
     38 N3B       14.4853  -10.4551   -1.8516 N.3       1 RES1    0.0000
     39 C1B       10.3577   -5.7382   -0.1333 C.1       1 RES1    0.0000
     40 C2B       11.0852   -6.9190   -0.4760 C.ar      1 RES1    0.0000
     41 C3B       12.0782   -6.8832   -1.4636 C.ar      1 RES1    0.0000
     42 C4B       12.4251   -9.1275   -1.3088 C.ar      1 RES1    0.0000
     43 C5B       11.4610   -9.2749   -0.3197 C.ar      1 RES1    0.0000
     44 C6B       10.7918   -8.1451    0.1216 C.ar      1 RES1    0.0000
     45 C7B       13.1509  -10.3122   -1.7940 C.2       1 RES1    0.0000
     46 C8B       13.5416  -12.5493   -2.4172 C.3       1 RES1    0.0000
     47 C9B       13.4646  -13.3834   -1.1389 C.3       1 RES1    0.0000
     48 C10B      13.1570  -13.3792   -3.6295 C.3       1 RES1    0.0000
     49 C11B      14.8642  -11.7354   -2.5515 C.3       1 RES1    0.0000
     50 C12B      16.0696  -12.3563   -1.8758 C.3       1 RES1    0.0000
     51 C13B      15.2127  -11.3447   -3.9869 C.3       1 RES1    0.0000
     52 H1B       12.2870   -6.0451   -1.8588 H         1 RES1    0.0000
     53 H2B       11.2629  -10.1311    0.0422 H         1 RES1    0.0000
     54 H3B       10.1519   -8.1973    0.8221 H         1 RES1    0.0000
     55 H4B       14.0704  -14.1132   -1.1982 H         1 RES1    0.0000
     56 H5B       12.5803  -13.7130   -1.0294 H         1 RES1    0.0000
     57 H6B       13.6944  -12.8411   -0.3942 H         1 RES1    0.0000
     58 H7B       13.7916  -14.0764   -3.7464 H         1 RES1    0.0000
     59 H8B       12.2950  -13.7550   -3.4945 H         1 RES1    0.0000
     60 H9B       13.1448  -12.8285   -4.4034 H         1 RES1    0.0000
     61 H10B      16.3030  -13.1605   -2.3253 H         1 RES1    0.0000
     62 H11B      15.8619  -12.5491   -0.9692 H         1 RES1    0.0000
     63 H12B      16.8005  -11.7498   -1.9118 H         1 RES1    0.0000
     64 H13B      15.4635  -12.1185   -4.4781 H         1 RES1    0.0000
     65 H14B      14.4549  -10.9420   -4.3950 H         1 RES1    0.0000
     66 H15B      15.9341  -10.7267   -3.9803 H         1 RES1    0.0000
@<TRIPOS>BOND
     1    1    4 1
     2    2    5 1
     3    3    8 ar
     4    4   12 2
     5    5   12 1
     6    6    7 1
     7    7    8 ar
     8    8   19 1
     9    9    3 ar
    10   10    9 ar
    11   11    7 ar
    12   12    9 1
    13   13    4 1
    14   14   13 1
    15   15   13 1
    16   16    5 1
    17   17   16 1
    18   18   16 1
    19   20   10 1
    20   21   11 1
    21   22   14 1
    22   23   14 1
    23   24   14 1
    24   25   15 1
    25   26   15 1
    26   27   15 1
    27   28   17 1
    28   29   17 1
    29   30   17 1
    30   31   18 1
    31   32   18 1
    32   33   18 1
    33   34   37 1
    34   35   38 1
    35   36   41 ar
    36   37   45 2
    37   38   45 1
    38   39    6 3
    39   40   39 1
    40   41   40 ar
    41   42   36 ar
    42   43   42 ar
    43   44   40 ar
    44   45   42 1
    45   46   37 1
    46   47   46 1
    47   48   46 1
    48   49   38 1
    49   50   49 1
    50   51   49 1
    51   52   41 1
    52   53   43 1
    53   54   44 1
    54   55   47 1
    55   56   47 1
    56   57   47 1
    57   58   48 1
    58   59   48 1
    59   60   48 1
    60   61   50 1
    61   62   50 1
    62   63   50 1
    63   64   51 1
    64   65   51 1
    65   66   51 1
    66   10   11 ar
    67   13   16 1
    68   43   44 ar
    69   46   49 1
@<TRIPOS>SUBSTRUCTURE
     1 RES1 1

@<TRIPOS>CRYSIN
  10.0305   10.5040   12.3508  90.0000 102.5820  90.0000  14 1

