# MOL2 file generated by ConQuest
# Please check atom types

@<TRIPOS>MOLECULE
WEKBOE
    67    69     1
SMALL
NO_CHARGES
****
Generated from CSD

@<TRIPOS>ATOM
      1 C1         5.5661    1.3794   11.0005 C.3       1 RES1    0.0000
      2 H1         5.0837    2.1941   11.2514 H         1 RES1    0.0000
      3 N1         4.3357    0.1447   12.7808 N.am      1 RES1    0.0000
      4 C2         0.2969   -1.9712   12.8043 C.ar      1 RES1    0.0000
      5 C3         2.4174   -2.0242   14.5309 C.ar      1 RES1    0.0000
      6 H2         3.1336   -2.0602   15.1239 H         1 RES1    0.0000
      7 O1         4.6577   -2.0541   12.2830 O.2       1 RES1    0.0000
      8 O2         6.9208    2.9741    9.9530 O.3       1 RES1    0.0000
      9 C4         1.1636   -2.4373   14.9285 C.ar      1 RES1    0.0000
     10 O3         7.9108    1.0600   10.5338 O.2       1 RES1    0.0000
     11 N2         0.9788   -2.9959   16.2753 N.pl3     1 RES1    0.0000
     12 C5         0.0749   -2.4020   14.0937 C.ar      1 RES1    0.0000
     13 H3        -0.7718   -2.6561   14.3852 H         1 RES1    0.0000
     14 C6         3.6060    1.2244   13.5143 C.3       1 RES1    0.0000
     15 H4         4.0137    2.0663   13.2226 H         1 RES1    0.0000
     16 C7         6.5718    1.0152   13.3533 C.ar      1 RES1    0.0000
     17 C8         2.1277    1.3236   13.1313 C.ar      1 RES1    0.0000
     18 C9         5.6886    0.4811   12.2397 C.3       1 RES1    0.0000
     19 H5         6.0902   -0.3608   11.9391 H         1 RES1    0.0000
     20 C10        1.5293   -1.5791   12.3573 C.ar      1 RES1    0.0000
     21 H6         1.6498   -1.3298   11.4693 H         1 RES1    0.0000
     22 C11        6.9429    1.7687   10.5018 C.2       1 RES1    0.0000
     23 O4        -0.6111   -1.7300   10.6953 O.2       1 RES1    0.0000
     24 C12        1.1018    1.0940   14.0447 C.ar      1 RES1    0.0000
     25 H7         1.3110    0.9098   14.9316 H         1 RES1    0.0000
     26 O5         1.9657   -3.1358   16.9742 O.2       1 RES1    0.0000
     27 C13        3.9655   -1.1579   12.7456 C.2       1 RES1    0.0000
     28 C14        3.8395    1.1524   15.0305 C.3       1 RES1    0.0000
     29 H8         3.4426    0.3506   15.3775 H         1 RES1    0.0000
     30 H9         3.4400    1.9168   15.4524 H         1 RES1    0.0000
     31 H10        4.7829    1.1456   15.2090 H         1 RES1    0.0000
     32 C15        1.7634    1.6498   11.8339 C.ar      1 RES1    0.0000
     33 H11        2.4248    1.8638   11.2157 H         1 RES1    0.0000
     34 O6        -0.1449   -3.3030   16.6211 O.2       1 RES1    0.0000
     35 N3        -0.8503   -1.9345   11.8693 N.pl3     1 RES1    0.0000
     36 C16        2.5991   -1.5560   13.2455 C.ar      1 RES1    0.0000
     37 O7        -1.9574   -2.1091   12.3342 O.2       1 RES1    0.0000
     38 C17       -0.2187    1.1368   13.6524 C.ar      1 RES1    0.0000
     39 H12       -0.8888    0.9873   14.2796 H         1 RES1    0.0000
     40 C18        4.7988    0.6870    9.8470 C.3       1 RES1    0.0000
     41 H13        3.9698    0.3330   10.2318 H         1 RES1    0.0000
     42 C19        6.7979    2.3504   13.5925 C.ar      1 RES1    0.0000
     43 H14        6.4622    2.9904   13.0064 H         1 RES1    0.0000
     44 C20       -0.5593    1.3957   12.3495 C.ar      1 RES1    0.0000
     45 H15       -1.4510    1.3909   12.0838 H         1 RES1    0.0000
     46 C21        0.4410    1.6634   11.4409 C.ar      1 RES1    0.0000
     47 H16        0.2236    1.8543   10.5569 H         1 RES1    0.0000
     48 C22        4.3907    1.6865    8.7603 C.3       1 RES1    0.0000
     49 H17        3.8156    1.2523    8.1262 H         1 RES1    0.0000
     50 H18        5.1762    2.0093    8.3118 H         1 RES1    0.0000
     51 H19        3.9253    2.4237    9.1612 H         1 RES1    0.0000
     52 C23        7.5244    2.7431   14.7033 C.ar      1 RES1    0.0000
     53 H20        7.6721    3.6489   14.8550 H         1 RES1    0.0000
     54 C24        8.0267    1.8305   15.5780 C.ar      1 RES1    0.0000
     55 H21        8.4982    2.1119   16.3291 H         1 RES1    0.0000
     56 C25        7.1231    0.0965   14.2396 C.ar      1 RES1    0.0000
     57 H22        7.0096   -0.8127   14.0805 H         1 RES1    0.0000
     58 C26        8.1336    3.4076    9.2932 C.3       1 RES1    0.0000
     59 H23        8.1639    3.0421    8.4054 H         1 RES1    0.0000
     60 H24        8.8954    3.1026    9.7910 H         1 RES1    0.0000
     61 H25        8.1467    4.3664    9.2446 H         1 RES1    0.0000
     62 C27        7.8320    0.5008   15.3459 C.ar      1 RES1    0.0000
     63 H26        8.1794   -0.1305   15.9341 H         1 RES1    0.0000
     64 C28        5.5433   -0.4994    9.2364 C.3       1 RES1    0.0000
     65 H27        6.3460   -0.1889    8.8105 H         1 RES1    0.0000
     66 H28        4.9828   -0.9295    8.5875 H         1 RES1    0.0000
     67 H29        5.7692   -1.1252    9.9288 H         1 RES1    0.0000
@<TRIPOS>BOND
     1    1    2 1
     2    3   14 1
     3    4   12 ar
     4    5    6 1
     5    7   27 2
     6    8   22 1
     7    9    5 ar
     8   10   22 2
     9   11    9 1
    10   12    9 ar
    11   13   12 1
    12   14   15 1
    13   16   18 1
    14   17   14 1
    15   18    1 1
    16   19   18 1
    17   20    4 ar
    18   21   20 1
    19   22    1 1
    20   23   35 2
    21   24   17 ar
    22   25   24 1
    23   26   11 2
    24   27    3 1
    25   28   14 1
    26   29   28 1
    27   30   28 1
    28   31   28 1
    29   32   17 ar
    30   33   32 1
    31   34   11 2
    32   35    4 1
    33   36    5 ar
    34   37   35 2
    35   38   24 ar
    36   39   38 1
    37   40    1 1
    38   41   40 1
    39   42   16 ar
    40   43   42 1
    41   44   38 ar
    42   45   44 1
    43   46   32 ar
    44   47   46 1
    45   48   40 1
    46   49   48 1
    47   50   48 1
    48   51   48 1
    49   52   42 ar
    50   53   52 1
    51   54   52 ar
    52   55   54 1
    53   56   16 ar
    54   57   56 1
    55   58    8 1
    56   59   58 1
    57   60   58 1
    58   61   58 1
    59   62   54 ar
    60   63   62 1
    61   64   40 1
    62   65   64 1
    63   66   64 1
    64   67   64 1
    65    3   18 1
    66   20   36 ar
    67   27   36 1
    68   44   46 ar
    69   56   62 ar
@<TRIPOS>SUBSTRUCTURE
     1 RES1 1

@<TRIPOS>CRYSIN
  11.3739    6.7949   17.7374  90.0000 106.3300  90.0000   4 1

