# MOL2 file generated by ConQuest
# Please check atom types

@<TRIPOS>MOLECULE
WEKCEV
    85    89     1
SMALL
NO_CHARGES
****
Generated from CSD

@<TRIPOS>ATOM
      1 O1        -0.2927    3.1228  -14.8793 O.3       1 RES1    0.0000
      2 O2         2.1213    3.3456  -12.7823 O.3       1 RES1    0.0000
      3 O3         0.2195    4.7184  -17.2556 O.3       1 RES1    0.0000
      4 O4         0.3593    1.0035  -14.4790 O.2       1 RES1    0.0000
      5 O5        -0.8605    2.8327  -17.8956 O.3       1 RES1    0.0000
      6 O6         3.4877    0.7304   -9.7612 O.3       1 RES1    0.0000
      7 C1        -1.9317    1.5783  -14.1963 C.ar      1 RES1    0.0000
      8 C2        -2.8570    2.6058  -14.0646 C.ar      1 RES1    0.0000
      9 C3        -4.1669    2.2739  -13.7817 C.ar      1 RES1    0.0000
     10 N1        -4.0932   -1.4101  -13.6618 N.pl3     1 RES1    0.0000
     11 O7         1.8579    0.2013  -11.2254 O.3       1 RES1    0.0000
     12 C4        -0.5001    1.8431  -14.5218 C.2       1 RES1    0.0000
     13 C5         1.3921    4.5703  -13.0573 C.3       1 RES1    0.0000
     14 C6         1.0435    3.4981  -15.3293 C.3       1 RES1    0.0000
     15 C7         2.7609    5.2999  -15.0466 C.2       1 RES1    0.0000
     16 C8         1.6105    2.4845  -11.9037 C.2       1 RES1    0.0000
     17 C9         1.0356    3.6310  -16.8427 C.3       1 RES1    0.0000
     18 N2        -5.1751    3.3389  -13.7244 N.pl3     1 RES1    0.0000
     19 O8        -6.3269    3.0312  -13.4423 O.2       1 RES1    0.0000
     20 C10        1.4265    4.7798  -14.5929 C.3       1 RES1    0.0000
     21 C11        1.2756    6.9040  -12.1785 C.ar      1 RES1    0.0000
     22 C12       -2.3279    0.2564  -14.0644 C.ar      1 RES1    0.0000
     23 C13        2.0118    5.7241  -12.3139 C.ar      1 RES1    0.0000
     24 C14       -3.6467   -0.0130  -13.7707 C.ar      1 RES1    0.0000
     25 C15        2.9647    6.5581  -15.3846 C.2       1 RES1    0.0000
     26 O9        -3.2728   -2.2872  -13.8216 O.2       1 RES1    0.0000
     27 C16        4.2461    7.1969  -15.7196 C.ar      1 RES1    0.0000
     28 O10       -5.2737   -1.6136  -13.4019 O.2       1 RES1    0.0000
     29 O11        0.5957    2.6516  -11.3093 O.2       1 RES1    0.0000
     30 C17        2.5387    1.2978  -11.7915 C.3       1 RES1    0.0000
     31 C18        5.3437    6.5066  -16.1763 C.ar      1 RES1    0.0000
     32 O12       -4.8346    4.4633  -14.0014 O.2       1 RES1    0.0000
     33 C19        4.3607    8.5694  -15.5708 C.ar      1 RES1    0.0000
     34 C20        3.3274    5.7019  -11.8674 C.ar      1 RES1    0.0000
     35 C21       -4.5938    0.9767  -13.6173 C.ar      1 RES1    0.0000
     36 C22        0.4641    2.4407  -17.6028 C.3       1 RES1    0.0000
     37 C23        2.6747   -0.3486  -10.1942 C.3       1 RES1    0.0000
     38 C24       -0.8024    4.2332  -18.1373 C.3       1 RES1    0.0000
     39 C25        3.7114    1.5600  -10.8501 C.3       1 RES1    0.0000
     40 C26        1.8734    8.0283  -11.6523 C.ar      1 RES1    0.0000
     41 C27        3.9080    6.8333  -11.3385 C.ar      1 RES1    0.0000
     42 C28        3.1879    7.9927  -11.2478 C.ar      1 RES1    0.0000
     43 C29        5.5448    9.2259  -15.8407 C.ar      1 RES1    0.0000
     44 C30       -0.4172    4.5241  -19.5686 C.3       1 RES1    0.0000
     45 C31        3.5194   -1.4574  -10.7513 C.3       1 RES1    0.0000
     46 C32        6.6147    8.5205  -16.2892 C.ar      1 RES1    0.0000
     47 C33        6.5267    7.1806  -16.4621 C.ar      1 RES1    0.0000
     48 C34        1.7934   -0.7807   -9.0656 C.3       1 RES1    0.0000
     49 C35       -2.0986    4.8563  -17.7396 C.3       1 RES1    0.0000
     50 H1        -2.5787    3.5192  -14.1662 H         1 RES1    0.0000
     51 H2         0.4801    4.4940  -12.7658 H         1 RES1    0.0000
     52 H3         1.6757    2.8233  -15.0727 H         1 RES1    0.0000
     53 H4         3.5182    4.7114  -15.0903 H         1 RES1    0.0000
     54 H5         1.9317    3.7708  -17.1557 H         1 RES1    0.0000
     55 H6         0.7864    5.4647  -14.7984 H         1 RES1    0.0000
     56 H7         0.3578    6.9318  -12.4563 H         1 RES1    0.0000
     57 H8        -1.6837   -0.4471  -14.1750 H         1 RES1    0.0000
     58 H9         2.2232    7.1655  -15.4327 H         1 RES1    0.0000
     59 H10        2.8701    1.0787  -12.6649 H         1 RES1    0.0000
     60 H11        5.2968    5.5550  -16.2997 H         1 RES1    0.0000
     61 H12        3.5925    9.0824  -15.3076 H         1 RES1    0.0000
     62 H13        3.8337    4.8891  -11.9252 H         1 RES1    0.0000
     63 H14       -5.5140    0.8026  -13.4046 H         1 RES1    0.0000
     64 H15        0.4355    1.6530  -17.0548 H         1 RES1    0.0000
     65 H16        0.9384    2.2491  -18.4156 H         1 RES1    0.0000
     66 H17        3.7034    2.4719  -10.5489 H         1 RES1    0.0000
     67 H18        4.5630    1.3604  -11.2447 H         1 RES1    0.0000
     68 H19        1.3762    8.8445  -11.5696 H         1 RES1    0.0000
     69 H20        4.8224    6.8142  -11.0450 H         1 RES1    0.0000
     70 H21        3.5971    8.7802  -10.8826 H         1 RES1    0.0000
     71 H22        5.6146   10.1693  -15.6785 H         1 RES1    0.0000
     72 H23       -1.0939    4.2055  -20.1716 H         1 RES1    0.0000
     73 H24        0.4115    4.0784  -19.7546 H         1 RES1    0.0000
     74 H25       -0.3052    5.4702  -19.6865 H         1 RES1    0.0000
     75 H26        2.9616   -2.1821  -11.0428 H         1 RES1    0.0000
     76 H27        4.1138   -1.7664  -10.0638 H         1 RES1    0.0000
     77 H28        4.0315   -1.1279  -11.4928 H         1 RES1    0.0000
     78 H29        7.4388    8.9662  -16.4972 H         1 RES1    0.0000
     79 H30        7.2788    6.6857  -16.7958 H         1 RES1    0.0000
     80 H31        1.2505   -1.5135   -9.3659 H         1 RES1    0.0000
     81 H32        1.2276   -0.0574   -8.7886 H         1 RES1    0.0000
     82 H33        2.3352   -1.0664   -8.3254 H         1 RES1    0.0000
     83 H34       -2.7981    4.5487  -18.3212 H         1 RES1    0.0000
     84 H35       -2.0289    5.8120  -17.8010 H         1 RES1    0.0000
     85 H36       -2.3021    4.6075  -16.8353 H         1 RES1    0.0000
@<TRIPOS>BOND
     1    1   12 1
     2    2   13 1
     3    3   17 1
     4    4   12 2
     5    5   36 1
     6    6   37 1
     7    7    8 ar
     8    8    9 ar
     9    9   18 1
    10   10   24 1
    11   11   30 1
    12   12    7 1
    13   13   20 1
    14   14    1 1
    15   15   20 1
    16   16    2 1
    17   17   14 1
    18   18   19 2
    19   20   14 1
    20   21   23 ar
    21   22    7 ar
    22   23   13 1
    23   24   22 ar
    24   25   15 2
    25   26   10 2
    26   27   25 1
    27   28   10 2
    28   29   16 2
    29   30   16 1
    30   31   27 ar
    31   32   18 2
    32   33   27 ar
    33   34   23 ar
    34   35    9 ar
    35   36   17 1
    36   37   11 1
    37   38    3 1
    38   39    6 1
    39   40   21 ar
    40   41   34 ar
    41   42   40 ar
    42   43   33 ar
    43   44   38 1
    44   45   37 1
    45   46   43 ar
    46   47   31 ar
    47   48   37 1
    48   49   38 1
    49   50    8 1
    50   51   13 1
    51   52   14 1
    52   53   15 1
    53   54   17 1
    54   55   20 1
    55   56   21 1
    56   57   22 1
    57   58   25 1
    58   59   30 1
    59   60   31 1
    60   61   33 1
    61   62   34 1
    62   63   35 1
    63   64   36 1
    64   65   36 1
    65   66   39 1
    66   67   39 1
    67   68   40 1
    68   69   41 1
    69   70   42 1
    70   71   43 1
    71   72   44 1
    72   73   44 1
    73   74   44 1
    74   75   45 1
    75   76   45 1
    76   77   45 1
    77   78   46 1
    78   79   47 1
    79   80   48 1
    80   81   48 1
    81   82   48 1
    82   83   49 1
    83   84   49 1
    84   85   49 1
    85    5   38 1
    86   24   35 ar
    87   30   39 1
    88   41   42 ar
    89   46   47 ar
@<TRIPOS>SUBSTRUCTURE
     1 RES1 1

@<TRIPOS>CRYSIN
  11.4303   13.6721   21.9495  90.0000  90.0000  90.0000  19 1

