# MOL2 file generated by ConQuest
# Please check atom types

@<TRIPOS>MOLECULE
WEKGUP
    18    18     1
SMALL
NO_CHARGES
****
Generated from CSD

@<TRIPOS>ATOM
      1 C1         1.9646    9.4331    1.8678 C.ar      1 RES1    0.0000
      2 C2         1.2690    9.3912    3.0505 C.ar      1 RES1    0.0000
      3 H1         1.0359    8.5828    3.4461 H         1 RES1    0.0000
      4 C3         0.9290   10.5960    3.6283 C.ar      1 RES1    0.0000
      5 N1         2.3006   10.5960    1.2294 N.pl3     1 RES1    0.0000
      6 N2         2.3938    8.1940    1.2055 N.pl3     1 RES1    0.0000
      7 N3         0.1579   10.5960    4.8734 N.pl3     1 RES1    0.0000
      8 O1         2.8333   10.5960    0.0635 O.2       1 RES1    0.0000
      9 O2         3.5658    8.0681    0.9615 O.2       1 RES1    0.0000
     10 O3         1.5585    7.3529    1.0394 O.2       1 RES1    0.0000
     11 O4        -0.1265    9.5199    5.3655 O.2       1 RES1    0.0000
     12 C1F        1.9646   11.7589    1.8678 C.ar      1 RES1    0.0000
     13 C2F        1.2690   11.8008    3.0505 C.ar      1 RES1    0.0000
     14 H1F        1.0359   12.6092    3.4461 H         1 RES1    0.0000
     15 N2F        2.3938   12.9980    1.2055 N.pl3     1 RES1    0.0000
     16 O2F        3.5658   13.1239    0.9615 O.2       1 RES1    0.0000
     17 O3F        1.5585   13.8391    1.0394 O.2       1 RES1    0.0000
     18 O4F       -0.1265   11.6721    5.3655 O.2       1 RES1    0.0000
@<TRIPOS>BOND
     1    1    2 ar
     2    2    3 1
     3    4    2 ar
     4    5    1 ar
     5    6    1 1
     6    7    4 1
     7    8    5 1
     8    9    6 2
     9   10    6 2
    10   11    7 2
    11   12    5 ar
    12   13    4 ar
    13   14   13 1
    14   15   12 1
    15   16   15 2
    16   17   15 2
    17   18    7 2
    18   12   13 ar
@<TRIPOS>SUBSTRUCTURE
     1 RES1 1

@<TRIPOS>CRYSIN
   9.6272   14.1280    5.9943  90.0000  90.0000  90.0000  62 1

