# MOL2 file generated by ConQuest
# Please check atom types

@<TRIPOS>MOLECULE
WEKHOM
    63    68     1
SMALL
NO_CHARGES
****
Generated from CSD

@<TRIPOS>ATOM
      1 O1         4.6706    6.5307   12.8002 O.2       1 RES1    0.0000
      2 O2         7.9208    2.9453    8.8858 O.3       1 RES1    0.0000
      3 O3         6.4471    3.8728    7.4600 O.2       1 RES1    0.0000
      4 O4         6.2838   -3.2978    6.6346 O.2       1 RES1    0.0000
      5 O5         5.4722   -2.4542    4.8491 O.2       1 RES1    0.0000
      6 N1         4.2210    6.6242    8.2295 N.3       1 RES1    0.0000
      7 N2         4.5587    3.5436   12.4051 N.3       1 RES1    0.0000
      8 N3         6.0234   -2.3435    5.8909 N.pl3     1 RES1    0.0000
      9 C1         4.6017    5.8184    9.2454 C.2       1 RES1    0.0000
     10 H1         4.8927    4.9406    9.1480 H         1 RES1    0.0000
     11 C2         4.4959    6.4891   10.4549 C.2       1 RES1    0.0000
     12 C3         4.0114    7.8056   10.1425 C.ar      1 RES1    0.0000
     13 C4         3.8673    7.8660    8.7554 C.ar      1 RES1    0.0000
     14 C5         4.1457    6.2493    6.8094 C.3       1 RES1    0.0000
     15 H2         4.5779    5.4017    6.6790 H         1 RES1    0.0000
     16 H3         4.5847    6.9177    6.2792 H         1 RES1    0.0000
     17 H4         3.2259    6.1828    6.5443 H         1 RES1    0.0000
     18 C6         3.4199    8.9995    8.0776 C.ar      1 RES1    0.0000
     19 H5         3.3102    9.0055    7.1533 H         1 RES1    0.0000
     20 C7         3.1506   10.1128    8.8485 C.ar      1 RES1    0.0000
     21 H6         2.8913   10.9040    8.4344 H         1 RES1    0.0000
     22 C8         3.2578   10.0725   10.2170 C.ar      1 RES1    0.0000
     23 H7         3.0314   10.8295   10.7071 H         1 RES1    0.0000
     24 C9         3.6967    8.9330   10.9019 C.ar      1 RES1    0.0000
     25 H8         3.7758    8.9270   11.8276 H         1 RES1    0.0000
     26 C10        4.8291    5.9292   11.7331 C.2       1 RES1    0.0000
     27 C11        5.3270    4.4917   11.7574 C.2       1 RES1    0.0000
     28 C12        6.4745    3.9332   11.2287 C.2       1 RES1    0.0000
     29 C13        5.2126    2.3314   12.2776 C.ar      1 RES1    0.0000
     30 C14        3.1927    3.7004   12.8794 C.3       1 RES1    0.0000
     31 H9         3.1236    3.3622   13.7750 H         1 RES1    0.0000
     32 H10        2.5962    3.2132   12.3062 H         1 RES1    0.0000
     33 H11        2.9553    4.6306   12.8708 H         1 RES1    0.0000
     34 C15        4.8057    1.0691   12.7247 C.ar      1 RES1    0.0000
     35 H12        3.9991    0.9543   13.1732 H         1 RES1    0.0000
     36 C16        5.6395   -0.0020   12.4782 C.ar      1 RES1    0.0000
     37 H13        5.3898   -0.8536   12.7519 H         1 RES1    0.0000
     38 C17        6.8651    0.1872   11.8176 C.ar      1 RES1    0.0000
     39 H14        7.4217   -0.5436   11.6729 H         1 RES1    0.0000
     40 C18        7.2589    1.4375   11.3762 C.ar      1 RES1    0.0000
     41 H15        8.0838    1.5563   10.9621 H         1 RES1    0.0000
     42 C19        6.3894    2.5267   11.5654 C.ar      1 RES1    0.0000
     43 C20        7.5712    4.6809   10.5681 C.ar      1 RES1    0.0000
     44 C21        7.9827    5.9050   11.0811 C.ar      1 RES1    0.0000
     45 H16        7.5752    6.2432   11.8448 H         1 RES1    0.0000
     46 C22        9.0021    6.6358   10.4620 C.ar      1 RES1    0.0000
     47 H17        9.2452    7.4653   10.8059 H         1 RES1    0.0000
     48 C23        9.6459    6.1466    9.3586 C.ar      1 RES1    0.0000
     49 H18       10.3334    6.6298    8.9603 H         1 RES1    0.0000
     50 C24        9.2576    4.9205    8.8442 C.ar      1 RES1    0.0000
     51 H19        9.6899    4.5702    8.0976 H         1 RES1    0.0000
     52 C25        8.2421    4.2259    9.4332 C.ar      1 RES1    0.0000
     53 C26        7.0252    2.9072    7.8942 C.2       1 RES1    0.0000
     54 C27        6.8141    1.5200    7.3726 C.ar      1 RES1    0.0000
     55 C28        7.4600    0.4147    7.9185 C.ar      1 RES1    0.0000
     56 H20        8.0732    0.5295    8.6092 H         1 RES1    0.0000
     57 C29        7.1910   -0.8496    7.4385 C.ar      1 RES1    0.0000
     58 H21        7.6018   -1.5965    7.8139 H         1 RES1    0.0000
     59 C30        6.3125   -0.9885    6.4025 C.ar      1 RES1    0.0000
     60 C31        5.6771    0.0866    5.8149 C.ar      1 RES1    0.0000
     61 H22        5.0947   -0.0302    5.0999 H         1 RES1    0.0000
     62 C32        5.9356    1.3368    6.3294 C.ar      1 RES1    0.0000
     63 H23        5.5062    2.0757    5.9625 H         1 RES1    0.0000
@<TRIPOS>BOND
     1    1   26 2
     2    2   52 1
     3    3   53 2
     4    4    8 2
     5    5    8 2
     6    6    9 1
     7    7   27 1
     8    8   59 1
     9    9   10 1
    10   11    9 2
    11   12   11 1
    12   13    6 1
    13   14    6 1
    14   15   14 1
    15   16   14 1
    16   17   14 1
    17   18   13 ar
    18   19   18 1
    19   20   18 ar
    20   21   20 1
    21   22   20 ar
    22   23   22 1
    23   24   12 ar
    24   25   24 1
    25   26   11 1
    26   27   26 1
    27   28   27 2
    28   29    7 1
    29   30    7 1
    30   31   30 1
    31   32   30 1
    32   33   30 1
    33   34   29 ar
    34   35   34 1
    35   36   34 ar
    36   37   36 1
    37   38   36 ar
    38   39   38 1
    39   40   38 ar
    40   41   40 1
    41   42   28 1
    42   43   28 1
    43   44   43 ar
    44   45   44 1
    45   46   44 ar
    46   47   46 1
    47   48   46 ar
    48   49   48 1
    49   50   48 ar
    50   51   50 1
    51   52   43 ar
    52   53    2 1
    53   54   53 1
    54   55   54 ar
    55   56   55 1
    56   57   55 ar
    57   58   57 1
    58   59   57 ar
    59   60   59 ar
    60   61   60 1
    61   62   54 ar
    62   63   62 1
    63   12   13 ar
    64   22   24 ar
    65   29   42 ar
    66   40   42 ar
    67   50   52 ar
    68   60   62 ar
@<TRIPOS>SUBSTRUCTURE
     1 RES1 1

@<TRIPOS>CRYSIN
   9.2740   20.1330   14.3300  90.0000  90.4430  90.0000 231 1

