# MOL2 file generated by ConQuest
# Please check atom types

@<TRIPOS>MOLECULE
WELKEF
    36    38     1
SMALL
NO_CHARGES
****
Generated from CSD

@<TRIPOS>ATOM
      1 N1        10.0982    1.3856    0.3577 N.ar      1 RES1    0.0000
      2 C1        10.9237    1.8969   -0.5436 C.ar      1 RES1    0.0000
      3 C2         9.0697    0.6197   -0.0795 C.ar      1 RES1    0.0000
      4 C3        12.2345    3.1024    1.1628 C.2       1 RES1    0.0000
      5 C4        15.4030    5.6439    2.4633 C.ar      1 RES1    0.0000
      6 N2        16.4818    6.5284    2.9057 N.pl3     1 RES1    0.0000
      7 N3        12.8520    3.5274    4.0310 N.pl3     1 RES1    0.0000
      8 O1         8.4574    0.3182    2.2209 O.3       1 RES1    0.0000
      9 O2        12.5292    2.3674    3.9007 O.2       1 RES1    0.0000
     10 C5        14.6192    5.0333    3.4057 C.ar      1 RES1    0.0000
     11 C6        13.6216    4.1878    2.9706 C.ar      1 RES1    0.0000
     12 C7        13.3391    3.9471    1.6149 C.ar      1 RES1    0.0000
     13 C8        12.0377    2.7292   -0.0905 C.2       1 RES1    0.0000
     14 C9        10.7575    1.6550   -1.9371 C.ar      1 RES1    0.0000
     15 C10        8.2056    0.0735    0.9094 C.ar      1 RES1    0.0000
     16 C11        9.7269    0.8895   -2.3721 C.ar      1 RES1    0.0000
     17 O3        17.2264    7.0106    2.0676 O.2       1 RES1    0.0000
     18 C12       14.1545    4.6408    0.7078 C.ar      1 RES1    0.0000
     19 C13        8.8223    0.3382   -1.4490 C.ar      1 RES1    0.0000
     20 C14       15.1782    5.4581    1.1095 C.ar      1 RES1    0.0000
     21 O4        16.5887    6.7424    4.1033 O.2       1 RES1    0.0000
     22 C15        7.7009   -0.4522   -1.8004 C.ar      1 RES1    0.0000
     23 O5        12.6032    4.1781    5.0279 O.2       1 RES1    0.0000
     24 C16        7.1301   -0.6861    0.5411 C.ar      1 RES1    0.0000
     25 C17        6.8849   -0.9365   -0.8266 C.ar      1 RES1    0.0000
     26 H1        14.8000    5.1371    4.2853 H         1 RES1    0.0000
     27 H2        11.6315    2.8068    1.8393 H         1 RES1    0.0000
     28 H3         9.6085    0.7450   -3.3273 H         1 RES1    0.0000
     29 H4         7.5444   -0.5891   -2.8020 H         1 RES1    0.0000
     30 H5        12.5947    2.9714   -0.7715 H         1 RES1    0.0000
     31 H6        13.9869    4.5653   -0.2462 H         1 RES1    0.0000
     32 H7        15.6990    5.9081    0.4924 H         1 RES1    0.0000
     33 H8        11.3715    2.0271   -2.5041 H         1 RES1    0.0000
     34 H9         6.5483   -1.0395    1.2277 H         1 RES1    0.0000
     35 H10        6.1393   -1.4294   -1.0709 H         1 RES1    0.0000
     36 H11        9.1092    0.8663    2.2752 H         1 RES1    0.0000
@<TRIPOS>BOND
     1    1    2 ar
     2    2   13 1
     3    3    1 ar
     4    4   12 1
     5    5    6 1
     6    6   17 2
     7    7    9 2
     8    8   15 1
     9   10    5 ar
    10   11    7 1
    11   12   11 ar
    12   13    4 2
    13   14    2 ar
    14   15    3 ar
    15   16   14 ar
    16   18   12 ar
    17   19    3 ar
    18   20    5 ar
    19   21    6 2
    20   22   19 ar
    21   23    7 2
    22   24   15 ar
    23   25   22 ar
    24   26   10 1
    25   27    4 1
    26   28   16 1
    27   29   22 1
    28   30   13 1
    29   31   18 1
    30   32   20 1
    31   33   14 1
    32   34   24 1
    33   35   25 1
    34   36    8 1
    35   10   11 ar
    36   16   19 ar
    37   18   20 ar
    38   24   25 ar
@<TRIPOS>SUBSTRUCTURE
     1 RES1 1

@<TRIPOS>CRYSIN
  22.1420    8.6629   15.6854  90.0000  91.5060  90.0000  15 1

