# MOL2 file generated by ConQuest
# Please check atom types

@<TRIPOS>MOLECULE
WELXOC
    53    56     1
SMALL
NO_CHARGES
****
Generated from CSD

@<TRIPOS>ATOM
      1 O1         5.4668    4.0556   -0.9028 O.3       1 RES1    0.0000
      2 O2         4.5561    6.1978    1.1050 O.3       1 RES1    0.0000
      3 N1         4.4254    4.8842    1.7184 N.3       1 RES1    0.0000
      4 O3         5.1094    5.8257   -2.2630 O.2       1 RES1    0.0000
      5 C1         5.6084    4.5157    2.3748 C.ar      1 RES1    0.0000
      6 C2         3.3023    6.2424    0.4224 C.3       1 RES1    0.0000
      7 O4         2.4683    4.6316   -1.1773 O.2       1 RES1    0.0000
      8 C3         4.7821    5.0738   -1.3816 C.2       1 RES1    0.0000
      9 C4         2.2453    6.9307    3.5878 C.ar      1 RES1    0.0000
     10 C5         2.2771    5.7847    1.4886 C.3       1 RES1    0.0000
     11 H1         1.5849    5.2087    1.1019 H         1 RES1    0.0000
     12 C6         6.7814    5.2379    2.2652 C.ar      1 RES1    0.0000
     13 H2         6.7887    6.0468    1.8053 H         1 RES1    0.0000
     14 C7         3.1381    7.6250   -0.1731 C.3       1 RES1    0.0000
     15 H3         3.2090    8.2836    0.5212 H         1 RES1    0.0000
     16 H4         2.2772    7.6927   -0.5933 H         1 RES1    0.0000
     17 H5         3.8267    7.7753   -0.8260 H         1 RES1    0.0000
     18 C8         3.1748    5.0132    2.4686 C.3       1 RES1    0.0000
     19 H6         2.7964    4.1287    2.6529 H         1 RES1    0.0000
     20 C9         1.6812    6.8826    2.3247 C.ar      1 RES1    0.0000
     21 C10        6.7844    3.6377   -1.4413 C.3       1 RES1    0.0000
     22 C11        3.4111    5.2117   -0.7160 C.2       1 RES1    0.0000
     23 C12        3.2537    5.8382    3.7561 C.3       1 RES1    0.0000
     24 H7         3.0398    5.2908    4.5267 H         1 RES1    0.0000
     25 H8         4.1426    6.2079    3.8721 H         1 RES1    0.0000
     26 C13        5.6085    3.3352    3.0894 C.ar      1 RES1    0.0000
     27 H9         4.8237    2.8478    3.1849 H         1 RES1    0.0000
     28 C14        1.8359    7.8930    4.4997 C.ar      1 RES1    0.0000
     29 H10        2.2323    7.9430    5.3401 H         1 RES1    0.0000
     30 C15        7.1873    2.5422   -0.4905 C.3       1 RES1    0.0000
     31 H11        7.2429    2.8959    0.4004 H         1 RES1    0.0000
     32 H12        8.0412    2.1916   -0.7502 H         1 RES1    0.0000
     33 H13        6.5323    1.8403   -0.5158 H         1 RES1    0.0000
     34 C16        7.7730    4.7730   -1.4157 C.3       1 RES1    0.0000
     35 H14        7.5363    5.4186   -2.0848 H         1 RES1    0.0000
     36 H15        8.6524    4.4348   -1.5925 H         1 RES1    0.0000
     37 H16        7.7577    5.1897   -0.5501 H         1 RES1    0.0000
     38 C17        7.9305    3.5854    3.5294 C.ar      1 RES1    0.0000
     39 H17        8.7156    3.2674    3.9136 H         1 RES1    0.0000
     40 C18        6.5671    3.1004   -2.8562 C.3       1 RES1    0.0000
     41 H18        5.8806    2.4293   -2.8423 H         1 RES1    0.0000
     42 H19        7.3837    2.7146   -3.1813 H         1 RES1    0.0000
     43 H20        6.3000    3.8190   -3.4338 H         1 RES1    0.0000
     44 C19        0.2620    8.7145    2.9162 C.ar      1 RES1    0.0000
     45 H21       -0.4113    9.3208    2.7016 H         1 RES1    0.0000
     46 C20        7.9373    4.7605    2.8351 C.ar      1 RES1    0.0000
     47 H22        8.7290    5.2420    2.7485 H         1 RES1    0.0000
     48 C21        6.7781    2.8811    3.6575 C.ar      1 RES1    0.0000
     49 H23        6.7784    2.0834    4.1354 H         1 RES1    0.0000
     50 C22        0.8496    8.7638    4.1498 C.ar      1 RES1    0.0000
     51 H24        0.5696    9.4052    4.7630 H         1 RES1    0.0000
     52 C23        0.6581    7.7700    1.9838 C.ar      1 RES1    0.0000
     53 H25        0.2517    7.7278    1.1488 H         1 RES1    0.0000
@<TRIPOS>BOND
     1    1    8 1
     2    2    3 1
     3    3    5 1
     4    4    8 2
     5    5   12 ar
     6    6    2 1
     7    7   22 2
     8    8   22 1
     9    9   20 ar
    10   10    6 1
    11   11   10 1
    12   12   13 1
    13   14    6 1
    14   15   14 1
    15   16   14 1
    16   17   14 1
    17   18    3 1
    18   19   18 1
    19   20   10 1
    20   21    1 1
    21   22    6 1
    22   23    9 1
    23   24   23 1
    24   25   23 1
    25   26    5 ar
    26   27   26 1
    27   28    9 ar
    28   29   28 1
    29   30   21 1
    30   31   30 1
    31   32   30 1
    32   33   30 1
    33   34   21 1
    34   35   34 1
    35   36   34 1
    36   37   34 1
    37   38   39 1
    38   40   21 1
    39   41   40 1
    40   42   40 1
    41   43   40 1
    42   44   45 1
    43   46   12 ar
    44   47   46 1
    45   48   26 ar
    46   49   48 1
    47   50   28 ar
    48   51   50 1
    49   52   20 ar
    50   53   52 1
    51   10   18 1
    52   18   23 1
    53   38   46 ar
    54   38   48 ar
    55   44   50 ar
    56   44   52 ar
@<TRIPOS>SUBSTRUCTURE
     1 RES1 1

@<TRIPOS>CRYSIN
  18.4850    5.9440   18.0570  90.0000  92.8410  90.0000  14 1

