# MOL2 file generated by ConQuest
# Please check atom types

@<TRIPOS>MOLECULE
WELZIZ
    46    49     1
SMALL
NO_CHARGES
****
Generated from CSD

@<TRIPOS>ATOM
      1 O1         4.4944    1.1681   -5.6647 O.3       1 RES1    0.0000
      2 C1         3.3045    2.1885  -11.8527 C.ar      1 RES1    0.0000
      3 N1        -0.1989   -0.8497   -6.8996 N.pl3     1 RES1    0.0000
      4 O2        -0.3288   -0.4154   -8.0208 O.2       1 RES1    0.0000
      5 C2         2.4586    0.5482   -4.6115 C.2       1 RES1    0.0000
      6 H1         1.9423    0.5387   -3.8137 H         1 RES1    0.0000
      7 C3         4.1679    1.8817   -3.4220 C.ar      1 RES1    0.0000
      8 O3         4.5635    1.3241   -7.9331 O.3       1 RES1    0.0000
      9 C4         0.3888    0.0306   -5.8518 C.3       1 RES1    0.0000
     10 H2         0.0152   -0.2077   -4.9651 H         1 RES1    0.0000
     11 H3         0.1587    0.9751   -6.0395 H         1 RES1    0.0000
     12 O4         3.1785   -0.0042  -12.5885 O.2       1 RES1    0.0000
     13 C5         4.1101    0.5239   -6.9007 C.3       1 RES1    0.0000
     14 H4         4.5293   -0.3816   -6.9602 H         1 RES1    0.0000
     15 O5         3.3387    1.5159  -14.0656 O.2       1 RES1    0.0000
     16 C6         3.6242    1.1628   -4.6032 C.2       1 RES1    0.0000
     17 N2         3.2855    1.1617  -12.9122 N.pl3     1 RES1    0.0000
     18 C7         1.9142   -0.1370   -5.8326 C.3       1 RES1    0.0000
     19 H5         2.1208   -1.1132   -5.7613 H         1 RES1    0.0000
     20 C8         3.4875    2.7609   -9.5615 C.ar      1 RES1    0.0000
     21 C9         2.6211    0.4143   -7.0737 C.3       1 RES1    0.0000
     22 H6         2.4336   -0.1940   -7.8446 H         1 RES1    0.0000
     23 C10        3.4351    1.7879  -10.5425 C.ar      1 RES1    0.0000
     24 H7         3.4875    0.8666  -10.3170 H         1 RES1    0.0000
     25 O6        -0.5163   -1.9745   -6.5820 O.2       1 RES1    0.0000
     26 C11        3.3372    2.5469   -2.5438 C.ar      1 RES1    0.0000
     27 H8         2.4025    2.5649   -2.7121 H         1 RES1    0.0000
     28 C12        6.0449    2.5301   -2.0381 C.ar      1 RES1    0.0000
     29 H9         6.9796    2.5269   -1.8662 H         1 RES1    0.0000
     30 C13        2.2741    1.8586   -7.4917 C.3       1 RES1    0.0000
     31 H10        1.5475    1.8702   -8.1636 H         1 RES1    0.0000
     32 H11        1.9985    2.3983   -6.7091 H         1 RES1    0.0000
     33 C14        5.5384    1.8860   -3.1713 C.ar      1 RES1    0.0000
     34 H12        6.1307    1.4506   -3.7708 H         1 RES1    0.0000
     35 C15        3.8300    3.1847   -1.4318 C.ar      1 RES1    0.0000
     36 H13        3.2385    3.6370   -0.8415 H         1 RES1    0.0000
     37 C16        3.5923    2.3846   -8.0905 C.3       1 RES1    0.0000
     38 H14        3.8937    3.1837   -7.5687 H         1 RES1    0.0000
     39 C17        3.3903    4.0966   -9.9211 C.ar      1 RES1    0.0000
     40 H15        3.4215    4.7681   -9.2493 H         1 RES1    0.0000
     41 C18        5.1846    3.1679   -1.1717 C.ar      1 RES1    0.0000
     42 H16        5.5247    3.5959   -0.3936 H         1 RES1    0.0000
     43 C19        3.2013    3.5021  -12.2442 C.ar      1 RES1    0.0000
     44 H17        3.1018    3.7392  -13.1581 H         1 RES1    0.0000
     45 C20        3.2483    4.4635  -11.2512 C.ar      1 RES1    0.0000
     46 H18        3.1830    5.3827  -11.4819 H         1 RES1    0.0000
@<TRIPOS>BOND
     1    1   13 1
     2    2   17 1
     3    3    4 2
     4    5    6 1
     5    7   16 1
     6    8   13 1
     7    9    3 1
     8   10    9 1
     9   11    9 1
    10   12   17 2
    11   13   14 1
    12   15   17 2
    13   16    1 1
    14   18    5 1
    15   19   18 1
    16   20   23 ar
    17   21   13 1
    18   22   21 1
    19   23    2 ar
    20   24   23 1
    21   25    3 2
    22   26    7 ar
    23   27   26 1
    24   28   29 1
    25   30   21 1
    26   31   30 1
    27   32   30 1
    28   33    7 ar
    29   34   33 1
    30   35   26 ar
    31   36   35 1
    32   37    8 1
    33   38   37 1
    34   39   20 ar
    35   40   39 1
    36   41   28 ar
    37   42   41 1
    38   43    2 ar
    39   44   43 1
    40   45   39 ar
    41   46   45 1
    42    5   16 2
    43    9   18 1
    44   18   21 1
    45   20   37 1
    46   28   33 ar
    47   30   37 1
    48   35   41 ar
    49   43   45 ar
@<TRIPOS>SUBSTRUCTURE
     1 RES1 1

@<TRIPOS>CRYSIN
   7.5931   10.5420   22.6200  90.0000  90.0000  90.0000  19 1

