# MOL2 file generated by ConQuest
# Please check atom types

@<TRIPOS>MOLECULE
WENWIW
    66    71     1
SMALL
NO_CHARGES
****
Generated from CSD

@<TRIPOS>ATOM
      1 O1        -0.1604   -5.9377    5.7793 O.3       1 RES1    0.0000
      2 O2         2.8123    0.2197    5.9794 O.3       1 RES1    0.0000
      3 O3         3.2150    2.8822    4.2737 O.2       1 RES1    0.0000
      4 O4        -0.8764    3.0103    3.8452 O.2       1 RES1    0.0000
      5 O5        -0.1118    7.5691    1.0758 O.3       1 RES1    0.0000
      6 O6         3.7822    2.0435   -0.5184 O.3       1 RES1    0.0000
      7 N1         1.9982   -0.5003    6.8793 N.2       1 RES1    0.0000
      8 N2         2.4143   -1.6956    5.0285 N.2       1 RES1    0.0000
      9 N3         1.1574    2.1139    3.5202 N.am      1 RES1    0.0000
     10 N4         2.6953    3.2676    0.9281 N.2       1 RES1    0.0000
     11 N5         3.1153    3.0426   -1.2786 N.2       1 RES1    0.0000
     12 C1        -1.0661   -6.9557    6.1768 C.3       1 RES1    0.0000
     13 H1        -1.0628   -7.6607    5.5254 H         1 RES1    0.0000
     14 H2        -1.9501   -6.5892    6.2480 H         1 RES1    0.0000
     15 H3        -0.7976   -7.3080    7.0297 H         1 RES1    0.0000
     16 C2        -0.0303   -4.8518    6.5986 C.ar      1 RES1    0.0000
     17 C3        -0.6364   -4.7017    7.8073 C.ar      1 RES1    0.0000
     18 H4        -1.1943   -5.3685    8.1377 H         1 RES1    0.0000
     19 C4        -0.4139   -3.5504    8.5433 C.ar      1 RES1    0.0000
     20 H5        -0.8104   -3.4546    9.3787 H         1 RES1    0.0000
     21 C5         0.3741   -2.5609    8.0585 C.ar      1 RES1    0.0000
     22 H6         0.5060   -1.7907    8.5621 H         1 RES1    0.0000
     23 C6         0.9858   -2.6841    6.8228 C.ar      1 RES1    0.0000
     24 C7         0.7776   -3.8500    6.1003 C.ar      1 RES1    0.0000
     25 H7         1.1860   -3.9578    5.2716 H         1 RES1    0.0000
     26 C8         1.8069   -1.6299    6.2507 C.2       1 RES1    0.0000
     27 C9         3.0229   -0.5590    4.9063 C.2       1 RES1    0.0000
     28 C10        3.8488   -0.0330    3.8103 C.3       1 RES1    0.0000
     29 H8         4.2043   -0.7777    3.3013 H         1 RES1    0.0000
     30 H9         4.5998    0.4511    4.1891 H         1 RES1    0.0000
     31 C11        3.0932    0.8958    2.8621 C.3       1 RES1    0.0000
     32 C12        2.5316    2.1062    3.6223 C.2       1 RES1    0.0000
     33 C13        0.9190    4.1665    4.8700 C.3       1 RES1    0.0000
     34 H10        0.2437    4.7758    5.1762 H         1 RES1    0.0000
     35 H11        1.5600    4.6420    4.3368 H         1 RES1    0.0000
     36 H12        1.3610    3.7714    5.6248 H         1 RES1    0.0000
     37 C14        0.2904    3.1047    4.0548 C.2       1 RES1    0.0000
     38 C15        0.7309    1.0159    2.7050 C.ar      1 RES1    0.0000
     39 C16       -0.5634    0.6448    2.3705 C.ar      1 RES1    0.0000
     40 H13       -1.3015    1.1474    2.6284 H         1 RES1    0.0000
     41 C17       -0.6881   -0.4974    1.6439 C.ar      1 RES1    0.0000
     42 H14       -1.5422   -0.7585    1.3847 H         1 RES1    0.0000
     43 C18        0.3456   -1.2680    1.2773 C.ar      1 RES1    0.0000
     44 H15        0.1948   -2.0641    0.8220 H         1 RES1    0.0000
     45 C19        1.6817   -0.8627    1.5902 C.ar      1 RES1    0.0000
     46 H16        2.4138   -1.3599    1.3068 H         1 RES1    0.0000
     47 C20        1.8448    0.2784    2.3195 C.ar      1 RES1    0.0000
     48 C21        4.0790    1.3774    1.7903 C.3       1 RES1    0.0000
     49 H17        4.8012    1.8562    2.2268 H         1 RES1    0.0000
     50 H18        4.4638    0.6012    1.3552 H         1 RES1    0.0000
     51 C22        3.4879    2.2556    0.7548 C.2       1 RES1    0.0000
     52 C23        2.4956    3.7154   -0.3505 C.2       1 RES1    0.0000
     53 C24        1.6610    4.8880   -0.6675 C.ar      1 RES1    0.0000
     54 C25        1.1762    5.6283    0.3935 C.ar      1 RES1    0.0000
     55 H19        1.3596    5.3795    1.2706 H         1 RES1    0.0000
     56 C26        0.4034    6.7623    0.1155 C.ar      1 RES1    0.0000
     57 C27        0.1244    7.1011   -1.1671 C.ar      1 RES1    0.0000
     58 H20       -0.4045    7.8477   -1.3337 H         1 RES1    0.0000
     59 C28        0.5988    6.3739   -2.2174 C.ar      1 RES1    0.0000
     60 H21        0.3974    6.6242   -3.0891 H         1 RES1    0.0000
     61 C29        1.3915    5.2475   -1.9703 C.ar      1 RES1    0.0000
     62 H22        1.7329    4.7482   -2.6768 H         1 RES1    0.0000
     63 C30        0.1717    7.2875    2.4202 C.3       1 RES1    0.0000
     64 H23       -0.2591    7.9371    2.9816 H         1 RES1    0.0000
     65 H24        1.1207    7.3215    2.5613 H         1 RES1    0.0000
     66 H25       -0.1532    6.4108    2.6392 H         1 RES1    0.0000
@<TRIPOS>BOND
     1    1   12 1
     2    2    7 1
     3    3   32 2
     4    4   37 2
     5    5   56 1
     6    6   11 1
     7    7   26 2
     8    8   26 1
     9    9   32 1
    10   10   51 2
    11   11   52 2
    12   12   13 1
    13   14   12 1
    14   15   12 1
    15   16    1 1
    16   17   16 ar
    17   18   17 1
    18   19   17 ar
    19   20   19 1
    20   21   19 ar
    21   22   21 1
    22   23   21 ar
    23   24   16 ar
    24   25   24 1
    25   26   23 1
    26   27    2 1
    27   28   27 1
    28   29   28 1
    29   30   28 1
    30   31   28 1
    31   32   31 1
    32   33   34 1
    33   35   33 1
    34   36   33 1
    35   37    9 1
    36   38    9 1
    37   39   38 ar
    38   40   39 1
    39   41   39 ar
    40   42   41 1
    41   43   41 ar
    42   44   43 1
    43   45   43 ar
    44   46   45 1
    45   47   31 1
    46   48   31 1
    47   49   48 1
    48   50   48 1
    49   51    6 1
    50   52   10 1
    51   53   52 1
    52   54   53 ar
    53   55   54 1
    54   56   54 ar
    55   57   56 ar
    56   58   57 1
    57   59   57 ar
    58   60   59 1
    59   61   53 ar
    60   62   61 1
    61   63    5 1
    62   64   63 1
    63   65   63 1
    64   66   63 1
    65    8   27 2
    66   23   24 ar
    67   33   37 1
    68   38   47 ar
    69   45   47 ar
    70   48   51 1
    71   59   61 ar
@<TRIPOS>SUBSTRUCTURE
     1 RES1 1

@<TRIPOS>CRYSIN
   8.6300   11.8660   14.6160 108.9500  99.0200 101.1700   2 1

