# MOL2 file generated by ConQuest
# Please check atom types

@<TRIPOS>MOLECULE
WEPCEC
    74    79     1
SMALL
NO_CHARGES
****
Generated from CSD

@<TRIPOS>ATOM
      1 O1         4.8940    0.1053    5.8553 O.2       1 RES1    0.0000
      2 O2         3.1288    1.4603    5.5997 O.3       1 RES1    0.0000
      3 O3        -0.5501   -2.7295    3.7346 O.3       1 RES1    0.0000
      4 O4         1.5239    2.0799    0.6152 O.2       1 RES1    0.0000
      5 O5         1.7073    3.7483   -5.6752 O.3       1 RES1    0.0000
      6 O6         9.1743   -3.8507   -0.3148 O.2       1 RES1    0.0000
      7 O7        10.6682   -2.3592   -0.7237 O.2       1 RES1    0.0000
      8 N1         3.3194    1.2245    2.8569 N.3       1 RES1    0.0000
      9 N2         3.4958    2.2113   -0.6177 N.am      1 RES1    0.0000
     10 N3         9.5843   -2.7003   -0.2661 N.pl3     1 RES1    0.0000
     11 C1         4.4402    0.9994    3.7013 C.2       1 RES1    0.0000
     12 C2         3.7036    1.5224    1.5406 C.2       1 RES1    0.0000
     13 C3         2.7381    1.9479    0.5004 C.2       1 RES1    0.0000
     14 C4         4.9387    2.0635   -0.3559 C.3       1 RES1    0.0000
     15 H1         5.3776    2.9601   -0.4130 H         1 RES1    0.0000
     16 C5         4.9519    1.5950    1.0735 C.2       1 RES1    0.0000
     17 C6         6.1800    1.3660    1.9087 C.3       1 RES1    0.0000
     18 H2         6.6988    2.2207    1.9323 H         1 RES1    0.0000
     19 C7         5.7141    1.0675    3.3139 C.2       1 RES1    0.0000
     20 H3         6.3809    0.9165    3.9735 H         1 RES1    0.0000
     21 C8         4.1870    0.7792    5.1613 C.2       1 RES1    0.0000
     22 C9         2.7758    1.2393    6.9897 C.3       1 RES1    0.0000
     23 H4         3.5791    1.3097    7.5461 H         1 RES1    0.0000
     24 H5         2.3868    0.3449    7.0894 H         1 RES1    0.0000
     25 H6         2.1223    1.9126    7.2720 H         1 RES1    0.0000
     26 C10        2.2423    0.2520    3.0048 C.ar      1 RES1    0.0000
     27 C11        1.1117    0.5610    3.7373 C.ar      1 RES1    0.0000
     28 H7         0.9911    1.4443    4.0656 H         1 RES1    0.0000
     29 C12        0.1493   -0.4070    3.9988 C.ar      1 RES1    0.0000
     30 H8        -0.6195   -0.1903    4.5136 H         1 RES1    0.0000
     31 C13        0.3175   -1.6895    3.5036 C.ar      1 RES1    0.0000
     32 C14        1.4222   -1.9950    2.7160 C.ar      1 RES1    0.0000
     33 H9         1.5197   -2.8647    2.3466 H         1 RES1    0.0000
     34 C15        2.3777   -1.0228    2.4738 C.ar      1 RES1    0.0000
     35 H10        3.1349   -1.2309    1.9385 H         1 RES1    0.0000
     36 C16       -1.6083   -2.4814    4.6600 C.3       1 RES1    0.0000
     37 H11       -1.2369   -2.1141    5.4895 H         1 RES1    0.0000
     38 H12       -2.0758   -3.3198    4.8542 H         1 RES1    0.0000
     39 H13       -2.2375   -1.8382    4.2715 H         1 RES1    0.0000
     40 C17        3.0078    2.5966   -1.8937 C.ar      1 RES1    0.0000
     41 C18        1.7278    2.2410   -2.3049 C.ar      1 RES1    0.0000
     42 H14        1.1668    1.7419   -1.7224 H         1 RES1    0.0000
     43 C19        1.2610    2.6110   -3.5649 C.ar      1 RES1    0.0000
     44 H15        0.3810    2.3735   -3.8336 H         1 RES1    0.0000
     45 C20        2.0771    3.3241   -4.4246 C.ar      1 RES1    0.0000
     46 C21        3.3570    3.6741   -4.0242 C.ar      1 RES1    0.0000
     47 H16        3.9206    4.1578   -4.6164 H         1 RES1    0.0000
     48 C22        3.8208    3.3229   -2.7634 C.ar      1 RES1    0.0000
     49 H17        4.6952    3.5781   -2.4926 H         1 RES1    0.0000
     50 C23        0.4718    3.2491   -6.1844 C.3       1 RES1    0.0000
     51 H18       -0.2640    3.5542   -5.6135 H         1 RES1    0.0000
     52 H19        0.4939    2.2695   -6.1932 H         1 RES1    0.0000
     53 H20        0.3365    3.5810   -7.0966 H         1 RES1    0.0000
     54 C24        5.6162    1.1135   -1.3227 C.ar      1 RES1    0.0000
     55 C25        5.0917   -0.1446   -1.5706 C.ar      1 RES1    0.0000
     56 H21        4.2725   -0.4085   -1.1684 H         1 RES1    0.0000
     57 C26        5.7725   -1.0201   -2.4126 C.ar      1 RES1    0.0000
     58 H22        5.4147   -1.8820   -2.5882 H         1 RES1    0.0000
     59 C27        6.9678   -0.6361   -2.9946 C.ar      1 RES1    0.0000
     60 H23        7.4305   -1.2387   -3.5653 H         1 RES1    0.0000
     61 C28        7.4873    0.6046   -2.7524 C.ar      1 RES1    0.0000
     62 H24        8.3095    0.8635   -3.1511 H         1 RES1    0.0000
     63 C29        6.8086    1.4834   -1.9228 C.ar      1 RES1    0.0000
     64 H25        7.1655    2.3493   -1.7638 H         1 RES1    0.0000
     65 C30        7.1056    0.2706    1.3870 C.ar      1 RES1    0.0000
     66 C31        8.3950    0.5824    0.9695 C.ar      1 RES1    0.0000
     67 H26        8.7094    1.4754    1.0476 H         1 RES1    0.0000
     68 C32        9.2240   -0.3877    0.4431 C.ar      1 RES1    0.0000
     69 H27       10.1018   -0.1740    0.1499 H         1 RES1    0.0000
     70 C33        8.7403   -1.6761    0.3549 C.ar      1 RES1    0.0000
     71 C34        7.4863   -2.0321    0.7951 C.ar      1 RES1    0.0000
     72 H28        7.1898   -2.9329    0.7425 H         1 RES1    0.0000
     73 C35        6.6682   -1.0443    1.3165 C.ar      1 RES1    0.0000
     74 H29        5.7995   -1.2689    1.6290 H         1 RES1    0.0000
@<TRIPOS>BOND
     1    1   21 2
     2    2   21 1
     3    3   31 1
     4    4   13 2
     5    5   45 1
     6    6   10 2
     7    7   10 2
     8    8   11 1
     9    9   13 1
    10   10   70 1
    11   11   19 2
    12   12    8 1
    13   13   12 1
    14   14    9 1
    15   15   14 1
    16   16   12 2
    17   17   16 1
    18   18   17 1
    19   19   17 1
    20   20   19 1
    21   21   11 1
    22   22    2 1
    23   23   22 1
    24   24   22 1
    25   25   22 1
    26   26    8 1
    27   27   26 ar
    28   28   27 1
    29   29   27 ar
    30   30   29 1
    31   31   29 ar
    32   32   31 ar
    33   33   32 1
    34   34   26 ar
    35   35   34 1
    36   36    3 1
    37   37   36 1
    38   38   36 1
    39   39   36 1
    40   40    9 1
    41   41   40 ar
    42   42   41 1
    43   43   41 ar
    44   44   43 1
    45   45   43 ar
    46   46   45 ar
    47   47   46 1
    48   48   40 ar
    49   49   48 1
    50   50    5 1
    51   51   50 1
    52   52   50 1
    53   53   50 1
    54   54   14 1
    55   55   54 ar
    56   56   55 1
    57   57   55 ar
    58   58   57 1
    59   59   57 ar
    60   60   59 1
    61   61   59 ar
    62   62   61 1
    63   63   54 ar
    64   64   63 1
    65   65   17 1
    66   66   65 ar
    67   67   66 1
    68   68   66 ar
    69   69   68 1
    70   70   68 ar
    71   71   70 ar
    72   72   71 1
    73   73   65 ar
    74   74   73 1
    75   14   16 1
    76   32   34 ar
    77   46   48 ar
    78   61   63 ar
    79   71   73 ar
@<TRIPOS>SUBSTRUCTURE
     1 RES1 1

@<TRIPOS>CRYSIN
   9.9526   14.3267   20.7914  90.0000  90.0000  90.0000  19 1

