# MOL2 file generated by ConQuest
# Please check atom types

@<TRIPOS>MOLECULE
WEPWOE
    48    49     1
SMALL
NO_CHARGES
****
Generated from CSD

@<TRIPOS>ATOM
      1 O1         0.0951    1.6202    5.3602 O.2       1 RES1    0.0000
      2 O2        -1.2098    3.4376    5.6737 O.3       1 RES1    0.0000
      3 O3         5.7725    5.3830    8.4948 O.2       1 RES1    0.0000
      4 O4         4.9042    6.8184    7.1249 O.2       1 RES1    0.0000
      5 N1         4.8474    5.7890    7.7976 N.pl3     1 RES1    0.0000
      6 C1        -0.3544    2.4877    6.0698 C.2       1 RES1    0.0000
      7 C2         0.0246    2.6778    7.5251 C.3       1 RES1    0.0000
      8 H1         0.1778    1.7945    7.9462 H         1 RES1    0.0000
      9 H2        -0.7177    3.1223    8.0053 H         1 RES1    0.0000
     10 C3         1.2842    3.5224    7.6394 C.ar      1 RES1    0.0000
     11 C4         2.3957    3.0422    8.3217 C.ar      1 RES1    0.0000
     12 H3         2.3530    2.1940    8.7471 H         1 RES1    0.0000
     13 C5         3.5653    3.7809    8.3903 C.ar      1 RES1    0.0000
     14 H4         4.3218    3.4540    8.8615 H         1 RES1    0.0000
     15 C6         3.6011    5.0057    7.7545 C.ar      1 RES1    0.0000
     16 C7         2.5111    5.5275    7.0743 C.ar      1 RES1    0.0000
     17 H5         2.5619    6.3756    6.6495 H         1 RES1    0.0000
     18 C8         1.3451    4.7794    7.0311 C.ar      1 RES1    0.0000
     19 H6         0.5804    5.1233    6.5846 H         1 RES1    0.0000
     20 C9        -1.6242    3.4230    4.2633 C.3       1 RES1    0.0000
     21 H7        -1.6249    2.4795    3.9321 H         1 RES1    0.0000
     22 C10       -3.0495    3.9599    4.2427 C.3       1 RES1    0.0000
     23 H8        -3.2214    4.3617    3.3543 H         1 RES1    0.0000
     24 H9        -3.1237    4.6817    4.9161 H         1 RES1    0.0000
     25 C11       -4.1356    2.9176    4.5246 C.3       1 RES1    0.0000
     26 H10       -4.0504    2.6345    5.4691 H         1 RES1    0.0000
     27 H11       -5.0167    3.3598    4.4298 H         1 RES1    0.0000
     28 C12       -4.1410    1.6612    3.6535 C.3       1 RES1    0.0000
     29 H12       -4.7994    1.0300    4.0389 H         1 RES1    0.0000
     30 H13       -3.2502    1.2365    3.7319 H         1 RES1    0.0000
     31 C13       -4.4569    1.8097    2.1606 C.3       1 RES1    0.0000
     32 H14       -5.3519    2.2274    2.0843 H         1 RES1    0.0000
     33 H15       -4.5277    0.9002    1.7773 H         1 RES1    0.0000
     34 C14       -3.4887    2.6158    1.2752 C.3       1 RES1    0.0000
     35 H16       -3.8182    2.5865    0.3413 H         1 RES1    0.0000
     36 H17       -3.5087    3.5610    1.5675 H         1 RES1    0.0000
     37 C15       -2.0325    2.1338    1.2904 C.3       1 RES1    0.0000
     38 H18       -1.8533    1.7121    2.1682 H         1 RES1    0.0000
     39 H19       -1.9294    1.4325    0.5988 H         1 RES1    0.0000
     40 C16       -0.9707    3.2071    1.0479 C.3       1 RES1    0.0000
     41 H20       -0.0840    2.7714    1.1079 H         1 RES1    0.0000
     42 H21       -1.0759    3.5282    0.1182 H         1 RES1    0.0000
     43 C17       -0.9490    4.4314    1.9619 C.3       1 RES1    0.0000
     44 H22       -1.8378    4.8642    1.9050 H         1 RES1    0.0000
     45 H23       -0.2902    5.0707    1.5904 H         1 RES1    0.0000
     46 C18       -0.6203    4.2372    3.4540 C.3       1 RES1    0.0000
     47 H24        0.2627    3.7955    3.5221 H         1 RES1    0.0000
     48 H25       -0.5369    5.1309    3.8711 H         1 RES1    0.0000
@<TRIPOS>BOND
     1    1    6 2
     2    2    6 1
     3    3    5 2
     4    4    5 2
     5    5   15 1
     6    6    7 1
     7    7    8 1
     8    9    7 1
     9   10    7 1
    10   11   10 ar
    11   12   11 1
    12   13   11 ar
    13   14   13 1
    14   15   13 ar
    15   16   15 ar
    16   17   16 1
    17   18   10 ar
    18   19   18 1
    19   20    2 1
    20   21   20 1
    21   22   20 1
    22   23   22 1
    23   24   22 1
    24   25   22 1
    25   26   25 1
    26   27   25 1
    27   28   25 1
    28   29   28 1
    29   30   28 1
    30   31   28 1
    31   32   31 1
    32   33   31 1
    33   34   31 1
    34   35   34 1
    35   36   34 1
    36   37   34 1
    37   38   37 1
    38   39   37 1
    39   40   37 1
    40   41   40 1
    41   42   40 1
    42   43   40 1
    43   44   43 1
    44   45   43 1
    45   46   20 1
    46   47   46 1
    47   48   46 1
    48   16   18 ar
    49   43   46 1
@<TRIPOS>SUBSTRUCTURE
     1 RES1 1

@<TRIPOS>CRYSIN
   7.5050    5.8492   19.3810  90.0000 100.2890  90.0000   4 1

