# MOL2 file generated by ConQuest
# Please check atom types

@<TRIPOS>MOLECULE
WEPWAQ
    20    20     1
SMALL
NO_CHARGES
****
Generated from CSD

@<TRIPOS>ATOM
      1 C1        10.2613    2.8215    5.0271 C.ar      1 RES1    0.0000
      2 C2         8.8307    2.5098    4.6824 C.2       1 RES1    0.0000
      3 O1         8.4298    1.3429    4.6727 O.2       1 RES1    0.0000
      4 N1         8.0740    3.5545    4.3591 N.am      1 RES1    0.0000
      5 N2         6.7167    3.3925    3.9826 N.3       1 RES1    0.0000
      6 C3        10.8982    2.1398    6.0639 C.ar      1 RES1    0.0000
      7 N3        10.0945    1.3569    7.0223 N.pl3     1 RES1    0.0000
      8 O2         9.0684    1.8760    7.4557 O.2       1 RES1    0.0000
      9 O3        10.5050    0.2513    7.3631 O.2       1 RES1    0.0000
     10 C4        12.2536    2.2271    6.3084 C.ar      1 RES1    0.0000
     11 C5        13.0009    3.0823    5.5005 C.ar      1 RES1    0.0000
     12 C6        12.3953    3.8168    4.5216 C.ar      1 RES1    0.0000
     13 C7        11.0374    3.6727    4.2643 C.ar      1 RES1    0.0000
     14 H1         8.4282    4.4362    4.3711 H         1 RES1    0.0000
     15 H2         6.1801    3.2329    4.7493 H         1 RES1    0.0000
     16 H3         6.6954    2.6051    3.4513 H         1 RES1    0.0000
     17 H4        12.6623    1.7229    7.0017 H         1 RES1    0.0000
     18 H5        13.9387    3.1546    5.6317 H         1 RES1    0.0000
     19 H6        12.9081    4.4327    4.0109 H         1 RES1    0.0000
     20 H7        10.6387    4.1644    3.5555 H         1 RES1    0.0000
@<TRIPOS>BOND
     1    1    2 1
     2    2    3 2
     3    4    2 1
     4    5    4 1
     5    6    1 ar
     6    7    6 1
     7    8    7 2
     8    9    7 2
     9   10    6 ar
    10   11   10 ar
    11   12   11 ar
    12   13    1 ar
    13   14    4 1
    14   15    5 1
    15   16    5 1
    16   17   10 1
    17   18   11 1
    18   19   12 1
    19   20   13 1
    20   12   13 ar
@<TRIPOS>SUBSTRUCTURE
     1 RES1 1

@<TRIPOS>CRYSIN
  12.5382    4.9867   12.8637  90.0000  90.0000  90.0000  19 1

