# MOL2 file generated by ConQuest
# Please check atom types

@<TRIPOS>MOLECULE
WEPXEX
    33    34     1
SMALL
NO_CHARGES
****
Generated from CSD

@<TRIPOS>ATOM
      1 O1         4.4538   32.1458    0.6446 O.3       1 RES1    0.0000
      2 O2         4.4684   43.1544    1.0665 O.2       1 RES1    0.0000
      3 O3         4.3552   43.7079    3.1479 O.2       1 RES1    0.0000
      4 N1         4.3595   42.8708    2.2551 N.pl3     1 RES1    0.0000
      5 N2         3.9336   36.9676    6.2551 N.1       1 RES1    0.0000
      6 C1         4.3885   40.5061    1.6422 C.ar      1 RES1    0.0000
      7 H1         4.5196   40.7587    0.7563 H         1 RES1    0.0000
      8 C2         4.2926   34.1393    1.8242 C.ar      1 RES1    0.0000
      9 H2         4.3895   34.5802    1.0107 H         1 RES1    0.0000
     10 C3         4.1222   38.7848    3.3196 C.ar      1 RES1    0.0000
     11 C4         3.9953   37.1082    5.1189 C.1       1 RES1    0.0000
     12 C5         4.0265   41.1221    3.9400 C.ar      1 RES1    0.0000
     13 H3         3.9232   41.7835    4.5881 H         1 RES1    0.0000
     14 C6         4.3063   32.7505    1.8587 C.ar      1 RES1    0.0000
     15 C7         4.1527   36.3355    2.8142 C.2       1 RES1    0.0000
     16 H4         4.2164   36.6060    1.9269 H         1 RES1    0.0000
     17 C8         4.1344   34.8859    2.9948 C.ar      1 RES1    0.0000
     18 C9         4.3326   39.1739    1.9904 C.ar      1 RES1    0.0000
     19 H5         4.4362   38.5244    1.3333 H         1 RES1    0.0000
     20 C10        4.0949   37.3584    3.7001 C.2       1 RES1    0.0000
     21 C11        3.9604   39.7893    4.2806 C.ar      1 RES1    0.0000
     22 H6         3.8057   39.5492    5.1665 H         1 RES1    0.0000
     23 C12        3.9762   32.8262    4.2213 C.ar      1 RES1    0.0000
     24 H7         3.8613   32.3817    5.0307 H         1 RES1    0.0000
     25 C13        4.1519   32.0803    3.0631 C.ar      1 RES1    0.0000
     26 H8         4.1671   31.1484    3.0941 H         1 RES1    0.0000
     27 C14        3.9662   34.2013    4.2027 C.ar      1 RES1    0.0000
     28 H9         3.8474   34.6756    4.9935 H         1 RES1    0.0000
     29 C15        4.2472   41.4605    2.6288 C.ar      1 RES1    0.0000
     30 C16        4.6295   30.7224    0.6460 C.3       1 RES1    0.0000
     31 H10        5.3662   30.4930    1.2154 H         1 RES1    0.0000
     32 H11        4.8090   30.4215   -0.2475 H         1 RES1    0.0000
     33 H12        3.8297   30.3024    0.9707 H         1 RES1    0.0000
@<TRIPOS>BOND
     1    1   14 1
     2    2    4 2
     3    3    4 2
     4    4   29 1
     5    5   11 3
     6    6    7 1
     7    8    9 1
     8   10   18 ar
     9   11   20 1
    10   12   13 1
    11   14    8 ar
    12   15   16 1
    13   17    8 ar
    14   18    6 ar
    15   19   18 1
    16   20   10 1
    17   21   10 ar
    18   22   21 1
    19   23   24 1
    20   25   14 ar
    21   26   25 1
    22   27   17 ar
    23   28   27 1
    24   29    6 ar
    25   30    1 1
    26   31   30 1
    27   32   30 1
    28   33   30 1
    29   12   21 ar
    30   12   29 ar
    31   15   17 1
    32   15   20 2
    33   23   25 ar
    34   23   27 ar
@<TRIPOS>SUBSTRUCTURE
     1 RES1 1

@<TRIPOS>CRYSIN
  12.6352   59.5800    6.8942  90.0000  90.0000  90.0000  43 1

