# MOL2 file generated by ConQuest
# Please check atom types

@<TRIPOS>MOLECULE
WEPXAT
    33    34     1
SMALL
NO_CHARGES
****
Generated from CSD

@<TRIPOS>ATOM
      1 O1         3.5188   27.6281    1.8292 O.3       1 RES1    0.0000
      2 O2         3.0412   16.5563    1.8218 O.2       1 RES1    0.0000
      3 O3         0.9512   16.0236    1.9974 O.2       1 RES1    0.0000
      4 N1        -2.0931   22.7878    2.3739 N.1       1 RES1    0.0000
      5 N2         1.8563   16.8519    1.9590 N.pl3     1 RES1    0.0000
      6 C1        -0.0405   25.5448    2.3242 C.ar      1 RES1    0.0000
      7 H1        -0.8462   25.0568    2.4463 H         1 RES1    0.0000
      8 C2         1.1778   24.8656    2.1548 C.ar      1 RES1    0.0000
      9 C3         0.8354   20.9565    2.1693 C.ar      1 RES1    0.0000
     10 C4         1.3560   23.4113    2.1359 C.2       1 RES1    0.0000
     11 H2         2.2609   23.1296    2.0667 H         1 RES1    0.0000
     12 C5         0.4622   22.3969    2.1995 C.2       1 RES1    0.0000
     13 C6        -0.9566   22.6456    2.3040 C.1       1 RES1    0.0000
     14 C7         2.5037   19.2187    1.9213 C.ar      1 RES1    0.0000
     15 H3         3.4065   18.9535    1.7935 H         1 RES1    0.0000
     16 C8        -0.1432   19.9655    2.3204 C.ar      1 RES1    0.0000
     17 H4        -1.0467   20.2193    2.4658 H         1 RES1    0.0000
     18 C9         2.1654   20.5563    1.9779 C.ar      1 RES1    0.0000
     19 H5         2.8436   21.2144    1.8860 H         1 RES1    0.0000
     20 C10        2.3477   25.6188    1.9930 C.ar      1 RES1    0.0000
     21 H6         3.1807   25.1741    1.8904 H         1 RES1    0.0000
     22 C11        1.0965   27.6756    2.1334 C.ar      1 RES1    0.0000
     23 H7         1.0606   28.6256    2.1158 H         1 RES1    0.0000
     24 C12        1.4979   18.2704    2.0541 C.ar      1 RES1    0.0000
     25 C13       -0.0610   26.9272    2.3116 C.ar      1 RES1    0.0000
     26 H8        -0.8893   27.3779    2.4280 H         1 RES1    0.0000
     27 C14        2.3069   27.0114    1.9811 C.ar      1 RES1    0.0000
     28 C15        0.1806   18.6228    2.2612 C.ar      1 RES1    0.0000
     29 H9        -0.4898   17.9583    2.3607 H         1 RES1    0.0000
     30 C16        3.5115   29.0475    1.6348 C.3       1 RES1    0.0000
     31 H10        2.9251   29.2721    0.8826 H         1 RES1    0.0000
     32 H11        4.4214   29.3562    1.4428 H         1 RES1    0.0000
     33 H12        3.1834   29.4855    2.4469 H         1 RES1    0.0000
@<TRIPOS>BOND
     1    1   27 1
     2    2    5 2
     3    3    5 2
     4    4   13 3
     5    5   24 1
     6    6    7 1
     7    8    6 ar
     8    9   12 1
     9   10    8 1
    10   11   10 1
    11   12   10 2
    12   13   12 1
    13   14   15 1
    14   16    9 ar
    15   17   16 1
    16   18    9 ar
    17   19   18 1
    18   20    8 ar
    19   21   20 1
    20   22   23 1
    21   24   14 ar
    22   25    6 ar
    23   26   25 1
    24   27   20 ar
    25   28   16 ar
    26   29   28 1
    27   30    1 1
    28   31   30 1
    29   32   30 1
    30   33   30 1
    31   14   18 ar
    32   22   25 ar
    33   22   27 ar
    34   24   28 ar
@<TRIPOS>SUBSTRUCTURE
     1 RES1 1

@<TRIPOS>CRYSIN
   6.8818   30.0658    7.0543  90.0000 116.8260  90.0000 231 1

