# MOL2 file generated by ConQuest
# Please check atom types

@<TRIPOS>MOLECULE
WEQCUT
    57    50     2
SMALL
NO_CHARGES
****
Generated from CSD

@<TRIPOS>ATOM
      1 C1         1.3265    6.0642   21.2348 C.ar      1 RES1    0.0000
      2 N1         1.9029    7.3206   20.8102 N.pl3     1 RES1    0.0000
      3 O1         2.8880    7.7492   21.4410 O.2       1 RES1    0.0000
      4 O2         1.4476    7.8832   19.8241 O.2       1 RES1    0.0000
      5 C2         0.4268    5.4919   20.3628 C.ar      1 RES1    0.0000
      6 H1         0.1894    5.9255   19.5507 H         1 RES1    0.0000
      7 C3        -0.1252    4.2564   20.7012 C.ar      1 RES1    0.0000
      8 N2        -1.0516    3.6505   19.7461 N.pl3     1 RES1    0.0000
      9 O3        -1.2971    2.4430   19.8774 O.2       1 RES1    0.0000
     10 O4        -1.5756    4.3541   18.8741 O.2       1 RES1    0.0000
     11 C4         0.2279    3.6212   21.8773 C.ar      1 RES1    0.0000
     12 H2        -0.1390    2.7673   22.0736 H         1 RES1    0.0000
     13 C5         1.0769    4.1852   22.7407 C.ar      1 RES1    0.0000
     14 H3         1.2917    3.7325   23.5487 H         1 RES1    0.0000
     15 C6         1.6633    5.4528   22.4739 C.ar      1 RES1    0.0000
     16 N3         2.5001    6.0098   23.3574 N.pl3     1 RES1    0.0000
     17 H4         2.9045    6.7679   23.1663 H         1 RES1    0.0000
     18 N4         2.7262    5.3830   24.5793 N.2       1 RES1    0.0000
     19 C7         3.3939    6.0419   25.4513 C.2       1 RES1    0.0000
     20 C8         3.6335    5.3565   26.7536 C.3       1 RES1    0.0000
     21 H5         2.8521    5.5185   27.3568 H         1 RES1    0.0000
     22 C9         3.8835    3.8865   26.6675 C.3       1 RES1    0.0000
     23 H6         3.1448    3.4641   26.1604 H         1 RES1    0.0000
     24 H7         4.7218    3.7323   26.1628 H         1 RES1    0.0000
     25 O5         3.9875    3.2638   27.9411 O.3       1 RES1    0.0000
     26 H8         4.7081    3.4930   28.3068 H         1 RES1    0.0000
     27 O6         4.8063    5.9330   27.3442 O.3       1 RES1    0.0000
     28 C10        4.5879    7.2746   27.7661 C.3       1 RES1    0.0000
     29 H9         5.4772    7.6857   27.9637 H         1 RES1    0.0000
     30 O7         3.8157    7.3360   28.9235 O.3       1 RES1    0.0000
     31 C11        4.5088    6.8264   30.0752 C.3       1 RES1    0.0000
     32 H10        5.2240    7.4568   30.3422 H         1 RES1    0.0000
     33 H11        4.9282    5.9568   29.8568 H         1 RES1    0.0000
     34 C12        3.5729    6.6561   31.1709 C.3       1 RES1    0.0000
     35 H12        3.2033    7.5286   31.4226 H         1 RES1    0.0000
     36 H13        4.0368    6.2640   31.9393 H         1 RES1    0.0000
     37 H14        2.8457    6.0626   30.8896 H         1 RES1    0.0000
     38 C13        3.9075    8.1136   26.7019 C.3       1 RES1    0.0000
     39 H15        2.9430    8.1705   26.9578 H         1 RES1    0.0000
     40 C14        4.5300    9.6212   26.8912 C.3       1 RES1    0.0000
     41 H16        4.5853    9.8284   27.8590 H         1 RES1    0.0000
     42 H17        5.4506    9.6403   26.5263 H         1 RES1    0.0000
     43 C15        3.6846   10.7115   26.1885 C.3       1 RES1    0.0000
     44 H18        3.4388   10.4062   25.2890 H         1 RES1    0.0000
     45 H19        4.2037   11.5391   26.1211 H         1 RES1    0.0000
     46 H20        2.8688   10.8795   26.7074 H         1 RES1    0.0000
     47 C16        3.9514    7.4379   25.3481 C.3       1 RES1    0.0000
     48 H21        3.4199    7.9617   24.6962 H         1 RES1    0.0000
     49 H22        4.8862    7.4007   25.0234 H         1 RES1    0.0000
     50 H23        2.9484    8.2248   26.9600 Du        2 SUP2    0.0000
     51 C17        4.4035    9.4174   26.2172 Du        2 SUP2    0.0000
     52 H24        3.8100    9.8078   25.5286 Du        2 SUP2    0.0000
     53 H25        5.3267    9.3526   25.8610 Du        2 SUP2    0.0000
     54 C18        4.3537   10.1782   27.4850 Du        2 SUP2    0.0000
     55 H26        3.4323   10.2074   27.8128 Du        2 SUP2    0.0000
     56 H27        4.6763   11.0915   27.3312 Du        2 SUP2    0.0000
     57 H28        4.9249    9.7401   28.1515 Du        2 SUP2    0.0000
@<TRIPOS>BOND
     1    1    2 1
     2    2    3 2
     3    4    2 2
     4    5    1 ar
     5    6    5 1
     6    7    5 ar
     7    8    7 1
     8    9    8 2
     9   10    8 2
    10   11    7 ar
    11   12   11 1
    12   13   11 ar
    13   14   13 1
    14   15    1 ar
    15   16   15 1
    16   17   16 1
    17   18   16 1
    18   19   18 2
    19   20   19 1
    20   21   20 1
    21   22   20 1
    22   23   22 1
    23   24   22 1
    24   25   22 1
    25   26   25 1
    26   27   20 1
    27   28   27 1
    28   29   28 1
    29   30   28 1
    30   31   30 1
    31   32   31 1
    32   33   31 1
    33   34   31 1
    34   35   34 1
    35   36   34 1
    36   37   34 1
    37   38   28 1
    38   39   38 1
    39   40   38 1
    40   41   40 1
    41   42   40 1
    42   43   40 1
    43   44   43 1
    44   45   43 1
    45   46   43 1
    46   47   19 1
    47   48   47 1
    48   49   47 1
    49   13   15 ar
    50   38   47 1
@<TRIPOS>SUBSTRUCTURE
     1 RES1 1
     2 SUP2 50

@<TRIPOS>CRYSIN
   4.5210   13.9600   28.6840  90.0000  90.0000  90.0000  19 1

