# MOL2 file generated by ConQuest
# Please check atom types

@<TRIPOS>MOLECULE
WEQJIM
   115   115     2
SMALL
NO_CHARGES
****
Generated from CSD

@<TRIPOS>ATOM
      1 O1         5.6120    3.6442    3.8749 O.3       1 RES1    0.0000
      2 O2         3.2923    6.1374    4.9474 O.3       1 RES1    0.0000
      3 O3         4.0015    8.4208    6.6057 O.3       1 RES1    0.0000
      4 O4         6.8918    8.6940    5.6929 O.3       1 RES1    0.0000
      5 O5         8.3988    6.0947    6.5341 O.3       1 RES1    0.0000
      6 O6         9.8992    4.5136    4.6031 O.3       1 RES1    0.0000
      7 O7         8.2929    0.4431    5.1701 O.3       1 RES1    0.0000
      8 O8         5.6483    4.8370    8.6229 O.2       1 RES1    0.0000
      9 O9         7.6683    4.8560    9.4381 O.2       1 RES1    0.0000
     10 O10        8.3078    3.2707    0.6892 O.3       1 RES1    0.0000
     11 O11        6.0397    8.7919    2.3819 O.2       1 RES1    0.0000
     12 O12        8.1417    9.2902    2.1779 O.2       1 RES1    0.0000
     13 N1         6.8102    4.4316    8.6619 N.pl3     1 RES1    0.0000
     14 N2         7.2140    8.4995    2.1513 N.pl3     1 RES1    0.0000
     15 C1         4.3761    4.3101    3.9819 C.3       1 RES1    0.0000
     16 H1         3.7433    3.7486    4.4577 H         1 RES1    0.0000
     17 H2         4.0200    4.4798    3.0948 H         1 RES1    0.0000
     18 C2         4.5430    5.5707    4.6913 C.3       1 RES1    0.0000
     19 H3         5.0097    5.4158    5.5276 H         1 RES1    0.0000
     20 H4         5.0751    6.1801    4.1563 H         1 RES1    0.0000
     21 C3         4.0625    4.9145    5.2754 Du        2 SUP2    0.0000
     22 H5         4.8751    5.1372    5.7562 Du        2 SUP2    0.0000
     23 H6         3.5332    4.3098    5.8188 Du        2 SUP2    0.0000
     24 C4         2.7850    6.3502    6.2692 C.3       1 RES1    0.0000
     25 H7         3.3713    5.9364    6.9227 H         1 RES1    0.0000
     26 H8         1.9029    5.9556    6.3555 H         1 RES1    0.0000
     27 C5         2.7154    7.8171    6.5011 C.3       1 RES1    0.0000
     28 H9         2.2302    8.2299    5.7697 H         1 RES1    0.0000
     29 H10        2.2199    7.9844    7.3188 H         1 RES1    0.0000
     30 C6         4.4672    9.0461    5.3820 C.3       1 RES1    0.0000
     31 H11        3.8442    9.7381    5.1112 H         1 RES1    0.0000
     32 H12        4.5111    8.3851    4.6727 H         1 RES1    0.0000
     33 C7         5.8282    9.6472    5.5954 C.3       1 RES1    0.0000
     34 H13        6.0202   10.2510    4.8606 H         1 RES1    0.0000
     35 H14        5.8099   10.1747    6.4097 H         1 RES1    0.0000
     36 C8         7.0766    8.1170    7.0276 C.3       1 RES1    0.0000
     37 H15        6.3513    7.5040    7.2223 H         1 RES1    0.0000
     38 H16        7.0603    8.8236    7.6930 H         1 RES1    0.0000
     39 C9         8.3847    7.3895    7.1004 C.3       1 RES1    0.0000
     40 H17        9.0583    7.9255    6.6535 H         1 RES1    0.0000
     41 H18        8.6432    7.3173    8.0333 H         1 RES1    0.0000
     42 C10        8.2389    6.1409    5.0993 C.3       1 RES1    0.0000
     43 H19        8.8776    6.7584    4.7099 H         1 RES1    0.0000
     44 H20        7.3444    6.4385    4.8708 H         1 RES1    0.0000
     45 C11        8.4729    4.7645    4.5796 C.3       1 RES1    0.0000
     46 H21        8.0108    4.1161    5.1349 H         1 RES1    0.0000
     47 H22        8.1354    4.6883    3.6738 H         1 RES1    0.0000
     48 C12        5.6611    2.6310    1.6947 C.ar      1 RES1    0.0000
     49 C13        5.6172    2.5041    3.0999 C.ar      1 RES1    0.0000
     50 C14        5.6294    1.2582    3.7872 C.ar      1 RES1    0.0000
     51 C15        5.7112    0.1124    3.0135 C.ar      1 RES1    0.0000
     52 H23        5.7271   -0.7227    3.4215 H         1 RES1    0.0000
     53 C16        5.7694    0.2083    1.6253 C.ar      1 RES1    0.0000
     54 H24        5.8374   -0.5687    1.1191 H         1 RES1    0.0000
     55 C17        5.7293    1.4527    0.9718 C.ar      1 RES1    0.0000
     56 H25        5.7487    1.4841    0.0423 H         1 RES1    0.0000
     57 C18        5.4734    1.1173    5.3160 C.3       1 RES1    0.0000
     58 H26        4.6216    1.5013    5.5733 H         1 RES1    0.0000
     59 H27        5.4450    0.1720    5.5344 H         1 RES1    0.0000
     60 C19        6.5509    1.7615    6.1371 C.ar      1 RES1    0.0000
     61 C20        7.9098    1.4550    5.9949 C.ar      1 RES1    0.0000
     62 C21        8.9221    2.2061    6.5976 C.ar      1 RES1    0.0000
     63 C22        8.5488    3.1631    7.5068 C.ar      1 RES1    0.0000
     64 H28        9.1930    3.6540    7.9656 H         1 RES1    0.0000
     65 C23        7.2047    3.3915    7.7336 C.ar      1 RES1    0.0000
     66 C24        6.2103    2.7445    7.0395 C.ar      1 RES1    0.0000
     67 H29        5.3183    2.9689    7.1766 H         1 RES1    0.0000
     68 C25       10.3719    2.0812    6.1777 C.3       1 RES1    0.0000
     69 H30       10.7000    1.2137    6.4639 H         1 RES1    0.0000
     70 H31       10.8869    2.7556    6.6484 H         1 RES1    0.0000
     71 C26       10.6396    2.2289    4.6710 C.ar      1 RES1    0.0000
     72 C27       10.3620    3.4103    3.9193 C.ar      1 RES1    0.0000
     73 C28       10.7059    3.5569    2.5513 C.ar      1 RES1    0.0000
     74 C29       11.3406    2.4910    1.9469 C.ar      1 RES1    0.0000
     75 H32       11.5844    2.5487    1.0514 H         1 RES1    0.0000
     76 C30       11.6223    1.3148    2.6699 C.ar      1 RES1    0.0000
     77 H33       12.0523    0.6107    2.2415 H         1 RES1    0.0000
     78 C31       11.2706    1.1811    4.0192 C.ar      1 RES1    0.0000
     79 H34       11.4591    0.3927    4.4763 H         1 RES1    0.0000
     80 C32       10.5690    4.8795    1.7641 C.3       1 RES1    0.0000
     81 H35       11.0486    5.5701    2.2483 H         1 RES1    0.0000
     82 H36       11.0096    4.7679    0.9074 H         1 RES1    0.0000
     83 C33        9.1466    5.3782    1.5073 C.ar      1 RES1    0.0000
     84 C34        8.0878    4.5512    1.0920 C.ar      1 RES1    0.0000
     85 C35        6.7481    4.9366    1.1969 C.ar      1 RES1    0.0000
     86 C36        6.4684    6.2402    1.5508 C.ar      1 RES1    0.0000
     87 H37        5.5881    6.5339    1.6083 H         1 RES1    0.0000
     88 C37        7.5120    7.1060    1.8166 C.ar      1 RES1    0.0000
     89 C38        8.8297    6.6899    1.8284 C.ar      1 RES1    0.0000
     90 H38        9.5051    7.2899    2.0519 H         1 RES1    0.0000
     91 C39        5.6294    3.9651    0.9176 C.3       1 RES1    0.0000
     92 H39        5.6349    3.7619   -0.0305 H         1 RES1    0.0000
     93 H40        4.7890    4.4079    1.1140 H         1 RES1    0.0000
     94 C40        8.0540   -0.9257    5.6851 C.3       1 RES1    0.0000
     95 H41        7.0872   -1.0653    5.7613 H         1 RES1    0.0000
     96 C41        8.9321   -0.7334    5.6224 Du        2 SUP2    0.0000
     97 H42        9.8963   -0.5765    5.5496 Du        2 SUP2    0.0000
     98 C42        8.6836   -1.2515    6.9938 C.3       1 RES1    0.0000
     99 H43        8.3211   -0.6820    7.6761 H         1 RES1    0.0000
    100 H44        8.5107   -2.1690    7.2172 H         1 RES1    0.0000
    101 H45        9.6312   -1.1114    6.9294 H         1 RES1    0.0000
    102 C43        8.5756   -1.7941    4.5592 C.3       1 RES1    0.0000
    103 H46        8.1378   -1.5528    3.7398 H         1 RES1    0.0000
    104 H47        9.5224   -1.6597    4.4678 H         1 RES1    0.0000
    105 H48        8.4020   -2.7173    4.7556 H         1 RES1    0.0000
    106 C44        9.0223    3.1189   -0.5807 C.3       1 RES1    0.0000
    107 H49        9.8973    3.5540   -0.5130 H         1 RES1    0.0000
    108 C45        9.2159    1.6276   -0.6857 C.3       1 RES1    0.0000
    109 H50        9.6286    1.2999    0.1168 H         1 RES1    0.0000
    110 H51        9.7796    1.4304   -1.4374 H         1 RES1    0.0000
    111 H52        8.3642    1.2009   -0.8042 H         1 RES1    0.0000
    112 C46        8.2393    3.7314   -1.7556 C.3       1 RES1    0.0000
    113 H53        7.3957    3.2826   -1.8471 H         1 RES1    0.0000
    114 H54        8.7461    3.6306   -2.5649 H         1 RES1    0.0000
    115 H55        8.0887    4.6647   -1.5863 H         1 RES1    0.0000
@<TRIPOS>BOND
     1    1   15 1
     2    2   18 1
     3    3   27 1
     4    4   33 1
     5    5   39 1
     6    6   45 1
     7    7   61 1
     8    8   13 2
     9    9   13 2
    10   10   84 1
    11   11   14 2
    12   12   14 2
    13   13   65 1
    14   14   88 1
    15   15   16 1
    16   17   15 1
    17   18   15 1
    18   19   18 1
    19   20   18 1
    20   24    2 1
    21   25   24 1
    22   26   24 1
    23   27   24 1
    24   28   27 1
    25   29   27 1
    26   30    3 1
    27   31   30 1
    28   32   30 1
    29   33   30 1
    30   34   33 1
    31   35   33 1
    32   36    4 1
    33   37   36 1
    34   38   36 1
    35   39   36 1
    36   40   39 1
    37   41   39 1
    38   42    5 1
    39   43   42 1
    40   44   42 1
    41   45   42 1
    42   46   45 1
    43   47   45 1
    44   48   49 ar
    45   49    1 1
    46   50   49 ar
    47   51   50 ar
    48   52   51 1
    49   53   51 ar
    50   54   53 1
    51   55   48 ar
    52   56   55 1
    53   57   50 1
    54   58   57 1
    55   59   57 1
    56   60   57 1
    57   61   60 ar
    58   62   61 ar
    59   63   62 ar
    60   64   63 1
    61   65   63 ar
    62   66   60 ar
    63   67   66 1
    64   68   62 1
    65   69   68 1
    66   70   68 1
    67   71   68 1
    68   72    6 1
    69   73   72 ar
    70   74   73 ar
    71   75   74 1
    72   76   74 ar
    73   77   76 1
    74   78   71 ar
    75   79   78 1
    76   80   73 1
    77   81   80 1
    78   82   80 1
    79   83   80 1
    80   84   83 ar
    81   85   84 ar
    82   86   85 ar
    83   87   86 1
    84   88   86 ar
    85   89   83 ar
    86   90   89 1
    87   91   48 1
    88   92   91 1
    89   93   91 1
    90   94    7 1
    91   95   94 1
    92   98   94 1
    93   99   98 1
    94  100   98 1
    95  101   98 1
    96  102   94 1
    97  103  102 1
    98  104  102 1
    99  105  102 1
   100  106   10 1
   101  107  106 1
   102  108  106 1
   103  109  108 1
   104  110  108 1
   105  111  108 1
   106  112  106 1
   107  113  112 1
   108  114  112 1
   109  115  112 1
   110   53   55 ar
   111   65   66 ar
   112   71   72 ar
   113   76   78 ar
   114   85   91 1
   115   88   89 ar
@<TRIPOS>SUBSTRUCTURE
     1 RES1 1
     2 SUP2 21

@<TRIPOS>CRYSIN
   9.4077   12.6984   17.5132  75.3570  86.1670  83.8200   2 1

