# MOL2 file generated by ConQuest
# Please check atom types

@<TRIPOS>MOLECULE
WERPUE
    32    33     1
SMALL
NO_CHARGES
****
Generated from CSD

@<TRIPOS>ATOM
      1 N1         2.8446    1.3599    1.1178 N.pl3     1 RES1    0.0000
      2 C1         1.6107    0.7828    1.6791 C.3       1 RES1    0.0000
      3 C2         0.8028    1.8181    2.4268 C.3       1 RES1    0.0000
      4 O1         0.4888    2.9311    1.6294 O.3       1 RES1    0.0000
      5 C3         3.9114    1.7633    1.8580 C.ar      1 RES1    0.0000
      6 C4         3.9774    1.5961    3.2986 C.2       1 RES1    0.0000
      7 C5         4.7836    2.3027    4.0835 C.2       1 RES1    0.0000
      8 C6         4.9109    2.1412    5.5366 C.ar      1 RES1    0.0000
      9 C7         6.0305    2.6422    6.1849 C.ar      1 RES1    0.0000
     10 C8         6.2215    2.4557    7.5411 C.ar      1 RES1    0.0000
     11 C9         5.2832    1.7840    8.2813 C.ar      1 RES1    0.0000
     12 C10        4.1495    1.3093    7.6728 C.ar      1 RES1    0.0000
     13 C11        3.9567    1.4787    6.3116 C.ar      1 RES1    0.0000
     14 N2         4.8729    2.2956    1.0879 N.ar      1 RES1    0.0000
     15 C12        4.4146    2.2287   -0.1788 C.ar      1 RES1    0.0000
     16 C13        3.1713    1.6666   -0.1863 C.ar      1 RES1    0.0000
     17 N3         2.3551    1.4538   -1.3264 N.pl3     1 RES1    0.0000
     18 O2         1.2226    1.0219   -1.2072 O.2       1 RES1    0.0000
     19 O3         2.8542    1.7185   -2.4143 O.2       1 RES1    0.0000
     20 H1         1.1057    0.4483    0.9662 H         1 RES1    0.0000
     21 H2         1.8555    0.0783    2.2728 H         1 RES1    0.0000
     22 H3         1.3291    2.1063    3.1794 H         1 RES1    0.0000
     23 H4        -0.0467    1.3592    2.7050 H         1 RES1    0.0000
     24 H5        -0.3478    2.8820    1.4556 H         1 RES1    0.0000
     25 H6         3.4264    0.9180    3.6712 H         1 RES1    0.0000
     26 H7         5.3748    2.9603    3.6811 H         1 RES1    0.0000
     27 H8         6.6507    3.0883    5.6931 H         1 RES1    0.0000
     28 H9         7.0100    2.8037    7.9733 H         1 RES1    0.0000
     29 H10        5.4600    1.6438    9.2351 H         1 RES1    0.0000
     30 H11        3.4959    0.8255    8.1969 H         1 RES1    0.0000
     31 H12        3.1818    1.1884    5.8868 H         1 RES1    0.0000
     32 H13        4.8863    2.6045   -0.9166 H         1 RES1    0.0000
@<TRIPOS>BOND
     1    1    2 1
     2    2    3 1
     3    3    4 1
     4    4   24 1
     5    5    1 ar
     6    6    5 1
     7    7    6 2
     8    8    7 1
     9    9    8 ar
    10   10    9 ar
    11   11   10 ar
    12   12   11 ar
    13   13    8 ar
    14   14    5 ar
    15   15   14 ar
    16   16    1 ar
    17   17   16 1
    18   18   17 2
    19   19   17 2
    20   20    2 1
    21   21    2 1
    22   22    3 1
    23   23    3 1
    24   25    6 1
    25   26    7 1
    26   27    9 1
    27   28   10 1
    28   29   11 1
    29   30   12 1
    30   31   13 1
    31   32   15 1
    32   12   13 ar
    33   15   16 ar
@<TRIPOS>SUBSTRUCTURE
     1 RES1 1

@<TRIPOS>CRYSIN
   7.0880    7.1160   24.9350  90.0000  95.0300  90.0000  14 1

