# MOL2 file generated by ConQuest
# Please check atom types

@<TRIPOS>MOLECULE
WETGEJ
    15    15     1
SMALL
USER_CHARGES
****
Generated from CSD

@<TRIPOS>ATOM
      1 N1        -0.5622    3.3215    4.5210 N.am      1 RES1    0.0000
      2 N2         0.6704    3.8524    4.2863 N.2       1 RES1   -1.0000
      3 C1         1.5153    3.0174    4.8066 C.2       1 RES1    0.0000
      4 C2         0.8712    1.9129    5.3948 C.2       1 RES1    0.0000
      5 C3        -0.5472    2.1118    5.1966 C.2       1 RES1    0.0000
      6 C4        -1.7535    4.0027    4.0489 C.3       1 RES1    0.0000
      7 H1        -1.7210    4.9250    4.3124 H         1 RES1    0.0000
      8 H2        -2.5314    3.5887    4.4296 H         1 RES1    0.0000
      9 H3        -1.7972    3.9449    3.0914 H         1 RES1    0.0000
     10 N3         2.9237    3.2568    4.7605 N.pl3     1 RES1    0.0000
     11 O1         3.3404    4.2913    4.2661 O.2       1 RES1    0.0000
     12 O2         3.6331    2.3842    5.2439 O.2       1 RES1    0.0000
     13 N4         1.4059    0.8865    6.0365 N.1       1 RES1    1.0000
     14 N5         1.8162    0.0116    6.5950 N.1       1 RES1    0.0000
     15 O3        -1.5236    1.4584    5.5206 O.2       1 RES1    0.0000
@<TRIPOS>BOND
     1    1    2 1
     2    2    3 1
     3    3    4 2
     4    4    5 1
     5    5    1 1
     6    6    1 1
     7    7    6 1
     8    8    6 1
     9    9    6 1
    10   10    3 1
    11   11   10 2
    12   12   10 2
    13   13    4 1
    14   14   13 3
    15   15    5 2
@<TRIPOS>SUBSTRUCTURE
     1 RES1 1

@<TRIPOS>CRYSIN
   8.7709    5.7826   13.3180  90.0000  98.5040  90.0000 231 1

