# MOL2 file generated by ConQuest
# Please check atom types

@<TRIPOS>MOLECULE
WETGUA
    28    25     2
SMALL
NO_CHARGES
****
Generated from CSD

@<TRIPOS>ATOM
      1 C1         0.4850    0.7227    3.3860 C.ar      1 RES1    0.0000
      2 C2        -0.3754   -0.4057    3.3870 C.ar      1 RES1    0.0000
      3 C3        -0.8442   -0.9754    4.5607 C.ar      1 RES1    0.0000
      4 C4        -0.4638   -0.4295    5.7576 C.ar      1 RES1    0.0000
      5 C5         0.3595    0.6793    5.8123 C.ar      1 RES1    0.0000
      6 C6         0.8189    1.2463    4.6515 C.ar      1 RES1    0.0000
      7 N1        -0.8466   -1.0331    2.1681 N.pl3     1 RES1    0.0000
      8 O1        -0.3895   -0.6913    1.0851 O.2       1 RES1    0.0000
      9 O2        -1.7136   -1.8780    2.2400 O.2       1 RES1    0.0000
     10 N2        -0.9576   -1.0256    6.9937 N.pl3     1 RES1    0.0000
     11 O3        -1.7642   -1.9491    6.9100 O.2       1 RES1    0.0000
     12 O4        -0.5448   -0.5831    8.0508 O.2       1 RES1    0.0000
     13 N3         0.9653    1.2648    2.2169 N.am      1 RES1    0.0000
     14 C7         1.7579    2.4146    2.0711 C.2       1 RES1    0.0000
     15 O5         2.1582    3.0762    3.0022 O.2       1 RES1    0.0000
     16 N4         2.0417    2.6869    0.7945 N.am      1 RES1    0.0000
     17 C8         2.7552    3.8801    0.4096 C.3       1 RES1    0.0000
     18 H1         3.0214    3.8111   -0.5101 H         1 RES1    0.0000
     19 H2         3.5341    3.9794    0.9618 H         1 RES1    0.0000
     20 H3         2.1844    4.6440    0.5210 H         1 RES1    0.0000
     21 H4        -1.4110   -1.7330    4.5605 H         1 RES1    0.0000
     22 H5         0.5592    1.0196    6.6120 H         1 RES1    0.0000
     23 H6         1.4134    2.0348    4.7014 H         1 RES1    0.0000
     24 H7         0.6953    0.8323    1.4602 H         1 RES1    0.0000
     25 H8         1.7278    2.1876    0.1954 H         1 RES1    0.0000
     26 H9         2.8052    4.4786    1.1586 Du        2 SUP2    0.0000
     27 H10        2.2925    4.3103   -0.3133 Du        2 SUP2    0.0000
     28 H11        3.6422    3.6457    0.1274 Du        2 SUP2    0.0000
@<TRIPOS>BOND
     1    1    2 ar
     2    2    3 ar
     3    3    4 ar
     4    4    5 ar
     5    5    6 ar
     6    6    1 ar
     7    7    2 1
     8    8    7 2
     9    9    7 2
    10   10    4 1
    11   11   10 2
    12   12   10 2
    13   13    1 1
    14   14   13 1
    15   15   14 2
    16   16   14 1
    17   17   16 1
    18   18   17 1
    19   19   17 1
    20   20   17 1
    21   21    3 1
    22   22    5 1
    23   23    6 1
    24   24   13 1
    25   25   16 1
@<TRIPOS>SUBSTRUCTURE
     1 RES1 1
     2 SUP2 26

@<TRIPOS>CRYSIN
   4.1818   11.5284   11.7726  60.9830  88.6190  82.2240   2 1

