# MOL2 file generated by ConQuest
# Please check atom types

@<TRIPOS>MOLECULE
WETGIN
    17    17     1
SMALL
NO_CHARGES
****
Generated from CSD

@<TRIPOS>ATOM
      1 N1         0.5864    8.7650    5.4658 N.3       1 RES1    0.0000
      2 N2         0.6025    9.4037    6.6048 N.2       1 RES1    0.0000
      3 C1         0.9931    8.4777    7.5112 C.2       1 RES1    0.0000
      4 C2         1.2553    7.2144    6.9492 C.2       1 RES1    0.0000
      5 C3         0.9617    7.4480    5.5976 C.2       1 RES1    0.0000
      6 N3         0.0033    9.3476    4.3450 N.3       1 RES1    0.0000
      7 H1         0.5277    9.2247    3.6803 H         1 RES1    0.0000
      8 H2        -0.0772   10.1824    4.5344 H         1 RES1    0.0000
      9 N4         1.0370    8.8149    8.8747 N.pl3     1 RES1    0.0000
     10 O1         0.7719    9.9705    9.2288 O.2       1 RES1    0.0000
     11 O2         1.3389    7.9070    9.6660 O.2       1 RES1    0.0000
     12 N5         1.6656    6.0850    7.5341 N.3       1 RES1    0.0000
     13 H3         1.8600    6.0934    8.3624 H         1 RES1    0.0000
     14 H4         1.8857    5.4219    7.0620 H         1 RES1    0.0000
     15 N6         1.0240    6.5409    4.5357 N.pl3     1 RES1    0.0000
     16 O3         1.3123    5.3720    4.8342 O.2       1 RES1    0.0000
     17 O4         0.7964    6.9283    3.3865 O.2       1 RES1    0.0000
@<TRIPOS>BOND
     1    1    2 1
     2    2    3 2
     3    3    4 1
     4    4    5 2
     5    5    1 1
     6    6    1 1
     7    7    6 1
     8    8    6 1
     9    9    3 1
    10   10    9 2
    11   11    9 2
    12   12    4 1
    13   13   12 1
    14   14   12 1
    15   15    5 1
    16   16   15 2
    17   17   15 2
@<TRIPOS>SUBSTRUCTURE
     1 RES1 1

@<TRIPOS>CRYSIN
   6.4359   12.7184   15.8769  90.0000  90.0000  90.0000  61 1

