# MOL2 file generated by ConQuest
# Please check atom types

@<TRIPOS>MOLECULE
WETZEB
    43    45     1
SMALL
NO_CHARGES
****
Generated from CSD

@<TRIPOS>ATOM
      1 N1         7.2051   -1.9496   -1.5684 N.pl3     1 RES1    0.0000
      2 N2         6.8815    1.5677    7.6986 N.am      1 RES1    0.0000
      3 H1         7.2231    2.2896    8.0690 H         1 RES1    0.0000
      4 O1         4.3329   -0.7029    3.9288 O.3       1 RES1    0.0000
      5 O2         2.4722   -1.0895    2.7166 O.2       1 RES1    0.0000
      6 O3         8.4128   -2.0352   -1.3426 O.2       1 RES1    0.0000
      7 O4         6.7151   -2.0199   -2.6859 O.2       1 RES1    0.0000
      8 O5         3.9299   -0.5437    7.4877 O.3       1 RES1    0.0000
      9 H2         4.2201   -1.1348    8.0092 H         1 RES1    0.0000
     10 O6         6.8134   -0.5235    7.0312 O.3       1 RES1    0.0000
     11 O7         8.3096    0.0250    8.6102 O.2       1 RES1    0.0000
     12 C1         3.5748   -0.3794    5.1319 C.3       1 RES1    0.0000
     13 H3         2.8321   -1.0445    5.2104 H         1 RES1    0.0000
     14 C2         4.5664   -0.6730    6.2224 C.3       1 RES1    0.0000
     15 H4         4.8451   -1.6289    6.1251 H         1 RES1    0.0000
     16 C3         5.8335    0.1752    6.2156 C.3       1 RES1    0.0000
     17 H5         6.1759    0.2390    5.2786 H         1 RES1    0.0000
     18 C4         5.7311    1.5894    6.8078 C.3       1 RES1    0.0000
     19 H6         4.8947    1.6593    7.3505 H         1 RES1    0.0000
     20 C5         5.7938    2.7533    5.8384 C.3       1 RES1    0.0000
     21 H7         6.4142    2.5190    5.1028 H         1 RES1    0.0000
     22 H8         6.1723    3.5367    6.3111 H         1 RES1    0.0000
     23 C6         4.4603    3.1462    5.2394 C.3       1 RES1    0.0000
     24 H9         4.6010    3.9668    4.7035 H         1 RES1    0.0000
     25 H10        3.8544    3.3859    5.9852 H         1 RES1    0.0000
     26 C7         3.7373    2.1381    4.3622 C.3       1 RES1    0.0000
     27 H11        4.4084    1.7235    3.7631 H         1 RES1    0.0000
     28 H12        3.1045    2.6388    3.7870 H         1 RES1    0.0000
     29 C8         2.9503    0.9994    5.0465 C.3       1 RES1    0.0000
     30 H13        2.7456    1.2917    5.9698 H         1 RES1    0.0000
     31 H14        2.0852    0.9072    4.5738 H         1 RES1    0.0000
     32 C9         3.6831   -1.0336    2.8177 C.2       1 RES1    0.0000
     33 C10        4.6308   -1.3053    1.6896 C.ar      1 RES1    0.0000
     34 C11        5.9964   -1.3685    1.8978 C.ar      1 RES1    0.0000
     35 H15        6.3474   -1.2608    2.7733 H         1 RES1    0.0000
     36 C12        6.8556   -1.5881    0.8328 C.ar      1 RES1    0.0000
     37 H16        7.7939   -1.6522    0.9660 H         1 RES1    0.0000
     38 C13        6.3100   -1.7105   -0.4198 C.ar      1 RES1    0.0000
     39 C14        4.9507   -1.6561   -0.6673 C.ar      1 RES1    0.0000
     40 H17        4.6032   -1.7535   -1.5462 H         1 RES1    0.0000
     41 C15        4.1214   -1.4560    0.4096 C.ar      1 RES1    0.0000
     42 H18        3.1815   -1.4201    0.2748 H         1 RES1    0.0000
     43 C16        7.4026    0.3674    7.8522 C.2       1 RES1    0.0000
@<TRIPOS>BOND
     1    1    6 2
     2    2    3 1
     3    4   12 1
     4    5   32 2
     5    7    1 2
     6    8    9 1
     7   10   16 1
     8   11   43 2
     9   12   13 1
    10   14    8 1
    11   15   14 1
    12   16   14 1
    13   17   16 1
    14   18    2 1
    15   19   18 1
    16   20   18 1
    17   21   20 1
    18   22   20 1
    19   23   20 1
    20   24   23 1
    21   25   23 1
    22   26   23 1
    23   27   26 1
    24   28   26 1
    25   29   12 1
    26   30   29 1
    27   31   29 1
    28   32    4 1
    29   33   32 1
    30   34   33 ar
    31   35   34 1
    32   36   34 ar
    33   37   36 1
    34   38    1 1
    35   39   38 ar
    36   40   39 1
    37   41   33 ar
    38   42   41 1
    39   43    2 1
    40   10   43 1
    41   12   14 1
    42   16   18 1
    43   26   29 1
    44   36   38 ar
    45   39   41 ar
@<TRIPOS>SUBSTRUCTURE
     1 RES1 1

@<TRIPOS>CRYSIN
   7.0820    7.1290   17.3470  97.1820  93.6530 114.9100   2 1

