# MOL2 file generated by ConQuest
# Please check atom types

@<TRIPOS>MOLECULE
WEVVEZ
    32    33     1
SMALL
NO_CHARGES
****
Generated from CSD

@<TRIPOS>ATOM
      1 C1         0.8179    2.5809    5.6570 C.ar      1 RES1    0.0000
      2 C2         0.3381    1.8951    6.8720 C.2       1 RES1    0.0000
      3 O1         0.9447    1.8469    7.9262 O.2       1 RES1    0.0000
      4 O2        -0.8494    1.3070    6.6956 O.3       1 RES1    0.0000
      5 C3        -1.4155    0.6313    7.8427 C.3       1 RES1    0.0000
      6 C4         0.0945    2.5439    4.4841 C.ar      1 RES1    0.0000
      7 C5         0.5554    3.1864    3.3394 C.ar      1 RES1    0.0000
      8 N1        -0.2727    3.0230    2.1591 N.pl3     1 RES1    0.0000
      9 O3        -1.2641    2.2913    2.2216 O.2       1 RES1    0.0000
     10 O4         0.0462    3.6054    1.1092 O.2       1 RES1    0.0000
     11 C6         1.7624    3.9353    3.3290 C.ar      1 RES1    0.0000
     12 C7         2.4933    3.9347    4.5530 C.ar      1 RES1    0.0000
     13 C8         2.0374    3.2832    5.6651 C.ar      1 RES1    0.0000
     14 N2         4.2756    5.5900    2.9705 N.2       1 RES1    0.0000
     15 N3         5.1456    6.4370    2.3475 N.3       1 RES1    0.0000
     16 C9         4.7518    6.7992    1.1126 C.2       1 RES1    0.0000
     17 C10        5.5187    7.7852    0.3088 C.3       1 RES1    0.0000
     18 C11        3.5703    6.1416    0.8793 C.2       1 RES1    0.0000
     19 C12        3.3210    5.4164    2.0563 C.2       1 RES1    0.0000
     20 N4         2.1965    4.6016    2.2314 N.pl3     1 RES1    0.0000
     21 H1        -1.2110    1.1393    8.6553 H         1 RES1    0.0000
     22 H2        -1.0317   -0.2675    7.9146 H         1 RES1    0.0000
     23 H3        -2.3871    0.5641    7.7359 H         1 RES1    0.0000
     24 H4        -0.7296    2.0732    4.4567 H         1 RES1    0.0000
     25 H5         3.3204    4.4003    4.5969 H         1 RES1    0.0000
     26 H6         2.5558    3.3049    6.4614 H         1 RES1    0.0000
     27 H7         5.8926    6.7195    2.7173 H         1 RES1    0.0000
     28 H8         6.4687    7.5445    0.3166 H         1 RES1    0.0000
     29 H9         5.4051    8.6796    0.6939 H         1 RES1    0.0000
     30 H10        5.1884    7.7826   -0.6133 H         1 RES1    0.0000
     31 H11        3.0375    6.1701    0.0935 H         1 RES1    0.0000
     32 H12        1.6922    4.5073    1.5163 H         1 RES1    0.0000
@<TRIPOS>BOND
     1    1    2 1
     2    2    3 2
     3    4    2 1
     4    5    4 1
     5    6    1 ar
     6    7    6 ar
     7    8    7 1
     8    9    8 2
     9   10    8 2
    10   11    7 ar
    11   12   11 ar
    12   13    1 ar
    13   14   15 1
    14   15   16 1
    15   16   17 1
    16   17   28 1
    17   18   16 2
    18   19   14 2
    19   20   11 1
    20   21    5 1
    21   22    5 1
    22   23    5 1
    23   24    6 1
    24   25   12 1
    25   26   13 1
    26   27   15 1
    27   29   17 1
    28   30   17 1
    29   31   18 1
    30   32   20 1
    31   12   13 ar
    32   18   19 1
    33   19   20 1
@<TRIPOS>SUBSTRUCTURE
     1 RES1 1

@<TRIPOS>CRYSIN
   5.9233    8.8858   11.7819  85.6900  83.5000  84.0150   2 1

