# MOL2 file generated by ConQuest
# Please check atom types

@<TRIPOS>MOLECULE
WEVVUP
    54    57     1
SMALL
NO_CHARGES
****
Generated from CSD

@<TRIPOS>ATOM
      1 C1         8.1073   10.1985    0.7360 C.2       1 RES1    0.0000
      2 C2         7.3823   12.2384   -0.4917 C.2       1 RES1    0.0000
      3 C3         6.6743   11.8871    1.8734 C.2       1 RES1    0.0000
      4 C4         8.0251    9.7809   -2.3039 C.3       1 RES1    0.0000
      5 H1         7.9296    8.8920   -1.8349 H         1 RES1    0.0000
      6 H2         7.1466   10.2026   -2.4194 H         1 RES1    0.0000
      7 C5         8.7744    9.6421   -3.5869 C.ar      1 RES1    0.0000
      8 C6         9.4383    8.4792   -3.9277 C.ar      1 RES1    0.0000
      9 H3         9.3978    7.7596   -3.2771 H         1 RES1    0.0000
     10 C7        10.0901    8.3752   -5.1620 C.ar      1 RES1    0.0000
     11 H4        10.5296    7.5420   -5.4209 H         1 RES1    0.0000
     12 C8        10.0801    9.4339   -6.0410 C.ar      1 RES1    0.0000
     13 H5        10.5353    9.3456   -6.9469 H         1 RES1    0.0000
     14 C9         9.4314   10.6012   -5.7009 C.ar      1 RES1    0.0000
     15 H6         9.4413   11.3977   -6.3820 H         1 RES1    0.0000
     16 C10        8.7806   10.7065   -4.4934 C.ar      1 RES1    0.0000
     17 H7         8.3083   11.5003   -4.2107 H         1 RES1    0.0000
     18 C11        6.7417   14.9049    0.9309 C.3       1 RES1    0.0000
     19 H8         7.3499   15.0480    0.2457 H         1 RES1    0.0000
     20 H9         7.1889   14.6986    1.8223 H         1 RES1    0.0000
     21 C12        5.7913   16.0459    1.0010 C.ar      1 RES1    0.0000
     22 C13        5.1029   16.4797   -0.1277 C.ar      1 RES1    0.0000
     23 H10        5.2925   15.9960   -0.9243 H         1 RES1    0.0000
     24 C14        4.2144   17.5364   -0.0367 C.ar      1 RES1    0.0000
     25 H11        3.7710   17.8011   -0.8612 H         1 RES1    0.0000
     26 C15        4.0065   18.1736    1.1735 C.ar      1 RES1    0.0000
     27 H12        3.4030   18.9743    1.1976 H         1 RES1    0.0000
     28 C16        4.6904   17.7529    2.2908 C.ar      1 RES1    0.0000
     29 H13        4.5222   18.2323    3.1692 H         1 RES1    0.0000
     30 C17        5.5689   16.6899    2.2159 C.ar      1 RES1    0.0000
     31 H14        6.0017   16.3668    3.0509 H         1 RES1    0.0000
     32 C18        8.3126   10.1415    3.8602 C.3       1 RES1    0.0000
     33 H15        8.1022   11.0604    4.1659 H         1 RES1    0.0000
     34 H16        9.1867   10.0818    3.3426 H         1 RES1    0.0000
     35 C19        8.1954    9.0967    4.9161 C.ar      1 RES1    0.0000
     36 C20        7.6436    9.3884    6.1513 C.ar      1 RES1    0.0000
     37 H17        7.2852   10.2514    6.3200 H         1 RES1    0.0000
     38 C21        7.5392    8.3941    7.1152 C.ar      1 RES1    0.0000
     39 H18        7.1894    8.6376    7.9344 H         1 RES1    0.0000
     40 C22        7.9786    7.1122    6.8526 C.ar      1 RES1    0.0000
     41 H19        7.9423    6.4033    7.4866 H         1 RES1    0.0000
     42 C23        8.5220    6.8281    5.6173 C.ar      1 RES1    0.0000
     43 H20        8.8572    5.9069    5.4048 H         1 RES1    0.0000
     44 C24        8.6366    7.8042    4.6534 C.ar      1 RES1    0.0000
     45 H21        9.0654    7.5954    3.7617 H         1 RES1    0.0000
     46 N1         8.0885   11.0572   -0.3502 N.am      1 RES1    0.0000
     47 N2         6.7116   12.5816    0.6675 N.am      1 RES1    0.0000
     48 N3         7.3725   10.6887    1.8039 N.am      1 RES1    0.0000
     49 O1         8.7034    9.1558    0.7518 O.2       1 RES1    0.0000
     50 O2         7.3685   12.9026   -1.4986 O.2       1 RES1    0.0000
     51 O3         6.1111   12.2799    2.8612 O.2       1 RES1    0.0000
     52 O4         8.8322   10.6778   -1.4579 O.3       1 RES1    0.0000
     53 O5         5.9264   13.7233    0.6179 O.3       1 RES1    0.0000
     54 O6         7.2533    9.8470    2.8897 O.3       1 RES1    0.0000
@<TRIPOS>BOND
     1    1   46 1
     2    2   46 1
     3    3   47 1
     4    4    5 1
     5    6    4 1
     6    7    4 1
     7    8    7 ar
     8    9    8 1
     9   10    8 ar
    10   11   10 1
    11   12   10 ar
    12   13   12 1
    13   14   12 ar
    14   15   14 1
    15   16    7 ar
    16   17   16 1
    17   18   19 1
    18   20   18 1
    19   21   18 1
    20   22   21 ar
    21   23   22 1
    22   24   22 ar
    23   25   24 1
    24   26   24 ar
    25   27   26 1
    26   28   26 ar
    27   29   28 1
    28   30   21 ar
    29   31   30 1
    30   32   33 1
    31   34   32 1
    32   35   32 1
    33   36   35 ar
    34   37   36 1
    35   38   36 ar
    36   39   38 1
    37   40   38 ar
    38   41   40 1
    39   42   40 ar
    40   43   42 1
    41   44   35 ar
    42   45   44 1
    43   46   52 1
    44   47    2 1
    45   48    1 1
    46   49    1 2
    47   50    2 2
    48   51    3 2
    49   52    4 1
    50   53   18 1
    51   54   32 1
    52    3   48 1
    53   14   16 ar
    54   28   30 ar
    55   42   44 ar
    56   47   53 1
    57   48   54 1
@<TRIPOS>SUBSTRUCTURE
     1 RES1 1

@<TRIPOS>CRYSIN
   7.7650   12.1390   12.7830  66.3600  76.7800  82.7900   2 1

