# MOL2 file generated by ConQuest
# Please check atom types

@<TRIPOS>MOLECULE
WEWBIJ
    17    18     1
SMALL
NO_CHARGES
****
Generated from CSD

@<TRIPOS>ATOM
      1 O1         6.0441    0.0979    8.8378 O.2       1 RES1    0.0000
      2 O2         5.0946   -1.8188    7.1653 O.3       1 RES1    0.0000
      3 O3         4.6140    2.4698    2.6532 O.2       1 RES1    0.0000
      4 O4         5.9335    1.0341    1.7121 O.2       1 RES1    0.0000
      5 N1         5.2714    1.4240    2.6625 N.pl3     1 RES1    0.0000
      6 C1         5.0508   -0.4558    9.1918 C.2       1 RES1    0.0000
      7 C2         4.3536   -1.4892    8.3439 C.3       1 RES1    0.0000
      8 C3         4.1771   -2.7968    9.1126 C.3       1 RES1    0.0000
      9 C4         3.4378   -2.5295   10.4078 C.3       1 RES1    0.0000
     10 C5         4.1846   -1.5200   11.2697 C.3       1 RES1    0.0000
     11 C6         4.3687   -0.2076   10.5219 C.3       1 RES1    0.0000
     12 C7         5.1256   -0.9516    6.1194 C.ar      1 RES1    0.0000
     13 C8         4.5535    0.3203    6.1357 C.ar      1 RES1    0.0000
     14 C9         4.6282    1.0975    5.0036 C.ar      1 RES1    0.0000
     15 C10        5.2554    0.6097    3.8691 C.ar      1 RES1    0.0000
     16 C11        5.8491   -0.6375    3.8552 C.ar      1 RES1    0.0000
     17 C12        5.7776   -1.4055    4.9873 C.ar      1 RES1    0.0000
@<TRIPOS>BOND
     1    1    6 2
     2    2    7 1
     3    3    5 2
     4    4    5 2
     5    5   15 1
     6    6    7 1
     7    7    8 1
     8    8    9 1
     9    9   10 1
    10   10   11 1
    11   11    6 1
    12   12    2 1
    13   13   12 ar
    14   14   13 ar
    15   15   14 ar
    16   16   15 ar
    17   17   12 ar
    18   16   17 ar
@<TRIPOS>SUBSTRUCTURE
     1 RES1 1

