# MOL2 file generated by ConQuest
# Please check atom types

@<TRIPOS>MOLECULE
WEWPUK
    68    68     1
SMALL
NO_CHARGES
****
Generated from CSD

@<TRIPOS>ATOM
      1 O1         9.3223    5.2318   12.1233 O.2       1 RES1    0.0000
      2 O2         5.5504    3.4333   14.5996 O.2       1 RES1    0.0000
      3 O3         6.6962    4.9182   15.8795 O.3       1 RES1    0.0000
      4 O4         5.7964    4.3536   10.2079 O.3       1 RES1    0.0000
      5 O5         6.2317    6.2141    8.9983 O.2       1 RES1    0.0000
      6 O6         3.8984    6.6824    4.6878 O.2       1 RES1    0.0000
      7 O7         3.3668    4.8351    3.6770 O.2       1 RES1    0.0000
      8 O8         1.6081    1.3862    6.7225 O.2       1 RES1    0.0000
      9 O9         2.6064    1.1099    8.6202 O.2       1 RES1    0.0000
     10 N1         6.4515    5.3287   13.7029 N.am      1 RES1    0.0000
     11 N2         3.6792    5.4798    4.6756 N.pl3     1 RES1    0.0000
     12 N3         2.4193    1.7245    7.5776 N.pl3     1 RES1    0.0000
     13 C1         9.3801    3.3003   13.4984 C.3       1 RES1    0.0000
     14 H1        10.1693    3.7342   13.8853 H         1 RES1    0.0000
     15 H2         9.6359    2.4359   13.1153 H         1 RES1    0.0000
     16 H3         8.7100    3.1600   14.1984 H         1 RES1    0.0000
     17 C2         8.8048    4.1742   12.4220 C.2       1 RES1    0.0000
     18 C3         7.5982    3.6446   11.6510 C.3       1 RES1    0.0000
     19 H4         7.1068    2.9897   12.2268 H         1 RES1    0.0000
     20 C4         8.1499    2.9078   10.4152 C.3       1 RES1    0.0000
     21 H5         7.4031    2.5545    9.8864 H         1 RES1    0.0000
     22 H6         8.7235    2.1687   10.7055 H         1 RES1    0.0000
     23 H7         8.6697    3.5326    9.8695 H         1 RES1    0.0000
     24 C5         6.6608    4.7948   11.3006 C.3       1 RES1    0.0000
     25 H8         7.1893    5.5954   11.0185 H         1 RES1    0.0000
     26 C6         5.7042    5.1692   12.4463 C.3       1 RES1    0.0000
     27 H9         5.0749    4.4024   12.5704 H         1 RES1    0.0000
     28 C7         4.8620    6.3965   12.0928 C.3       1 RES1    0.0000
     29 H10        4.3992    6.2159   11.2368 H         1 RES1    0.0000
     30 H11        5.4768    7.1585   11.9408 H         1 RES1    0.0000
     31 C8         3.8135    6.8275   13.1222 C.3       1 RES1    0.0000
     32 H12        4.2893    7.1248   13.9496 H         1 RES1    0.0000
     33 C9         3.0454    8.0211   12.5599 C.3       1 RES1    0.0000
     34 H13        2.3714    8.3100   13.2084 H         1 RES1    0.0000
     35 H14        2.6038    7.7616   11.7242 H         1 RES1    0.0000
     36 H15        3.6672    8.7578   12.3859 H         1 RES1    0.0000
     37 C10        2.8707    5.7025   13.4986 C.3       1 RES1    0.0000
     38 H16        2.2225    6.0263   14.1578 H         1 RES1    0.0000
     39 H17        3.3840    4.9609   13.8819 H         1 RES1    0.0000
     40 H18        2.3963    5.3919   12.6990 H         1 RES1    0.0000
     41 C11        7.2008    6.5656   13.9180 C.3       1 RES1    0.0000
     42 H19        6.6012    7.2536   14.2745 H         1 RES1    0.0000
     43 H20        7.5792    6.8714   13.0662 H         1 RES1    0.0000
     44 H21        7.9261    6.4019   14.5571 H         1 RES1    0.0000
     45 C12        6.1706    4.4710   14.7292 C.2       1 RES1    0.0000
     46 C13        6.5174    4.1670   17.1359 C.3       1 RES1    0.0000
     47 C14        5.0492    3.9925   17.4384 C.3       1 RES1    0.0000
     48 H22        4.6492    3.3906   16.7774 H         1 RES1    0.0000
     49 H23        4.6023    4.8634   17.4002 H         1 RES1    0.0000
     50 H24        4.9448    3.6091   18.3343 H         1 RES1    0.0000
     51 C15        7.2283    2.8506   17.0737 C.3       1 RES1    0.0000
     52 H25        8.1768    3.0005   16.8756 H         1 RES1    0.0000
     53 H26        6.8320    2.2975   16.3696 H         1 RES1    0.0000
     54 H27        7.1423    2.3926   17.9366 H         1 RES1    0.0000
     55 C16        7.1414    5.0940   18.1528 C.3       1 RES1    0.0000
     56 H28        8.0951    5.2041   17.9536 H         1 RES1    0.0000
     57 H29        7.0374    4.7130   19.0502 H         1 RES1    0.0000
     58 H30        6.6985    5.9667   18.1143 H         1 RES1    0.0000
     59 C17        5.6715    5.1638    9.1382 C.2       1 RES1    0.0000
     60 C18        4.7451    4.5829    8.1288 C.ar      1 RES1    0.0000
     61 C19        4.6055    5.2788    6.9313 C.ar      1 RES1    0.0000
     62 H31        5.0597    6.1016    6.7946 H         1 RES1    0.0000
     63 C20        3.7957    4.7503    5.9486 C.ar      1 RES1    0.0000
     64 C21        3.0955    3.5741    6.1029 C.ar      1 RES1    0.0000
     65 H32        2.5583    3.2166    5.4052 H         1 RES1    0.0000
     66 C22        3.2136    2.9403    7.3288 C.ar      1 RES1    0.0000
     67 C23        4.0356    3.4062    8.3390 C.ar      1 RES1    0.0000
     68 H33        4.1148    2.9325    9.1587 H         1 RES1    0.0000
@<TRIPOS>BOND
     1    1   17 2
     2    2   45 2
     3    3   45 1
     4    4   24 1
     5    5   59 2
     6    6   11 2
     7    7   11 2
     8    8   12 2
     9    9   12 2
    10   10   26 1
    11   11   63 1
    12   12   66 1
    13   13   14 1
    14   15   13 1
    15   16   13 1
    16   17   13 1
    17   18   17 1
    18   19   18 1
    19   20   18 1
    20   21   20 1
    21   22   20 1
    22   23   20 1
    23   24   18 1
    24   25   24 1
    25   26   24 1
    26   27   26 1
    27   28   26 1
    28   29   28 1
    29   30   28 1
    30   31   28 1
    31   32   31 1
    32   33   31 1
    33   34   33 1
    34   35   33 1
    35   36   33 1
    36   37   31 1
    37   38   37 1
    38   39   37 1
    39   40   37 1
    40   41   10 1
    41   42   41 1
    42   43   41 1
    43   44   41 1
    44   45   10 1
    45   46    3 1
    46   47   46 1
    47   48   47 1
    48   49   47 1
    49   50   47 1
    50   51   46 1
    51   52   51 1
    52   53   51 1
    53   54   51 1
    54   55   46 1
    55   56   55 1
    56   57   55 1
    57   58   55 1
    58   59    4 1
    59   60   59 1
    60   61   60 ar
    61   62   61 1
    62   63   61 ar
    63   64   63 ar
    64   65   64 1
    65   66   64 ar
    66   67   60 ar
    67   68   67 1
    68   66   67 ar
@<TRIPOS>SUBSTRUCTURE
     1 RES1 1

@<TRIPOS>CRYSIN
  25.8069    6.0191   19.5710  90.0000 120.1520  90.0000   5 1

