# MOL2 file generated by ConQuest
# Please check atom types

@<TRIPOS>MOLECULE
WEYLAN
    16    16     1
SMALL
NO_CHARGES
****
Generated from CSD

@<TRIPOS>ATOM
      1 O1         6.5044    6.5626    7.3530 O.3       1 RES1    0.0000
      2 N1         6.9882    5.3944    6.7147 N.3       1 RES1    0.0000
      3 N2         9.0218    5.6609    7.8690 N.pl3     1 RES1    0.0000
      4 N3         9.8842    1.8210    7.9415 N.1       1 RES1    0.0000
      5 N4         5.9066    0.8074    7.1371 N.1       1 RES1    0.0000
      6 N5         7.4748    3.0613    3.8483 N.1       1 RES1    0.0000
      7 C1         8.1136    4.8602    7.3434 C.2       1 RES1    0.0000
      8 C2         8.1080    3.4865    7.2193 C.2       1 RES1    0.0000
      9 C3         6.9114    3.1062    6.3973 C.3       1 RES1    0.0000
     10 C4         5.9555    4.3294    6.6745 C.3       1 RES1    0.0000
     11 C5         4.8647    4.6096    5.6593 C.3       1 RES1    0.0000
     12 C6         3.8929    3.4279    5.5482 C.3       1 RES1    0.0000
     13 C7         2.7006    3.7324    4.6624 C.3       1 RES1    0.0000
     14 C8         7.2173    3.0469    4.9475 C.1       1 RES1    0.0000
     15 C9         6.3020    1.8133    6.8161 C.1       1 RES1    0.0000
     16 C10        9.1088    2.5804    7.5970 C.1       1 RES1    0.0000
@<TRIPOS>BOND
     1    1    2 1
     2    2    7 1
     3    3    7 1
     4    4   16 3
     5    5   15 3
     6    6   14 3
     7    7    8 2
     8    8    9 1
     9    9   10 1
    10   10    2 1
    11   11   10 1
    12   12   11 1
    13   13   12 1
    14   14    9 1
    15   15    9 1
    16   16    8 1
@<TRIPOS>SUBSTRUCTURE
     1 RES1 1

@<TRIPOS>CRYSIN
   8.3690    8.5600    9.5440  66.9900  76.8000  67.9700   2 1

