# MOL2 file generated by ConQuest
# Please check atom types

@<TRIPOS>MOLECULE
WEYZUX
    23    24     1
SMALL
NO_CHARGES
****
Generated from CSD

@<TRIPOS>ATOM
      1 O1        11.9583    5.2916    4.9688 O.2       1 RES1    0.0000
      2 O2         9.6889    6.1719    6.9017 O.2       1 RES1    0.0000
      3 O3         7.9125    5.1246    2.8834 O.3       1 RES1    0.0000
      4 O4         7.7720    5.0066    6.9847 O.3       1 RES1    0.0000
      5 O5        10.0111    3.8328    1.1464 O.2       1 RES1    0.0000
      6 N1         7.6970    5.0326    4.2672 N.2       1 RES1    0.0000
      7 N2        11.1277    4.2638    3.1034 N.am      1 RES1    0.0000
      8 C1         8.7780    5.5950    6.3603 C.2       1 RES1    0.0000
      9 C2         9.8207    5.9941    4.0009 C.3       1 RES1    0.0000
     10 C3        11.1034    5.1828    4.1350 C.2       1 RES1    0.0000
     11 C4         8.7125    5.5002    4.8858 C.2       1 RES1    0.0000
     12 C5        10.1419    4.4623    2.1626 C.2       1 RES1    0.0000
     13 C6        12.2244    3.3112    2.9346 C.3       1 RES1    0.0000
     14 C7         7.8433    5.0445    8.4312 C.3       1 RES1    0.0000
     15 C8         9.2691    5.6148    2.6441 C.3       1 RES1    0.0000
     16 H1        10.0382    6.9543    4.1302 H         1 RES1    0.0000
     17 H2        12.4577    2.9240    3.8021 H         1 RES1    0.0000
     18 H3        12.9906    3.7669    2.6827 H         1 RES1    0.0000
     19 H4         7.8779    5.9401    8.7140 H         1 RES1    0.0000
     20 H5         8.6556    4.6230    8.6850 H         1 RES1    0.0000
     21 H6         9.2461    6.2957    1.9976 H         1 RES1    0.0000
     22 H7        11.9969    2.6342    2.3256 H         1 RES1    0.0000
     23 H8         7.0138    4.5703    8.7622 H         1 RES1    0.0000
@<TRIPOS>BOND
     1    1   10 2
     2    2    8 2
     3    3    6 1
     4    4    8 1
     5    5   12 2
     6    6   11 2
     7    7   10 1
     8    8   11 1
     9    9   10 1
    10   11    9 1
    11   12    7 1
    12   13    7 1
    13   14    4 1
    14   15    3 1
    15   16    9 1
    16   17   13 1
    17   18   13 1
    18   19   14 1
    19   20   14 1
    20   21   15 1
    21   22   13 1
    22   23   14 1
    23    9   15 1
    24   12   15 1
@<TRIPOS>SUBSTRUCTURE
     1 RES1 1

@<TRIPOS>CRYSIN
  14.4020   13.1710    9.6500  90.0000  90.0000  90.0000  61 1

