# MOL2 file generated by ConQuest
# Please check atom types

@<TRIPOS>MOLECULE
WEZKUK
    42    43     1
SMALL
NO_CHARGES
****
Generated from CSD

@<TRIPOS>ATOM
      1 O1         8.2184    2.1136    6.1839 O.3       1 RES1    0.0000
      2 H1         8.8279    2.4471    5.7483 H         1 RES1    0.0000
      3 O2         5.7277    2.2710    8.1711 O.2       1 RES1    0.0000
      4 O3        11.6452    0.9708    8.8085 O.2       1 RES1    0.0000
      5 O4         9.8833    0.6571    9.9435 O.2       1 RES1    0.0000
      6 N1        10.4715    1.1401    8.9916 N.pl3     1 RES1    0.0000
      7 C1        10.6419    0.4179    5.5465 C.3       1 RES1    0.0000
      8 H2        10.3319    0.9755    4.8283 H         1 RES1    0.0000
      9 H3        11.0625   -0.3646    5.1834 H         1 RES1    0.0000
     10 H4        11.2747    0.9045    6.0786 H         1 RES1    0.0000
     11 C2         9.4570    0.0026    6.4164 C.3       1 RES1    0.0000
     12 H5         9.7977   -0.6002    7.1100 H         1 RES1    0.0000
     13 C3         8.4491   -0.7743    5.5910 C.3       1 RES1    0.0000
     14 H6         8.8986   -1.5059    5.1402 H         1 RES1    0.0000
     15 H7         8.0712   -0.1918    4.9134 H         1 RES1    0.0000
     16 C4         7.3331   -1.3272    6.4573 C.3       1 RES1    0.0000
     17 H8         7.7092   -1.9274    7.1205 H         1 RES1    0.0000
     18 H9         6.7207   -1.8374    5.9043 H         1 RES1    0.0000
     19 C5         6.5672   -0.2183    7.1618 C.3       1 RES1    0.0000
     20 H10        6.1428    0.3291    6.4678 H         1 RES1    0.0000
     21 C6         7.5258    0.6935    7.9407 C.3       1 RES1    0.0000
     22 H11        7.8609    0.1847    8.7076 H         1 RES1    0.0000
     23 C7         6.8510    1.9538    8.4814 C.2       1 RES1    0.0000
     24 C8         7.7017    2.7680    9.4105 C.3       1 RES1    0.0000
     25 H12        7.8767    2.2577   10.2174 H         1 RES1    0.0000
     26 H13        7.2242    3.5730    9.6631 H         1 RES1    0.0000
     27 C9         9.0317    3.1492    8.7509 C.3       1 RES1    0.0000
     28 H14        8.8688    3.8702    8.1218 H         1 RES1    0.0000
     29 H15        9.6302    3.4878    9.4350 H         1 RES1    0.0000
     30 C10        9.7279    2.0126    8.0151 C.3       1 RES1    0.0000
     31 H16       10.3943    2.4175    7.4206 H         1 RES1    0.0000
     32 C11        8.7599    1.1818    7.1253 C.3       1 RES1    0.0000
     33 C12        5.4363   -0.7815    8.0602 C.3       1 RES1    0.0000
     34 H17        5.0696   -0.0355    8.5779 H         1 RES1    0.0000
     35 C13        5.8952   -1.8433    9.0445 C.3       1 RES1    0.0000
     36 H18        6.2665   -2.5868    8.5648 H         1 RES1    0.0000
     37 H19        5.1460   -2.1417    9.5661 H         1 RES1    0.0000
     38 H20        6.5625   -1.4728    9.6277 H         1 RES1    0.0000
     39 C14        4.3064   -1.3378    7.1873 C.3       1 RES1    0.0000
     40 H21        3.5637   -1.5817    7.7443 H         1 RES1    0.0000
     41 H22        4.6201   -2.1121    6.7142 H         1 RES1    0.0000
     42 H23        4.0291   -0.6677    6.5582 H         1 RES1    0.0000
@<TRIPOS>BOND
     1    1    2 1
     2    3   23 2
     3    4    6 2
     4    5    6 2
     5    6   30 1
     6    7    8 1
     7    9    7 1
     8   10    7 1
     9   11    7 1
    10   12   11 1
    11   13   11 1
    12   14   13 1
    13   15   13 1
    14   16   13 1
    15   17   16 1
    16   18   16 1
    17   19   16 1
    18   20   19 1
    19   21   19 1
    20   22   21 1
    21   23   21 1
    22   24   23 1
    23   25   24 1
    24   26   24 1
    25   27   24 1
    26   28   27 1
    27   29   27 1
    28   30   27 1
    29   31   30 1
    30   32    1 1
    31   33   19 1
    32   34   33 1
    33   35   33 1
    34   36   35 1
    35   37   35 1
    36   38   35 1
    37   39   33 1
    38   40   39 1
    39   41   39 1
    40   42   39 1
    41   11   32 1
    42   21   32 1
    43   30   32 1
@<TRIPOS>SUBSTRUCTURE
     1 RES1 1

@<TRIPOS>CRYSIN
   9.3072   11.8390   13.1060  90.0000  90.0000  90.0000  19 1

