# MOL2 file generated by ConQuest
# Please check atom types

@<TRIPOS>MOLECULE
WIBCAL
    22    23     1
SMALL
NO_CHARGES
****
Generated from CSD

@<TRIPOS>ATOM
      1 O1        -0.7967    3.5006   -3.6208 O.2       1 RES1    0.0000
      2 O2         0.4942    2.0314    2.3986 O.3       1 RES1    0.0000
      3 N1        -0.2336    2.8245    1.5368 N.2       1 RES1    0.0000
      4 N2        -1.1172    3.9051   -1.0411 N.3       1 RES1    0.0000
      5 N3         1.2945    1.1104    1.7198 N.2       1 RES1    0.0000
      6 N4         1.6534    0.7108   -0.5892 N.2       1 RES1    0.0000
      7 C1        -0.4754    1.3305   -4.4312 C.3       1 RES1    0.0000
      8 C2        -0.3366    2.3972   -3.3882 C.2       1 RES1    0.0000
      9 C3         1.0483    1.3493    0.4500 C.2       1 RES1    0.0000
     10 C4         1.9327    0.4094   -2.9211 C.3       1 RES1    0.0000
     11 C5         1.2130    1.0846   -1.7790 C.2       1 RES1    0.0000
     12 C6         0.2148    2.0849   -2.0402 C.2       1 RES1    0.0000
     13 C7        -0.3017    2.8453   -0.9495 C.2       1 RES1    0.0000
     14 C8         0.1182    2.4032    0.3527 C.2       1 RES1    0.0000
     15 H1        -1.1441    1.6447   -5.0146 H         1 RES1    0.0000
     16 H2         0.3393    1.2561   -5.1023 H         1 RES1    0.0000
     17 H3        -0.6777    0.4828   -4.0441 H         1 RES1    0.0000
     18 H4        -1.2945    4.1916   -1.8362 H         1 RES1    0.0000
     19 H5        -1.5165    4.1678   -0.3470 H         1 RES1    0.0000
     20 H6         2.7760   -0.0178   -2.5073 H         1 RES1    0.0000
     21 H7         1.4243   -0.3014   -3.3596 H         1 RES1    0.0000
     22 H8         2.1637    1.0618   -3.6456 H         1 RES1    0.0000
@<TRIPOS>BOND
     1    1    8 2
     2    2    3 1
     3    3   14 2
     4    4   13 1
     5    5    2 1
     6    6    9 1
     7    7    8 1
     8    8   12 1
     9    9    5 2
    10   10   11 1
    11   11    6 2
    12   12   11 1
    13   13   12 2
    14   14    9 1
    15   15    7 1
    16   16    7 1
    17   17    7 1
    18   18    4 1
    19   19    4 1
    20   20   10 1
    21   21   10 1
    22   22   10 1
    23   13   14 1
@<TRIPOS>SUBSTRUCTURE
     1 RES1 1

@<TRIPOS>CRYSIN
   8.9520    9.9140   19.0670  90.0000  90.0000  90.0000  56 1

