# MOL2 file generated by ConQuest
# Please check atom types

@<TRIPOS>MOLECULE
WICLAV
    46    50     1
SMALL
NO_CHARGES
****
Generated from CSD

@<TRIPOS>ATOM
      1 N1         5.9343    2.7903    1.4985 N.pl3     1 RES1    0.0000
      2 C1         6.8192    3.4116    0.7509 C.2       1 RES1    0.0000
      3 C2         6.0951    4.1525   -0.2916 C.2       1 RES1    0.0000
      4 C3         4.6035    3.9102   -0.0905 C.3       1 RES1    0.0000
      5 C4         4.0383    2.9838   -1.1692 C.3       1 RES1    0.0000
      6 C5         4.1855    1.6012   -0.5538 C.3       1 RES1    0.0000
      7 O1         3.9110    1.8765    0.8537 O.3       1 RES1    0.0000
      8 N2         4.5185    3.1081    1.1742 N.3       1 RES1    0.0000
      9 O2         6.0848    2.0196    2.4511 O.2       1 RES1    0.0000
     10 O3         6.5432    4.8194   -1.1697 O.2       1 RES1    0.0000
     11 C6         8.2622    3.3503    0.9487 C.ar      1 RES1    0.0000
     12 C7         8.8433    2.7195    2.0523 C.ar      1 RES1    0.0000
     13 C8        10.2072    2.7054    2.2056 C.ar      1 RES1    0.0000
     14 C9        11.0227    3.3047    1.2902 C.ar      1 RES1    0.0000
     15 C10       10.4779    3.9039    0.1933 C.ar      1 RES1    0.0000
     16 C11        9.1054    3.9134   -0.0006 C.ar      1 RES1    0.0000
     17 C12        3.8849    5.2252    0.0866 C.ar      1 RES1    0.0000
     18 C13        3.2504    5.8355   -0.9853 C.ar      1 RES1    0.0000
     19 C14        2.6483    7.0733   -0.8042 C.ar      1 RES1    0.0000
     20 C15        2.6768    7.7119    0.4049 C.ar      1 RES1    0.0000
     21 C16        3.3215    7.1079    1.4574 C.ar      1 RES1    0.0000
     22 C17        3.9240    5.8748    1.3169 C.ar      1 RES1    0.0000
     23 C18        3.2151    0.5788   -1.0658 C.ar      1 RES1    0.0000
     24 C19        1.9930    0.3822   -0.5027 C.ar      1 RES1    0.0000
     25 C20        1.0992   -0.5238   -1.0581 C.ar      1 RES1    0.0000
     26 C21        1.4520   -1.2190   -2.1789 C.ar      1 RES1    0.0000
     27 C22        2.6652   -1.0129   -2.7504 C.ar      1 RES1    0.0000
     28 C23        3.5580   -0.1243   -2.2006 C.ar      1 RES1    0.0000
     29 H1         4.5607    3.0829   -1.9939 H         1 RES1    0.0000
     30 H2         3.0763    3.1930   -1.2108 H         1 RES1    0.0000
     31 H3         5.1369    1.2898   -0.6221 H         1 RES1    0.0000
     32 H4         8.2402    2.4065    2.6827 H         1 RES1    0.0000
     33 H5        10.5364    2.2492    2.9270 H         1 RES1    0.0000
     34 H6        11.9219    3.2874    1.4274 H         1 RES1    0.0000
     35 H7        11.0287    4.2626   -0.5110 H         1 RES1    0.0000
     36 H8         8.6548    4.3097   -0.7332 H         1 RES1    0.0000
     37 H9         3.1978    5.3793   -1.8773 H         1 RES1    0.0000
     38 H10        2.2278    7.5499   -1.5774 H         1 RES1    0.0000
     39 H11        2.2842    8.5723    0.5165 H         1 RES1    0.0000
     40 H12        3.3117    7.5342    2.3050 H         1 RES1    0.0000
     41 H13        4.3699    5.4422    2.0884 H         1 RES1    0.0000
     42 H14        1.7569    0.8651    0.2722 H         1 RES1    0.0000
     43 H15        0.2273   -0.6134   -0.6721 H         1 RES1    0.0000
     44 H16        0.9020   -1.8560   -2.5994 H         1 RES1    0.0000
     45 H17        2.9785   -1.5886   -3.4658 H         1 RES1    0.0000
     46 H18        4.4029    0.0315   -2.5716 H         1 RES1    0.0000
@<TRIPOS>BOND
     1    1    2 2
     2    2    3 1
     3    3    4 1
     4    4    5 1
     5    5    6 1
     6    6    7 1
     7    7    8 1
     8    8    1 1
     9    9    1 1
    10   10    3 2
    11   11    2 1
    12   12   11 ar
    13   13   12 ar
    14   14   13 ar
    15   15   14 ar
    16   16   11 ar
    17   17    4 1
    18   18   17 ar
    19   19   18 ar
    20   20   19 ar
    21   21   20 ar
    22   22   17 ar
    23   23    6 1
    24   24   23 ar
    25   25   24 ar
    26   26   25 ar
    27   27   26 ar
    28   28   23 ar
    29   29    5 1
    30   30    5 1
    31   31    6 1
    32   32   12 1
    33   33   13 1
    34   34   14 1
    35   35   15 1
    36   36   16 1
    37   37   18 1
    38   38   19 1
    39   39   20 1
    40   40   21 1
    41   41   22 1
    42   42   24 1
    43   43   25 1
    44   44   26 1
    45   45   27 1
    46   46   28 1
    47    4    8 1
    48   15   16 ar
    49   21   22 ar
    50   27   28 ar
@<TRIPOS>SUBSTRUCTURE
     1 RES1 1

@<TRIPOS>CRYSIN
  10.4670   15.7290    5.6620  90.0000 101.2000  90.0000   4 1

