# MOL2 file generated by ConQuest
# Please check atom types

@<TRIPOS>MOLECULE
WICVUZ
    61    64     1
SMALL
NO_CHARGES
****
Generated from CSD

@<TRIPOS>ATOM
      1 O1        -3.1112    2.4999    5.0014 O.3       1 RES1    0.0000
      2 O2         0.4727    4.6766    6.2136 O.2       1 RES1    0.0000
      3 O3        -1.1571    6.0657    6.1289 O.2       1 RES1    0.0000
      4 O4        -4.4560    3.2718    8.7905 O.3       1 RES1    0.0000
      5 O5        -3.6543    5.1678    9.6286 O.2       1 RES1    0.0000
      6 O6         2.6957    2.9117    0.5852 O.3       1 RES1    0.0000
      7 O7         3.9051    1.1469    1.2456 O.2       1 RES1    0.0000
      8 N1        -0.6429    4.9810    5.8750 N.pl3     1 RES1    0.0000
      9 C1        -2.0126    1.2472    6.7559 C.3       1 RES1    0.0000
     10 C2        -3.2500    1.6330    7.5741 C.3       1 RES1    0.0000
     11 C3        -3.3013    3.1113    7.9232 C.3       1 RES1    0.0000
     12 C4        -3.4500    4.0891    6.7392 C.3       1 RES1    0.0000
     13 C5        -2.6170    3.6281    5.5907 C.2       1 RES1    0.0000
     14 C6        -1.4125    3.9871    5.1466 C.2       1 RES1    0.0000
     15 C7        -0.8113    3.1397    4.0577 C.3       1 RES1    0.0000
     16 C8        -0.8301    1.6528    4.5280 C.3       1 RES1    0.0000
     17 C9        -2.1824    1.3591    5.2292 C.3       1 RES1    0.0000
     18 C10       -0.4436    0.7331    3.3597 C.3       1 RES1    0.0000
     19 C11        0.9038    1.1285    2.7536 C.3       1 RES1    0.0000
     20 C12        0.8985    2.5755    2.2854 C.3       1 RES1    0.0000
     21 C13        0.5523    3.4861    3.4903 C.3       1 RES1    0.0000
     22 C14        0.8111    4.8945    2.9584 C.3       1 RES1    0.0000
     23 C15        2.0566    4.7083    2.0754 C.3       1 RES1    0.0000
     24 C16        2.2687    3.1948    1.9427 C.3       1 RES1    0.0000
     25 C17       -0.0500    2.7479    1.0952 C.3       1 RES1    0.0000
     26 C18       -2.9450    0.1731    4.6847 C.3       1 RES1    0.0000
     27 C19       -4.4987    4.3394    9.5847 C.2       1 RES1    0.0000
     28 C20       -5.7405    4.3338   10.4082 C.3       1 RES1    0.0000
     29 C21        3.5076    1.8585    0.3804 C.2       1 RES1    0.0000
     30 C22        3.8446    1.7279   -1.0638 C.3       1 RES1    0.0000
     31 H1        -1.7758    0.3574    6.9597 H         1 RES1    0.0000
     32 H2        -1.3007    1.8312    7.0119 H         1 RES1    0.0000
     33 H3        -3.2745    1.1164    8.3809 H         1 RES1    0.0000
     34 H4        -4.0427    1.4134    7.0642 H         1 RES1    0.0000
     35 H5        -2.4602    3.3496    8.3077 H         1 RES1    0.0000
     36 H6        -3.1993    4.9611    7.0015 H         1 RES1    0.0000
     37 H7        -4.3757    4.1057    6.4685 H         1 RES1    0.0000
     38 H8        -1.3705    3.3280    3.2917 H         1 RES1    0.0000
     39 H9        -0.1632    1.4782    5.1832 H         1 RES1    0.0000
     40 H10       -1.1128    0.7877    2.6752 H         1 RES1    0.0000
     41 H11       -0.3944   -0.1714    3.6575 H         1 RES1    0.0000
     42 H12        1.0957    0.5551    2.0168 H         1 RES1    0.0000
     43 H13        1.5796    1.0151    3.4171 H         1 RES1    0.0000
     44 H14        1.0894    3.3557    4.2636 H         1 RES1    0.0000
     45 H15        0.9972    5.4982    3.6888 H         1 RES1    0.0000
     46 H16        0.0761    5.2187    2.4766 H         1 RES1    0.0000
     47 H17        2.8253    5.1427    2.4557 H         1 RES1    0.0000
     48 H18        1.9088    5.1140    1.2017 H         1 RES1    0.0000
     49 H19        2.9338    2.8089    2.5289 H         1 RES1    0.0000
     50 H20       -0.9121    2.3711    1.3167 H         1 RES1    0.0000
     51 H21       -0.1774    3.6720    0.8882 H         1 RES1    0.0000
     52 H22        0.2782    2.3034    0.3239 H         1 RES1    0.0000
     53 H23       -3.0467    0.2533    3.7515 H         1 RES1    0.0000
     54 H24       -2.4817   -0.6301    4.9010 H         1 RES1    0.0000
     55 H25       -3.8067    0.1530    5.0996 H         1 RES1    0.0000
     56 H26       -6.4681    3.9830    9.8961 H         1 RES1    0.0000
     57 H27       -5.9615    5.2253   10.6799 H         1 RES1    0.0000
     58 H28       -5.6187    3.7985   11.1815 H         1 RES1    0.0000
     59 H29        3.1347    1.2847   -1.5257 H         1 RES1    0.0000
     60 H30        4.6485    1.2333   -1.1808 H         1 RES1    0.0000
     61 H31        3.9569    2.5971   -1.4525 H         1 RES1    0.0000
@<TRIPOS>BOND
     1    1   13 1
     2    2    8 2
     3    3    8 2
     4    4   11 1
     5    5   27 2
     6    6   24 1
     7    7   29 2
     8    8   14 1
     9    9   10 1
    10   10   11 1
    11   11   12 1
    12   12   13 1
    13   13   14 2
    14   14   15 1
    15   15   16 1
    16   16   17 1
    17   17    1 1
    18   18   16 1
    19   19   18 1
    20   20   19 1
    21   21   15 1
    22   22   21 1
    23   23   22 1
    24   24   20 1
    25   25   20 1
    26   26   17 1
    27   27    4 1
    28   28   27 1
    29   29    6 1
    30   30   29 1
    31   31    9 1
    32   32    9 1
    33   33   10 1
    34   34   10 1
    35   35   11 1
    36   36   12 1
    37   37   12 1
    38   38   15 1
    39   39   16 1
    40   40   18 1
    41   41   18 1
    42   42   19 1
    43   43   19 1
    44   44   21 1
    45   45   22 1
    46   46   22 1
    47   47   23 1
    48   48   23 1
    49   49   24 1
    50   50   25 1
    51   51   25 1
    52   52   25 1
    53   53   26 1
    54   54   26 1
    55   55   26 1
    56   56   28 1
    57   57   28 1
    58   58   28 1
    59   59   30 1
    60   60   30 1
    61   61   30 1
    62    9   17 1
    63   20   21 1
    64   23   24 1
@<TRIPOS>SUBSTRUCTURE
     1 RES1 1

@<TRIPOS>CRYSIN
   7.2690    7.3530   11.0530  94.4000 107.0800 102.0200   1 1

