# MOL2 file generated by ConQuest
# Please check atom types

@<TRIPOS>MOLECULE
WICXIP
    62    65     1
SMALL
NO_CHARGES
****
Generated from CSD

@<TRIPOS>ATOM
      1 H1        -3.5392  -10.7932   -1.0797 H         1 RES1    0.0000
      2 H2        -3.6488  -10.3094   -3.8488 H         1 RES1    0.0000
      3 H3        -2.3154  -12.3853   -2.4302 H         1 RES1    0.0000
      4 H4        -1.4221  -10.1818   -2.0881 H         1 RES1    0.0000
      5 H5        -1.3428   -9.9597   -3.6901 H         1 RES1    0.0000
      6 H6        -1.2588  -13.0165   -4.5233 H         1 RES1    0.0000
      7 H7        -1.9981  -11.8202   -5.1909 H         1 RES1    0.0000
      8 H8        -2.8187  -13.0605   -4.6896 H         1 RES1    0.0000
      9 H9        -3.8924   -6.3620    0.8657 H         1 RES1    0.0000
     10 H10       -5.8726   -3.4812   -1.2549 H         1 RES1    0.0000
     11 H11       -5.6479   -7.3098   -2.6843 H         1 RES1    0.0000
     12 C1        -4.0841  -10.5799   -1.8416 C.3       1 RES1    0.0000
     13 C2        -3.2541  -10.6854   -3.0582 C.3       1 RES1    0.0000
     14 C3        -2.2418  -11.8092   -3.1952 C.3       1 RES1    0.0000
     15 C4        -1.7677  -10.4061   -2.9550 C.3       1 RES1    0.0000
     16 C5        -2.0642  -12.4931   -4.5100 C.3       1 RES1    0.0000
     17 O1        -4.5553   -9.1922   -1.7447 O.3       1 RES1    0.0000
     18 C6        -4.1596   -8.4270   -0.7440 C.2       1 RES1    0.0000
     19 O2        -3.4609   -8.7788    0.1605 O.2       1 RES1    0.0000
     20 C7        -4.6951   -7.0305   -0.8918 C.ar      1 RES1    0.0000
     21 C8        -4.3901   -6.1047    0.0860 C.ar      1 RES1    0.0000
     22 C9        -4.8235   -4.7962   -0.0885 C.ar      1 RES1    0.0000
     23 C10       -5.5676   -4.3872   -1.1638 C.ar      1 RES1    0.0000
     24 C11       -5.8641   -5.3570   -2.1110 C.ar      1 RES1    0.0000
     25 C12       -5.4392   -6.6721   -1.9989 C.ar      1 RES1    0.0000
     26 N1        -4.4656   -3.7934    0.9345 N.pl3     1 RES1    0.0000
     27 O3        -3.9283   -4.1783    1.9645 O.2       1 RES1    0.0000
     28 O4        -4.7262   -2.6257    0.6918 O.2       1 RES1    0.0000
     29 N2        -6.6601   -4.9700   -3.2729 N.pl3     1 RES1    0.0000
     30 O5        -7.1531   -3.8550   -3.2710 O.2       1 RES1    0.0000
     31 O6        -6.7886   -5.7682   -4.1806 O.2       1 RES1    0.0000
     32 C1C       -5.3589  -11.4111   -1.8416 C.3       1 RES1    0.0000
     33 H1C       -5.9038  -11.1978   -1.0797 H         1 RES1    0.0000
     34 C2C       -6.1889  -11.3056   -3.0582 C.3       1 RES1    0.0000
     35 O1C       -4.8877  -12.7988   -1.7447 O.3       1 RES1    0.0000
     36 H2C       -5.7942  -11.6816   -3.8488 H         1 RES1    0.0000
     37 C3C       -7.2012  -10.1818   -3.1952 C.3       1 RES1    0.0000
     38 C4C       -7.6753  -11.5849   -2.9550 C.3       1 RES1    0.0000
     39 C6C       -5.2834  -13.5640   -0.7440 C.2       1 RES1    0.0000
     40 H3C       -7.1276   -9.6057   -2.4302 H         1 RES1    0.0000
     41 C5C       -7.3788   -9.4979   -4.5100 C.3       1 RES1    0.0000
     42 H4C       -8.0209  -11.8092   -2.0881 H         1 RES1    0.0000
     43 H5C       -8.1002  -12.0313   -3.6901 H         1 RES1    0.0000
     44 O2C       -5.9821  -13.2122    0.1605 O.2       1 RES1    0.0000
     45 C7C       -4.7479  -14.9605   -0.8918 C.ar      1 RES1    0.0000
     46 H6C       -8.1842   -8.9745   -4.5233 H         1 RES1    0.0000
     47 H7C       -7.4449  -10.1708   -5.1909 H         1 RES1    0.0000
     48 H8C       -6.6243   -8.9305   -4.6896 H         1 RES1    0.0000
     49 C8C       -5.0529  -15.8863    0.0860 C.ar      1 RES1    0.0000
     50 C12C      -4.0038  -15.3189   -1.9989 C.ar      1 RES1    0.0000
     51 H9C       -5.5506  -15.6290    0.8657 H         1 RES1    0.0000
     52 C9C       -4.6195  -17.1948   -0.0885 C.ar      1 RES1    0.0000
     53 H11C      -3.7951  -14.6812   -2.6843 H         1 RES1    0.0000
     54 C11C      -3.5789  -16.6340   -2.1110 C.ar      1 RES1    0.0000
     55 C10C      -3.8754  -17.6038   -1.1638 C.ar      1 RES1    0.0000
     56 N1C       -4.9774  -18.1976    0.9345 N.pl3     1 RES1    0.0000
     57 N2C       -2.7829  -17.0210   -3.2729 N.pl3     1 RES1    0.0000
     58 H10C      -3.5704  -18.5098   -1.2549 H         1 RES1    0.0000
     59 O3C       -5.5147  -17.8127    1.9645 O.2       1 RES1    0.0000
     60 O4C       -4.7168  -19.3653    0.6918 O.2       1 RES1    0.0000
     61 O5C       -2.2899  -18.1360   -3.2710 O.2       1 RES1    0.0000
     62 O6C       -2.6544  -16.2228   -4.1806 O.2       1 RES1    0.0000
@<TRIPOS>BOND
     1    1   12 1
     2    2   13 1
     3    3   14 1
     4    4   15 1
     5    5   15 1
     6    6   16 1
     7    7   16 1
     8    8   16 1
     9    9   21 1
    10   10   23 1
    11   11   25 1
    12   12   13 1
    13   13   14 1
    14   14   15 1
    15   15   13 1
    16   16   14 1
    17   17   12 1
    18   18   17 1
    19   19   18 2
    20   20   18 1
    21   21   20 ar
    22   22   21 ar
    23   23   22 ar
    24   24   23 ar
    25   25   20 ar
    26   26   22 1
    27   27   26 2
    28   28   26 2
    29   29   24 1
    30   30   29 2
    31   31   29 2
    32   32   12 1
    33   33   32 1
    34   34   32 1
    35   35   32 1
    36   36   34 1
    37   37   34 1
    38   38   34 1
    39   39   35 1
    40   40   37 1
    41   41   37 1
    42   42   38 1
    43   43   38 1
    44   44   39 2
    45   45   39 1
    46   46   41 1
    47   47   41 1
    48   48   41 1
    49   49   45 ar
    50   50   45 ar
    51   51   49 1
    52   52   49 ar
    53   53   50 1
    54   54   50 ar
    55   55   52 ar
    56   56   52 1
    57   57   54 1
    58   58   55 1
    59   59   56 2
    60   60   56 2
    61   61   57 2
    62   62   57 2
    63   24   25 ar
    64   37   38 1
    65   54   55 ar
@<TRIPOS>SUBSTRUCTURE
     1 RES1 1

@<TRIPOS>CRYSIN
   9.4430   21.9910    6.3700  90.0000  90.0000  90.0000  18 1

