# MOL2 file generated by ConQuest
# Please check atom types

@<TRIPOS>MOLECULE
WIDXAK
    43    44     1
SMALL
NO_CHARGES
****
Generated from CSD

@<TRIPOS>ATOM
      1 O1         5.0539   10.3432    6.7645 O.3       1 RES1    0.0000
      2 H1         5.2423   10.9918    6.2995 H         1 RES1    0.0000
      3 O2         4.4144    8.0899    7.9179 O.3       1 RES1    0.0000
      4 O3         4.4147   10.8966    4.2256 O.3       1 RES1    0.0000
      5 O4         2.8901    4.5339    5.0617 O.2       1 RES1    0.0000
      6 O5         1.7710    7.6630    1.8305 O.2       1 RES1    0.0000
      7 C1         4.4021    9.4193    6.0112 C.ar      1 RES1    0.0000
      8 C2         4.0536    8.2041    6.5962 C.ar      1 RES1    0.0000
      9 C3         3.4014    7.2336    5.8662 C.ar      1 RES1    0.0000
     10 H2         3.1643    6.4286    6.2672 H         1 RES1    0.0000
     11 C4         3.0962    7.4635    4.5132 C.ar      1 RES1    0.0000
     12 C5         3.4252    8.6906    3.9290 C.ar      1 RES1    0.0000
     13 H3         3.2226    8.8558    3.0367 H         1 RES1    0.0000
     14 C6         4.0518    9.6502    4.6888 C.ar      1 RES1    0.0000
     15 C7         2.4837    6.4111    3.7047 C.2       1 RES1    0.0000
     16 N1         2.4329    5.0940    4.0038 N.3       1 RES1    0.0000
     17 C8         1.9627    4.2639    2.8494 C.3       1 RES1    0.0000
     18 C9         1.2435    5.3273    1.9977 C.3       1 RES1    0.0000
     19 N2         1.9007    6.5733    2.4986 N.pl3     1 RES1    0.0000
     20 C10        4.0506    6.9498    8.6120 C.3       1 RES1    0.0000
     21 H4         4.4279    6.1796    8.1812 H         1 RES1    0.0000
     22 H5         3.0936    6.8734    8.6236 H         1 RES1    0.0000
     23 H6         4.3775    7.0054    9.5127 H         1 RES1    0.0000
     24 C11        3.6619   11.4612    3.1982 C.3       1 RES1    0.0000
     25 H7         2.7363   11.4830    3.4551 H         1 RES1    0.0000
     26 H8         3.7602   10.9347    2.4020 H         1 RES1    0.0000
     27 H9         3.9685   12.3551    3.0309 H         1 RES1    0.0000
     28 C12        3.2473    3.7205    2.1692 C.3       1 RES1    0.0000
     29 H10        3.7843    4.4558    1.8659 H         1 RES1    0.0000
     30 H11        3.0054    3.1701    1.4210 H         1 RES1    0.0000
     31 H12        3.7481    3.1986    2.8014 H         1 RES1    0.0000
     32 C13        1.0905    3.1306    3.3391 C.3       1 RES1    0.0000
     33 H13        1.6216    2.5197    3.8569 H         1 RES1    0.0000
     34 H14        0.7145    2.6680    2.5859 H         1 RES1    0.0000
     35 H15        0.3841    3.4830    3.8843 H         1 RES1    0.0000
     36 C14        1.4411    5.1990    0.5104 C.3       1 RES1    0.0000
     37 H16        2.3763    5.1007    0.3198 H         1 RES1    0.0000
     38 H17        1.1066    5.9864    0.0746 H         1 RES1    0.0000
     39 H18        0.9656    4.4286    0.1897 H         1 RES1    0.0000
     40 C15       -0.2408    5.4816    2.3125 C.3       1 RES1    0.0000
     41 H19       -0.3600    5.5605    3.2612 H         1 RES1    0.0000
     42 H20       -0.7162    4.7129    1.9919 H         1 RES1    0.0000
     43 H21       -0.5779    6.2694    1.8808 H         1 RES1    0.0000
@<TRIPOS>BOND
     1    1    2 1
     2    3    8 1
     3    4   14 1
     4    5   16 1
     5    6   19 1
     6    7    1 1
     7    8    7 ar
     8    9    8 ar
     9   10    9 1
    10   11    9 ar
    11   12   11 ar
    12   13   12 1
    13   14    7 ar
    14   15   11 1
    15   16   15 1
    16   17   16 1
    17   18   17 1
    18   19   15 2
    19   20    3 1
    20   21   20 1
    21   22   20 1
    22   23   20 1
    23   24    4 1
    24   25   24 1
    25   26   24 1
    26   27   24 1
    27   28   17 1
    28   29   28 1
    29   30   28 1
    30   31   28 1
    31   32   17 1
    32   33   32 1
    33   34   32 1
    34   35   32 1
    35   36   18 1
    36   37   36 1
    37   38   36 1
    38   39   36 1
    39   40   18 1
    40   41   40 1
    41   42   40 1
    42   43   40 1
    43   12   14 ar
    44   18   19 1
@<TRIPOS>SUBSTRUCTURE
     1 RES1 1

@<TRIPOS>CRYSIN
  14.2986   13.6054    9.8965  90.0000 123.1518  90.0000   9 1

