# MOL2 file generated by ConQuest
# Please check atom types

@<TRIPOS>MOLECULE
WIFFEX
    44    46     1
SMALL
NO_CHARGES
****
Generated from CSD

@<TRIPOS>ATOM
      1 O1         2.5299   -0.8994   -1.6960 O.3       1 RES1    0.0000
      2 N1         1.7023   -1.9161   -1.2455 N.2       1 RES1    0.0000
      3 N2        -0.1136    1.9732    0.4947 N.3       1 RES1    0.0000
      4 N3        -0.1470    4.8008    0.8303 N.pl3     1 RES1    0.0000
      5 N4        -0.5655    6.3514   -0.7950 N.ar      1 RES1    0.0000
      6 N5         1.6095    6.0716    0.0707 N.ar      1 RES1    0.0000
      7 C1         0.4393   -3.9510    0.2562 C.ar      1 RES1    0.0000
      8 C2        -0.4334   -4.8970    0.7243 C.ar      1 RES1    0.0000
      9 C3        -1.6417   -4.5361    1.2101 C.ar      1 RES1    0.0000
     10 C4        -1.9982   -3.2201    1.2720 C.ar      1 RES1    0.0000
     11 C5        -1.1268   -2.2605    0.8392 C.ar      1 RES1    0.0000
     12 C6         0.0923   -2.6004    0.3003 C.ar      1 RES1    0.0000
     13 C7         1.0092   -1.5762   -0.2385 C.2       1 RES1    0.0000
     14 C8         1.0449   -0.2226    0.4240 C.3       1 RES1    0.0000
     15 C9         0.1839    0.7866   -0.3180 C.3       1 RES1    0.0000
     16 C10       -1.0552    2.8275   -0.2297 C.3       1 RES1    0.0000
     17 C11       -1.3673    4.0849    0.5388 C.3       1 RES1    0.0000
     18 C12        0.7773    3.9660    1.5811 C.3       1 RES1    0.0000
     19 C13        1.1031    2.7207    0.8038 C.3       1 RES1    0.0000
     20 C14        0.3260    5.7663    0.0000 C.ar      1 RES1    0.0000
     21 C15       -0.0952    7.3290   -1.5546 C.ar      1 RES1    0.0000
     22 C16        1.1987    7.7230   -1.5635 C.ar      1 RES1    0.0000
     23 C17        2.0160    7.0613   -0.7243 C.ar      1 RES1    0.0000
     24 H1         1.2580   -4.2157   -0.1166 H         1 RES1    0.0000
     25 H2        -0.1968   -5.8145    0.7234 H         1 RES1    0.0000
     26 H3        -2.2636   -5.2038    1.5193 H         1 RES1    0.0000
     27 H4        -2.8562   -2.9779    1.6253 H         1 RES1    0.0000
     28 H5        -1.3817   -1.3446    0.9028 H         1 RES1    0.0000
     29 H6         0.7089   -0.2993    1.3285 H         1 RES1    0.0000
     30 H7         1.9304    0.0978    0.4584 H         1 RES1    0.0000
     31 H8        -0.6895    3.0667   -1.0626 H         1 RES1    0.0000
     32 H9        -1.8722    2.3432   -0.3666 H         1 RES1    0.0000
     33 H10       -1.8172    3.8563    1.3577 H         1 RES1    0.0000
     34 H11       -1.9545    4.6368    0.0247 H         1 RES1    0.0000
     35 H12        1.5653    4.4548    1.7410 H         1 RES1    0.0000
     36 H13        0.3710    3.7254    2.4097 H         1 RES1    0.0000
     37 H14        1.6743    2.1808    1.3320 H         1 RES1    0.0000
     38 H15        1.5276    2.9659    0.0018 H         1 RES1    0.0000
     39 H16       -0.7169    7.7817   -2.1226 H         1 RES1    0.0000
     40 H17        1.5090    8.4269   -2.1155 H         1 RES1    0.0000
     41 H18        2.9196    7.3140   -0.6802 H         1 RES1    0.0000
     42 H19        3.0133   -1.2077   -2.3116 H         1 RES1    0.0000
     43 H20       -0.6500    0.3670   -0.5574 H         1 RES1    0.0000
     44 H21        0.6275    1.0558   -1.1059 H         1 RES1    0.0000
@<TRIPOS>BOND
     1    1    2 1
     2    2   13 2
     3    3   15 1
     4    4   17 1
     5    5   20 ar
     6    6   20 ar
     7    7    8 ar
     8    8    9 ar
     9    9   10 ar
    10   10   11 ar
    11   11   12 ar
    12   12    7 ar
    13   13   12 1
    14   14   13 1
    15   15   14 1
    16   16    3 1
    17   17   16 1
    18   18    4 1
    19   19    3 1
    20   20    4 1
    21   21    5 ar
    22   22   21 ar
    23   23    6 ar
    24   24    7 1
    25   25    8 1
    26   26    9 1
    27   27   10 1
    28   28   11 1
    29   29   14 1
    30   30   14 1
    31   31   16 1
    32   32   16 1
    33   33   17 1
    34   34   17 1
    35   35   18 1
    36   36   18 1
    37   37   19 1
    38   38   19 1
    39   39   21 1
    40   40   22 1
    41   41   23 1
    42   42    1 1
    43   43   15 1
    44   44   15 1
    45   18   19 1
    46   22   23 ar
@<TRIPOS>SUBSTRUCTURE
     1 RES1 1

