# MOL2 file generated by ConQuest
# Please check atom types

@<TRIPOS>MOLECULE
WIFLUS
    23    25     1
SMALL
NO_CHARGES
****
Generated from CSD

@<TRIPOS>ATOM
      1 C1         7.7443   -0.1953    8.9045 C.ar      1 RES1    0.0000
      2 C2         7.5115   -0.3517    7.6610 C.ar      1 RES1    0.0000
      3 C3         8.5506    0.8269    6.8567 C.ar      1 RES1    0.0000
      4 C4         9.8157    0.7387    7.2751 C.ar      1 RES1    0.0000
      5 C5        10.1415    0.1607    8.5210 C.ar      1 RES1    0.0000
      6 C6        11.4838    0.0202    8.9347 C.ar      1 RES1    0.0000
      7 C7        11.7870   -0.5547   10.1364 C.ar      1 RES1    0.0000
      8 C8        10.7687   -0.9853   10.9801 C.ar      1 RES1    0.0000
      9 C9         9.4673   -0.8781   10.6082 C.ar      1 RES1    0.0000
     10 C10        9.0977   -0.3043    9.3740 C.ar      1 RES1    0.0000
     11 C11        6.5807   -0.5916    9.7366 C.2       1 RES1    0.0000
     12 C12        5.3563   -1.0291    9.0253 C.2       1 RES1    0.0000
     13 C13        4.1792   -1.1328    9.6668 C.2       1 RES1    0.0000
     14 C14        2.9114   -1.5245    9.0486 C.ar      1 RES1    0.0000
     15 C15        1.7173   -1.2356    9.7203 C.ar      1 RES1    0.0000
     16 C16        0.5107   -1.5148    9.1578 C.ar      1 RES1    0.0000
     17 C17        0.4694   -2.1475    7.9283 C.ar      1 RES1    0.0000
     18 C18        1.6272   -2.4604    7.2588 C.ar      1 RES1    0.0000
     19 C19        2.8304   -2.1669    7.8167 C.ar      1 RES1    0.0000
     20 N1        -0.8094   -2.5140    7.3309 N.pl3     1 RES1    0.0000
     21 O1        -1.8255   -2.1545    7.9027 O.2       1 RES1    0.0000
     22 O2        -0.8167   -3.1270    6.2826 O.2       1 RES1    0.0000
     23 O3         6.5987   -0.5866   10.9522 O.2       1 RES1    0.0000
@<TRIPOS>BOND
     1    1    2 ar
     2    2    3 ar
     3    3    4 ar
     4    4    5 ar
     5    5    6 ar
     6    6    7 ar
     7    7    8 ar
     8    8    9 ar
     9    9   10 ar
    10   10    1 ar
    11   11    1 1
    12   12   11 1
    13   13   12 2
    14   14   13 1
    15   15   14 ar
    16   16   15 ar
    17   17   16 ar
    18   18   17 ar
    19   19   14 ar
    20   20   17 1
    21   21   20 2
    22   22   20 2
    23   23   11 2
    24    5   10 ar
    25   18   19 ar
@<TRIPOS>SUBSTRUCTURE
     1 RES1 1

@<TRIPOS>CRYSIN
  16.1570    3.8820   24.2240  90.0000 106.3600  90.0000 231 1

