# MOL2 file generated by ConQuest
# Please check atom types

@<TRIPOS>MOLECULE
WIFQUY
    61    63     1
SMALL
NO_CHARGES
****
Generated from CSD

@<TRIPOS>ATOM
      1 O1         6.3455    1.1337   14.7006 O.3       1 RES1    0.0000
      2 O2         3.4034    1.2208   15.7921 O.2       1 RES1    0.0000
      3 O3        -2.1648    1.1780   13.2076 O.2       1 RES1    0.0000
      4 O4         1.3297    1.2902   16.3476 O.2       1 RES1    0.0000
      5 O5        -1.7435    1.1807   11.0830 O.2       1 RES1    0.0000
      6 O6         8.9260    5.8551   21.8546 O.2       1 RES1    0.0000
      7 O7         9.5988    3.8054   22.2137 O.3       1 RES1    0.0000
      8 N1         2.2135    1.2535   15.4967 N.pl3     1 RES1    0.0000
      9 N2         4.1230    1.2508   13.2677 N.3       1 RES1    0.0000
     10 N3         4.9366    1.3882   12.1515 N.2       1 RES1    0.0000
     11 N4        -1.3749    1.1841   12.2523 N.pl3     1 RES1    0.0000
     12 C1         2.7895    1.2358   13.0643 C.ar      1 RES1    0.0000
     13 C2         1.8232    1.2372   14.1062 C.ar      1 RES1    0.0000
     14 C3         0.4642    1.2242   13.8427 C.ar      1 RES1    0.0000
     15 C4         2.2856    1.2310   11.7410 C.ar      1 RES1    0.0000
     16 C5         6.2019    1.3692   12.2930 C.2       1 RES1    0.0000
     17 C6         0.0406    1.2065   12.5424 C.ar      1 RES1    0.0000
     18 C7         0.9533    1.2004   11.4863 C.ar      1 RES1    0.0000
     19 C8         7.5099    0.2062   10.4974 C.ar      1 RES1    0.0000
     20 C9         6.6135   -0.6853    9.9331 C.ar      1 RES1    0.0000
     21 C10        7.0074    1.5332   11.0087 C.3       1 RES1    0.0000
     22 C11        7.0612    1.1997   13.4871 C.3       1 RES1    0.0000
     23 C12        7.2241    1.1766   15.8222 C.3       1 RES1    0.0000
     24 C13        7.2289    1.3896   18.3519 C.3       1 RES1    0.0000
     25 C14        8.5993    3.0813   19.6787 C.2       1 RES1    0.0000
     26 C15        7.0183   -1.9075    9.4749 C.ar      1 RES1    0.0000
     27 C16        9.2717   -1.4114   10.1206 C.ar      1 RES1    0.0000
     28 C17        8.9349    4.7091   21.4742 C.2       1 RES1    0.0000
     29 C18        8.8478   -0.1715   10.6053 C.ar      1 RES1    0.0000
     30 C19        6.3968    1.2780   17.0676 C.3       1 RES1    0.0000
     31 C20        9.4749    2.1300   20.4164 C.3       1 RES1    0.0000
     32 C21        8.1024    2.6867   18.3395 C.3       1 RES1    0.0000
     33 C22        8.3305   -2.2600    9.5651 C.ar      1 RES1    0.0000
     34 C23        9.4048    2.4165   21.8864 C.3       1 RES1    0.0000
     35 C24        8.3342    4.2607   20.2200 C.2       1 RES1    0.0000
     36 H1         4.4716    1.2739   14.0726 H         1 RES1    0.0000
     37 H2        -0.2822    1.2515   14.6369 H         1 RES1    0.0000
     38 H3         2.9868    1.0929   11.0228 H         1 RES1    0.0000
     39 H4         0.5082    1.1977   10.5116 H         1 RES1    0.0000
     40 H5         5.5092   -0.3151    9.6023 H         1 RES1    0.0000
     41 H6         7.9066    2.1416   11.2316 H         1 RES1    0.0000
     42 H7         6.2218    1.9646   10.3470 H         1 RES1    0.0000
     43 H8         7.8203    2.0565   13.5118 H         1 RES1    0.0000
     44 H9         7.8303    0.3824   13.4942 H         1 RES1    0.0000
     45 H10        7.9252    2.0361   15.9036 H         1 RES1    0.0000
     46 H11        8.0448    0.3552   15.8328 H         1 RES1    0.0000
     47 H12        6.5278    1.6761   19.2205 H         1 RES1    0.0000
     48 H13        8.1300    0.7574   18.3891 H         1 RES1    0.0000
     49 H14        6.3003   -2.4519    8.8168 H         1 RES1    0.0000
     50 H15       10.3844   -1.6584   10.1701 H         1 RES1    0.0000
     51 H16        9.5832    0.6165   10.9804 H         1 RES1    0.0000
     52 H17        5.8231    0.5240   17.1330 H         1 RES1    0.0000
     53 H18       10.6187    2.4036   20.2253 H         1 RES1    0.0000
     54 H19        9.3373    1.0630   20.1369 H         1 RES1    0.0000
     55 H20        8.9011    2.5648   17.6142 H         1 RES1    0.0000
     56 H21        7.4089    3.2794   17.9326 H         1 RES1    0.0000
     57 H22        8.5545    2.1354   22.2084 H         1 RES1    0.0000
     58 H23        8.6035   -3.1099    9.2379 H         1 RES1    0.0000
     59 H24        5.8745    2.0681   16.9933 H         1 RES1    0.0000
     60 H25        7.7244    4.8398   19.7777 H         1 RES1    0.0000
     61 H26       10.0872    1.9136   22.3163 H         1 RES1    0.0000
@<TRIPOS>BOND
     1    1   22 1
     2    2    8 2
     3    3   11 2
     4    4    8 2
     5    5   11 2
     6    6   28 2
     7    7   28 1
     8    8   13 1
     9    9   10 1
    10   10   16 2
    11   11   17 1
    12   12    9 1
    13   13   12 ar
    14   14   13 ar
    15   15   12 ar
    16   16   21 1
    17   17   14 ar
    18   18   15 ar
    19   19   20 ar
    20   20   26 ar
    21   21   19 1
    22   22   16 1
    23   23    1 1
    24   24   30 1
    25   25   31 1
    26   26   33 ar
    27   27   29 ar
    28   28   35 1
    29   29   19 ar
    30   30   23 1
    31   31   34 1
    32   32   24 1
    33   33   27 ar
    34   34    7 1
    35   35   25 2
    36   36    9 1
    37   37   14 1
    38   38   15 1
    39   39   18 1
    40   40   20 1
    41   41   21 1
    42   42   21 1
    43   43   22 1
    44   44   22 1
    45   45   23 1
    46   46   23 1
    47   47   24 1
    48   48   24 1
    49   49   26 1
    50   50   27 1
    51   51   29 1
    52   52   30 1
    53   53   31 1
    54   54   31 1
    55   55   32 1
    56   56   32 1
    57   57   34 1
    58   58   33 1
    59   59   30 1
    60   60   35 1
    61   61   34 1
    62   17   18 ar
    63   25   32 1
@<TRIPOS>SUBSTRUCTURE
     1 RES1 1

@<TRIPOS>CRYSIN
  19.8740    6.8051   20.3350  90.0000 119.5480  90.0000  14 1

