# MOL2 file generated by ConQuest
# Please check atom types

@<TRIPOS>MOLECULE
WIGVEP
    37    39     1
SMALL
NO_CHARGES
****
Generated from CSD

@<TRIPOS>ATOM
      1 O1         6.3726    9.6971    0.2666 O.2       1 RES1    0.0000
      2 O2         7.7514    9.2312    1.8455 O.2       1 RES1    0.0000
      3 N1         1.0404    8.0662    8.2118 N.2       1 RES1    0.0000
      4 N2         6.6201    9.4475    1.4391 N.pl3     1 RES1    0.0000
      5 C1        -1.4001    8.0240    8.4832 C.ar      1 RES1    0.0000
      6 C2        -2.5263    7.9754    9.3130 C.ar      1 RES1    0.0000
      7 C3        -2.3826    7.9772   10.6632 C.ar      1 RES1    0.0000
      8 C4        -1.1013    8.0067   11.2558 C.ar      1 RES1    0.0000
      9 C5        -0.9206    7.9900   12.6606 C.ar      1 RES1    0.0000
     10 C6         0.3173    7.9839   13.2118 C.ar      1 RES1    0.0000
     11 C7         1.4533    7.9915   12.3942 C.ar      1 RES1    0.0000
     12 C8         1.3292    8.0143   11.0362 C.ar      1 RES1    0.0000
     13 C9         0.0497    8.0340   10.4297 C.ar      1 RES1    0.0000
     14 C10       -0.1297    8.0720    9.0064 C.ar      1 RES1    0.0000
     15 C11        1.0744    8.7542    7.1365 C.2       1 RES1    0.0000
     16 C12        2.2214    8.7357    6.2691 C.2       1 RES1    0.0000
     17 C13        2.2727    9.3726    5.1021 C.2       1 RES1    0.0000
     18 C14        3.4105    9.3902    4.1802 C.ar      1 RES1    0.0000
     19 C15        3.1972    9.6584    2.8311 C.ar      1 RES1    0.0000
     20 C16        4.2390    9.6691    1.9347 C.ar      1 RES1    0.0000
     21 C17        5.5102    9.4194    2.3933 C.ar      1 RES1    0.0000
     22 C18        5.7695    9.1634    3.7208 C.ar      1 RES1    0.0000
     23 C19        4.7172    9.1534    4.6049 C.ar      1 RES1    0.0000
     24 H1        -1.5130    8.0232    7.5605 H         1 RES1    0.0000
     25 H2        -3.3764    7.9413    8.9380 H         1 RES1    0.0000
     26 H3        -3.1381    7.9594   11.2046 H         1 RES1    0.0000
     27 H4        -1.6666    7.9829   13.2157 H         1 RES1    0.0000
     28 H5         0.4120    7.9746   14.1373 H         1 RES1    0.0000
     29 H6         2.2996    7.9815   12.7796 H         1 RES1    0.0000
     30 H7         2.0913    8.0162   10.5031 H         1 RES1    0.0000
     31 H8         2.3342    9.8334    2.5305 H         1 RES1    0.0000
     32 H9         4.0869    9.8417    1.0331 H         1 RES1    0.0000
     33 H10        6.6376    9.0011    4.0124 H         1 RES1    0.0000
     34 H11        4.8802    8.9858    5.5056 H         1 RES1    0.0000
     35 H12        1.5014    9.8736    4.8225 H         1 RES1    0.0000
     36 H13        2.9738    8.2229    6.5458 H         1 RES1    0.0000
     37 H14        0.3225    9.3423    6.8831 H         1 RES1    0.0000
@<TRIPOS>BOND
     1    1    4 2
     2    2    4 2
     3    3   14 1
     4    4   21 1
     5    5    6 ar
     6    6    7 ar
     7    7    8 ar
     8    8    9 ar
     9    9   10 ar
    10   10   11 ar
    11   11   12 ar
    12   12   13 ar
    13   13    8 ar
    14   14    5 ar
    15   15    3 2
    16   16   15 1
    17   17   16 2
    18   18   17 1
    19   19   18 ar
    20   20   19 ar
    21   21   20 ar
    22   22   21 ar
    23   23   18 ar
    24   24    5 1
    25   25    6 1
    26   26    7 1
    27   27    9 1
    28   28   10 1
    29   29   11 1
    30   30   12 1
    31   31   19 1
    32   32   20 1
    33   33   22 1
    34   34   23 1
    35   35   17 1
    36   36   16 1
    37   37   15 1
    38   13   14 ar
    39   22   23 ar
@<TRIPOS>SUBSTRUCTURE
     1 RES1 1

@<TRIPOS>CRYSIN
   7.7021   13.8713   14.2554  90.0000  98.0960  90.0000  14 1

