# MOL2 file generated by ConQuest
# Please check atom types

@<TRIPOS>MOLECULE
WIGXAN
    17    17     1
SMALL
NO_CHARGES
****
Generated from CSD

@<TRIPOS>ATOM
      1 C1         1.5945    1.8214    0.3663 C.2       1 RES1    0.0000
      2 C2         1.0612    2.3571   -0.8796 C.2       1 RES1    0.0000
      3 C3         1.3995    3.4899   -1.5610 C.2       1 RES1    0.0000
      4 C4         2.3309    4.4848   -1.2592 C.2       1 RES1    0.0000
      5 C5         3.1632    4.5872   -0.1897 C.2       1 RES1    0.0000
      6 C6         3.2969    3.6816    0.8647 C.2       1 RES1    0.0000
      7 C7         2.6464    2.5034    1.0659 C.2       1 RES1    0.0000
      8 H1        -0.0088    0.9457   -0.8982 H         1 RES1    0.0000
      9 H2         0.9342    3.6201   -2.3551 H         1 RES1    0.0000
     10 H3         2.3906    5.1766   -1.8780 H         1 RES1    0.0000
     11 H4         3.7030    5.3437   -0.1563 H         1 RES1    0.0000
     12 H5         3.9145    3.9161    1.5188 H         1 RES1    0.0000
     13 N1         3.0706    1.7624    2.2723 N.pl3     1 RES1    0.0000
     14 O1         1.1019    0.7723    0.8086 O.2       1 RES1    0.0000
     15 O2         0.0912    1.6137   -1.4106 O.3       1 RES1    0.0000
     16 O3         3.6959    0.7358    2.1070 O.2       1 RES1    0.0000
     17 O4         2.7980    2.2159    3.3603 O.2       1 RES1    0.0000
@<TRIPOS>BOND
     1    1    2 1
     2    2    3 2
     3    3    4 1
     4    4    5 2
     5    5    6 1
     6    6    7 2
     7    7    1 1
     8    8   15 1
     9    9    3 1
    10   10    4 1
    11   11    5 1
    12   12    6 1
    13   13    7 1
    14   14    1 2
    15   15    2 1
    16   16   13 2
    17   17   13 2
@<TRIPOS>SUBSTRUCTURE
     1 RES1 1

@<TRIPOS>CRYSIN
   9.6167    6.4772   11.7326  90.0000  96.1620  90.0000  14 1

