# MOL2 file generated by ConQuest
# Please check atom types

@<TRIPOS>MOLECULE
WIGYOC
    29    30     1
SMALL
NO_CHARGES
****
Generated from CSD

@<TRIPOS>ATOM
      1 O1         2.9594    5.4948    7.4445 O.2       1 RES1    0.0000
      2 O2         0.4864    0.0321    4.0060 O.2       1 RES1    0.0000
      3 O3        -0.0837    1.3422    2.3807 O.2       1 RES1    0.0000
      4 O4         3.1255   12.0080    7.8682 O.3       1 RES1    0.0000
      5 H1         3.5318   11.9838    8.6031 H         1 RES1    0.0000
      6 N1         1.7918    6.8897    6.0759 N.am      1 RES1    0.0000
      7 H2         1.2089    6.8931    5.4166 H         1 RES1    0.0000
      8 N2         0.4066    1.1387    3.4906 N.pl3     1 RES1    0.0000
      9 C1         2.2391    5.6784    6.4620 C.2       1 RES1    0.0000
     10 C2         1.7847    4.5136    5.6232 C.ar      1 RES1    0.0000
     11 C3         1.2441    4.6585    4.3447 C.ar      1 RES1    0.0000
     12 H3         1.1849    5.5218    3.9519 H         1 RES1    0.0000
     13 C4         0.7926    3.5510    3.6456 C.ar      1 RES1    0.0000
     14 H4         0.4052    3.6464    2.7832 H         1 RES1    0.0000
     15 C5         0.9186    2.3036    4.2286 C.ar      1 RES1    0.0000
     16 C6         1.4870    2.1148    5.4803 C.ar      1 RES1    0.0000
     17 H5         1.5741    1.2456    5.8518 H         1 RES1    0.0000
     18 C7         1.9227    3.2336    6.1708 C.ar      1 RES1    0.0000
     19 H6         2.3200    3.1311    7.0276 H         1 RES1    0.0000
     20 C8         2.1450    8.1665    6.6015 C.ar      1 RES1    0.0000
     21 C9         1.9245    9.2726    5.7877 C.ar      1 RES1    0.0000
     22 H7         1.5423    9.1506    4.9260 H         1 RES1    0.0000
     23 C10        2.2528   10.5534    6.2156 C.ar      1 RES1    0.0000
     24 H8         2.0990   11.3012    5.6501 H         1 RES1    0.0000
     25 C11        2.8092   10.7317    7.4787 C.ar      1 RES1    0.0000
     26 C12        3.0072    9.6346    8.3023 C.ar      1 RES1    0.0000
     27 H9         3.3766    9.7590    9.1680 H         1 RES1    0.0000
     28 C13        2.6721    8.3526    7.8757 C.ar      1 RES1    0.0000
     29 H10        2.8026    7.6083    8.4522 H         1 RES1    0.0000
@<TRIPOS>BOND
     1    1    9 2
     2    2    8 2
     3    3    8 2
     4    4    5 1
     5    6    7 1
     6    8   15 1
     7    9    6 1
     8   10    9 1
     9   11   10 ar
    10   12   11 1
    11   13   11 ar
    12   14   13 1
    13   15   13 ar
    14   16   15 ar
    15   17   16 1
    16   18   10 ar
    17   19   18 1
    18   20    6 1
    19   21   20 ar
    20   22   21 1
    21   23   21 ar
    22   24   23 1
    23   25    4 1
    24   26   25 ar
    25   27   26 1
    26   28   20 ar
    27   29   28 1
    28   16   18 ar
    29   23   25 ar
    30   26   28 ar
@<TRIPOS>SUBSTRUCTURE
     1 RES1 1

@<TRIPOS>CRYSIN
   7.5187   12.5695   11.7932  90.0000  90.0330  90.0000  14 1

