# MOL2 file generated by ConQuest
# Please check atom types

@<TRIPOS>MOLECULE
WIGYOC01
    29    30     1
SMALL
NO_CHARGES
****
Generated from CSD

@<TRIPOS>ATOM
      1 C1         6.6271    8.5941    7.5983 C.ar      1 RES1    0.0000
      2 C2         6.0720    8.4084    6.3517 C.ar      1 RES1    0.0000
      3 H1         5.9908    7.5573    5.9861 H         1 RES1    0.0000
      4 C3         5.6390    9.5234    5.6604 C.ar      1 RES1    0.0000
      5 H2         5.2626    9.4206    4.8165 H         1 RES1    0.0000
      6 C4         5.7566   10.7966    6.2074 C.ar      1 RES1    0.0000
      7 C5         6.2920   10.9341    7.4820 C.ar      1 RES1    0.0000
      8 H3         6.3475   11.7792    7.8661 H         1 RES1    0.0000
      9 C6         6.7431    9.8381    8.1860 C.ar      1 RES1    0.0000
     10 H4         7.1149    9.9335    9.0333 H         1 RES1    0.0000
     11 C7         5.2910   11.9538    5.3769 C.2       1 RES1    0.0000
     12 C8         5.3301   14.4408    5.2538 C.ar      1 RES1    0.0000
     13 C9         4.8240   14.6279    3.9735 C.ar      1 RES1    0.0000
     14 H5         4.7114   13.9002    3.4053 H         1 RES1    0.0000
     15 C10        4.4880   15.8972    3.5460 C.ar      1 RES1    0.0000
     16 H6         4.1355   16.0149    2.6938 H         1 RES1    0.0000
     17 C11        4.6686   16.9954    4.3632 C.ar      1 RES1    0.0000
     18 C12        5.2026   16.8145    5.6286 C.ar      1 RES1    0.0000
     19 H7         5.3415   17.5462    6.1860 H         1 RES1    0.0000
     20 C13        5.5302   15.5402    6.0590 C.ar      1 RES1    0.0000
     21 H8         5.8927   15.4239    6.9082 H         1 RES1    0.0000
     22 N1         7.1226    7.4305    8.3464 N.pl3     1 RES1    0.0000
     23 N2         5.6889   13.1684    5.7801 N.am      1 RES1    0.0000
     24 H9         6.2176   13.2212    6.4382 H         1 RES1    0.0000
     25 O1         7.0488    6.3311    7.8342 O.2       1 RES1    0.0000
     26 H10        3.9094   18.2427    3.2483 H         1 RES1    0.0000
     27 O2         7.6059    7.6335    9.4578 O.2       1 RES1    0.0000
     28 O3         4.6078   11.7631    4.3780 O.2       1 RES1    0.0000
     29 O4         4.3503   18.2593    3.9674 O.3       1 RES1    0.0000
@<TRIPOS>BOND
     1    1    2 ar
     2    2    3 1
     3    4    2 ar
     4    5    4 1
     5    6    4 ar
     6    7    6 ar
     7    8    7 1
     8    9    1 ar
     9   10    9 1
    10   11    6 1
    11   12   13 ar
    12   13   14 1
    13   15   13 ar
    14   16   15 1
    15   17   15 ar
    16   18   17 ar
    17   19   18 1
    18   20   12 ar
    19   21   20 1
    20   22    1 1
    21   23   11 1
    22   24   23 1
    23   25   22 2
    24   26   29 1
    25   27   22 2
    26   28   11 2
    27   29   17 1
    28    7    9 ar
    29   12   23 1
    30   18   20 ar
@<TRIPOS>SUBSTRUCTURE
     1 RES1 1

@<TRIPOS>CRYSIN
   7.6669   12.5725   11.9006  90.0000  91.0940  90.0000  14 1

