# MOL2 file generated by ConQuest
# Please check atom types

@<TRIPOS>MOLECULE
WIJCEX
    38    39     1
SMALL
NO_CHARGES
****
Generated from CSD

@<TRIPOS>ATOM
      1 C1         9.8669    9.9994    1.7973 C.ar      1 RES1    0.0000
      2 C2         9.4372   10.3672    0.5375 C.ar      1 RES1    0.0000
      3 C3         8.1099   10.2439    0.1882 C.ar      1 RES1    0.0000
      4 C4         7.2169    9.7591    1.1060 C.ar      1 RES1    0.0000
      5 C5         7.6227    9.4050    2.3737 C.ar      1 RES1    0.0000
      6 C6         8.9557    9.5251    2.7271 C.ar      1 RES1    0.0000
      7 C7        10.4025    9.8413    4.6572 C.2       1 RES1    0.0000
      8 C8        11.2863    9.3354    5.5379 C.2       1 RES1    0.0000
      9 C9        12.2882   10.1301    6.1926 C.2       1 RES1    0.0000
     10 C10       13.2085    9.6579    7.0364 C.2       1 RES1    0.0000
     11 C11       14.2729   10.4357    7.6470 C.ar      1 RES1    0.0000
     12 C12       14.4729   11.7910    7.3935 C.ar      1 RES1    0.0000
     13 C13       15.4920   12.4950    7.9838 C.ar      1 RES1    0.0000
     14 C14       16.3287   11.8290    8.8470 C.ar      1 RES1    0.0000
     15 C15       16.1959   10.5032    9.1288 C.ar      1 RES1    0.0000
     16 C16       15.1721    9.8065    8.5131 C.ar      1 RES1    0.0000
     17 C17        8.9967    7.8758    4.5742 C.3       1 RES1    0.0000
     18 C18       10.4458   11.2588    4.4116 C.1       1 RES1    0.0000
     19 N1         9.3727    9.1592    4.0349 N.pl3     1 RES1    0.0000
     20 N2        10.5229   12.3920    4.3001 N.1       1 RES1    0.0000
     21 N3        17.4291   12.5825    9.4667 N.pl3     1 RES1    0.0000
     22 O1        17.6706   13.6940    9.0271 O.2       1 RES1    0.0000
     23 O2        18.0530   12.0577   10.3776 O.2       1 RES1    0.0000
     24 H1        10.8317   10.0647    2.0440 H         1 RES1    0.0000
     25 H2        10.0859   10.6971   -0.1179 H         1 RES1    0.0000
     26 H3         7.7952   10.5285   -0.7075 H         1 RES1    0.0000
     27 H4         6.2731    9.6537    0.8648 H         1 RES1    0.0000
     28 H5         6.9677    9.0741    3.0529 H         1 RES1    0.0000
     29 H6        11.2661    8.3574    5.7914 H         1 RES1    0.0000
     30 H7        12.3065   11.1081    6.0142 H         1 RES1    0.0000
     31 H8        13.1625    8.6736    7.2196 H         1 RES1    0.0000
     32 H9        13.8402   12.2569    6.7741 H         1 RES1    0.0000
     33 H10       15.6332   13.4688    7.7699 H         1 RES1    0.0000
     34 H11       16.8184   10.0226    9.7484 H         1 RES1    0.0000
     35 H12       15.0478    8.8211    8.7002 H         1 RES1    0.0000
     36 H13        9.7004    7.2298    4.5860 H         1 RES1    0.0000
     37 H14        8.6915    7.9464    5.5163 H         1 RES1    0.0000
     38 H15        8.2433    7.4722    4.1143 H         1 RES1    0.0000
@<TRIPOS>BOND
     1    1    2 ar
     2    2    3 ar
     3    3    4 ar
     4    4    5 ar
     5    5    6 ar
     6    6    1 ar
     7    7    8 2
     8    8    9 1
     9    9   10 2
    10   10   11 1
    11   11   12 ar
    12   12   13 ar
    13   13   14 ar
    14   14   15 ar
    15   15   16 ar
    16   16   11 ar
    17   17   19 1
    18   18    7 1
    19   19    6 1
    20   20   18 3
    21   21   14 1
    22   22   21 2
    23   23   21 2
    24   24    1 1
    25   25    2 1
    26   26    3 1
    27   27    4 1
    28   28    5 1
    29   29    8 1
    30   30    9 1
    31   31   10 1
    32   32   12 1
    33   33   13 1
    34   34   15 1
    35   35   16 1
    36   36   17 1
    37   37   17 1
    38   38   17 1
    39    7   19 1
@<TRIPOS>SUBSTRUCTURE
     1 RES1 1

@<TRIPOS>CRYSIN
  11.4460   10.5390   13.3910  90.0000 101.9100  90.0000 231 1

