# MOL2 file generated by ConQuest
# Please check atom types

@<TRIPOS>MOLECULE
WIJMEH
    50    50     1
SMALL
NO_CHARGES
****
Generated from CSD

@<TRIPOS>ATOM
      1 C1         2.4169    2.7869    3.4012 C.ar      1 RES1    0.0000
      2 C2         3.3904    3.3072    4.2224 C.ar      1 RES1    0.0000
      3 C3         4.0003    2.4560    5.1308 C.ar      1 RES1    0.0000
      4 H1         4.6785    2.7887    5.6142 H         1 RES1    0.0000
      5 C4         3.6445    1.1342    5.2461 C.ar      1 RES1    0.0000
      6 H2         4.1345    0.5199    5.9140 H         1 RES1    0.0000
      7 C5         2.6718    0.6533    4.4170 C.ar      1 RES1    0.0000
      8 C6         2.0507    1.4452    3.4851 C.ar      1 RES1    0.0000
      9 H3         1.3350    1.0802    2.8966 H         1 RES1    0.0000
     10 N1         1.7709    3.6587    2.4782 N.2       1 RES1    0.0000
     11 C7         1.1408    3.2657    1.5070 C.2       1 RES1    0.0000
     12 C8         0.4093    2.9848    0.4576 C.2       1 RES1    0.0000
     13 C9         1.0184    2.8592   -0.8648 C.2       1 RES1    0.0000
     14 H4         0.4622    3.0666   -1.6133 H         1 RES1    0.0000
     15 C10        2.2362    2.4196   -1.1826 C.2       1 RES1    0.0000
     16 C11        3.0914    1.9589   -0.1231 C.1       1 RES1    0.0000
     17 N2         3.7982    1.5934    0.6993 N.1       1 RES1    0.0000
     18 N3         2.2492   -0.7662    4.5133 N.pl3     1 RES1    0.0000
     19 O1         1.3847   -1.1612    3.7693 O.2       1 RES1    0.0000
     20 O2         2.8215   -1.4434    5.3445 O.2       1 RES1    0.0000
     21 C12        3.7798    4.7601    4.1250 C.3       1 RES1    0.0000
     22 H5         4.6282    4.9066    4.7773 H         1 RES1    0.0000
     23 H6         2.9753    5.4136    4.4282 H         1 RES1    0.0000
     24 H7         4.0642    4.9873    3.1080 H         1 RES1    0.0000
     25 C13       -1.1051    2.7654    0.6109 C.3       1 RES1    0.0000
     26 C14       -1.8449    3.9038   -0.1164 C.3       1 RES1    0.0000
     27 H8        -1.6324    3.8791   -1.1747 H         1 RES1    0.0000
     28 H9        -1.5801    4.8718    0.2808 H         1 RES1    0.0000
     29 H10       -2.8972    3.7239    0.0436 H         1 RES1    0.0000
     30 C15       -1.4747    1.4195    0.0000 C.3       1 RES1    0.0000
     31 H11       -1.2124    1.3432   -1.0450 H         1 RES1    0.0000
     32 H12       -2.5371    1.2650    0.1175 H         1 RES1    0.0000
     33 H13       -0.9374    0.6705    0.5616 H         1 RES1    0.0000
     34 C16       -1.5121    2.7769    2.0843 C.3       1 RES1    0.0000
     35 H14       -1.2441    3.7087    2.5587 H         1 RES1    0.0000
     36 H15       -0.9972    1.9633    2.5733 H         1 RES1    0.0000
     37 H16       -2.5790    2.6260    2.1627 H         1 RES1    0.0000
     38 C17        2.8100    2.2946   -2.5889 C.3       1 RES1    0.0000
     39 C18        4.2134    2.9092   -2.6303 C.3       1 RES1    0.0000
     40 H17        4.9191    2.4366   -1.9624 H         1 RES1    0.0000
     41 H18        4.1375    3.9589   -2.3898 H         1 RES1    0.0000
     42 H19        4.5516    2.7966   -3.6495 H         1 RES1    0.0000
     43 C19        2.9019    0.8076   -2.9469 C.3       1 RES1    0.0000
     44 H20        3.3072    0.6721   -3.9393 H         1 RES1    0.0000
     45 H21        1.9118    0.3774   -2.9022 H         1 RES1    0.0000
     46 H22        3.5406    0.3172   -2.2275 H         1 RES1    0.0000
     47 C20        1.9333    2.9953   -3.6104 C.3       1 RES1    0.0000
     48 H23        2.4273    2.9369   -4.5692 H         1 RES1    0.0000
     49 H24        1.8149    4.0309   -3.3296 H         1 RES1    0.0000
     50 H25        0.9623    2.5269   -3.6775 H         1 RES1    0.0000
@<TRIPOS>BOND
     1    1    2 ar
     2    2    3 ar
     3    3    4 1
     4    5    3 ar
     5    6    5 1
     6    7    5 ar
     7    8    1 ar
     8    9    8 1
     9   10    1 1
    10   11   10 2
    11   12   11 2
    12   13   12 1
    13   14   13 1
    14   15   13 2
    15   16   15 1
    16   17   16 3
    17   18    7 1
    18   19   18 2
    19   20   18 2
    20   21    2 1
    21   22   21 1
    22   23   21 1
    23   24   21 1
    24   25   12 1
    25   26   25 1
    26   27   26 1
    27   28   26 1
    28   29   26 1
    29   30   25 1
    30   31   30 1
    31   32   30 1
    32   33   30 1
    33   34   25 1
    34   35   34 1
    35   36   34 1
    36   37   34 1
    37   38   15 1
    38   39   38 1
    39   40   39 1
    40   41   39 1
    41   42   39 1
    42   43   38 1
    43   44   43 1
    44   45   43 1
    45   46   43 1
    46   47   38 1
    47   48   47 1
    48   49   47 1
    49   50   47 1
    50    7    8 ar
@<TRIPOS>SUBSTRUCTURE
     1 RES1 1

@<TRIPOS>CRYSIN
   8.8710   10.0760   12.1030  71.8700  74.1700  79.6700   2 1

