# MOL2 file generated by ConQuest
# Please check atom types

@<TRIPOS>MOLECULE
WIKCIE
    16    16     1
SMALL
NO_CHARGES
****
Generated from CSD

@<TRIPOS>ATOM
      1 C1         0.6451    3.7306    1.8392 C.2       1 RES1    0.0000
      2 C2         0.4926    2.4411    1.1058 C.3       1 RES1    0.0000
      3 N1        -0.3195    4.2575    2.5777 N.2       1 RES1    0.0000
      4 N2         0.2814    5.3458    3.0293 N.3       1 RES1    0.0000
      5 N3         1.5282    5.4997    2.6199 N.2       1 RES1    0.0000
      6 N4         1.7842    4.4583    1.8499 N.2       1 RES1    0.0000
      7 N5         0.7435    2.5672   -0.4074 N.pl3     1 RES1    0.0000
      8 N6        -0.9118    1.8662    1.3076 N.pl3     1 RES1    0.0000
      9 N7         1.4868    1.3720    1.6114 N.pl3     1 RES1    0.0000
     10 O1         1.6972    3.2663   -0.7082 O.2       1 RES1    0.0000
     11 O2         0.0132    1.9439   -1.1471 O.2       1 RES1    0.0000
     12 O3        -0.9981    0.8026    1.8742 O.2       1 RES1    0.0000
     13 O4        -1.8144    2.5623    0.8701 O.2       1 RES1    0.0000
     14 O5         1.8267    1.4957    2.7701 O.2       1 RES1    0.0000
     15 O6         1.7915    0.5106    0.8134 O.2       1 RES1    0.0000
     16 H1        -0.1504    5.9041    3.5701 H         1 RES1    0.0000
@<TRIPOS>BOND
     1    1    2 1
     2    2    7 1
     3    3    1 2
     4    4    3 1
     5    5    4 1
     6    6    1 1
     7    7   10 2
     8    8    2 1
     9    9    2 1
    10   11    7 2
    11   12    8 2
    12   13    8 2
    13   14    9 2
    14   15    9 2
    15   16    4 1
    16    5    6 2
@<TRIPOS>SUBSTRUCTURE
     1 RES1 1

@<TRIPOS>CRYSIN
   5.9141   21.5244    6.0357  90.0000  99.0760  90.0000 231 1

