# MOL2 file generated by ConQuest
# Please check atom types

@<TRIPOS>MOLECULE
WIKZEV
    44    45     1
SMALL
NO_CHARGES
****
Generated from CSD

@<TRIPOS>ATOM
      1 C1         4.2113    1.4277    2.6191 C.3       1 RES1    0.0000
      2 C2         5.1646    0.2245    2.7533 C.3       1 RES1    0.0000
      3 C3         6.3982    0.6120    3.5254 C.3       1 RES1    0.0000
      4 C4         7.2740    1.6640    2.8299 C.3       1 RES1    0.0000
      5 C5         6.8964    4.1373    2.1631 C.ar      1 RES1    0.0000
      6 C6         6.0940    5.2421    1.9332 C.ar      1 RES1    0.0000
      7 C7         4.7057    5.1389    1.9141 C.ar      1 RES1    0.0000
      8 C8         4.2146    3.8666    2.1181 C.ar      1 RES1    0.0000
      9 C9         4.9813    2.7433    2.3816 C.ar      1 RES1    0.0000
     10 C10        6.3948    2.8540    2.4419 C.ar      1 RES1    0.0000
     11 C11        3.3751    1.6028    3.9019 C.3       1 RES1    0.0000
     12 C12        3.2855    1.1708    1.4245 C.3       1 RES1    0.0000
     13 C13        4.5273   -1.0259    3.3760 C.3       1 RES1    0.0000
     14 C14        8.3504    2.0357    3.8703 C.3       1 RES1    0.0000
     15 C15        7.9320    1.0251    1.5883 C.3       1 RES1    0.0000
     16 C16        3.7623    6.2840    1.6669 C.3       1 RES1    0.0000
     17 N1         6.7131    6.5515    1.6774 N.pl3     1 RES1    0.0000
     18 N2         8.3482    4.4054    2.1631 N.pl3     1 RES1    0.0000
     19 O1         7.5927    6.6148    0.8306 O.2       1 RES1    0.0000
     20 O2         6.3066    7.5059    2.3241 O.2       1 RES1    0.0000
     21 O3         8.7886    5.1360    3.0378 O.2       1 RES1    0.0000
     22 O4         9.0223    3.9028    1.2684 O.2       1 RES1    0.0000
     23 H1         5.4927   -0.0024    1.7819 H         1 RES1    0.0000
     24 H2         3.2225    3.7882    2.0501 H         1 RES1    0.0000
     25 H3         6.0550    0.9649    4.4642 H         1 RES1    0.0000
     26 H4         6.9757   -0.2700    3.7170 H         1 RES1    0.0000
     27 H5         2.8227    0.8544    4.0044 H         1 RES1    0.0000
     28 H6         3.9825    1.8717    4.7037 H         1 RES1    0.0000
     29 H7         2.8178    2.4048    3.8224 H         1 RES1    0.0000
     30 H8         3.8238    1.1758    0.5940 H         1 RES1    0.0000
     31 H9         2.8392    0.2824    1.4657 H         1 RES1    0.0000
     32 H10        2.6423    1.8883    1.3316 H         1 RES1    0.0000
     33 H11        5.1931   -1.8301    3.2955 H         1 RES1    0.0000
     34 H12        4.2889   -0.9009    4.4068 H         1 RES1    0.0000
     35 H13        3.6772   -1.2814    2.9123 H         1 RES1    0.0000
     36 H14        7.9301    2.5644    4.5984 H         1 RES1    0.0000
     37 H15        8.7344    1.1670    4.2152 H         1 RES1    0.0000
     38 H16        9.0084    2.6042    3.5446 H         1 RES1    0.0000
     39 H17        8.3778    0.1680    1.8681 H         1 RES1    0.0000
     40 H18        7.2356    0.7493    0.8239 H         1 RES1    0.0000
     41 H19        8.5561    1.6607    1.2454 H         1 RES1    0.0000
     42 H20        2.9336    5.9650    1.1975 H         1 RES1    0.0000
     43 H21        3.8292    6.9542    2.3375 H         1 RES1    0.0000
     44 H22        4.0114    6.8840    1.0634 H         1 RES1    0.0000
@<TRIPOS>BOND
     1    1    2 1
     2    2    3 1
     3    3    4 1
     4    4   10 1
     5    5    6 ar
     6    6    7 ar
     7    7    8 ar
     8    8    9 ar
     9    9    1 1
    10   10    5 ar
    11   11    1 1
    12   12    1 1
    13   13    2 1
    14   14    4 1
    15   15    4 1
    16   16    7 1
    17   17    6 1
    18   18    5 1
    19   19   17 2
    20   20   17 2
    21   21   18 2
    22   22   18 2
    23   23    2 1
    24   24    8 1
    25   25    3 1
    26   26    3 1
    27   27   11 1
    28   28   11 1
    29   29   11 1
    30   30   12 1
    31   31   12 1
    32   32   12 1
    33   33   13 1
    34   34   13 1
    35   35   13 1
    36   36   14 1
    37   37   14 1
    38   38   14 1
    39   39   15 1
    40   40   15 1
    41   41   15 1
    42   42   16 1
    43   43   16 1
    44   44   16 1
    45    9   10 ar
@<TRIPOS>SUBSTRUCTURE
     1 RES1 1

@<TRIPOS>CRYSIN
   8.7422   10.2027   10.4811  94.6370 110.0630 110.7650   2 1

