# MOL2 file generated by ConQuest
# Please check atom types

@<TRIPOS>MOLECULE
WILBAU
    35    35     1
SMALL
NO_CHARGES
****
Generated from CSD

@<TRIPOS>ATOM
      1 N1         2.4006    3.7289    5.2745 N.3       1 RES1    0.0000
      2 N2         3.6863    3.2980    5.3817 N.2       1 RES1    0.0000
      3 C1         3.7947    2.2333    4.5914 C.2       1 RES1    0.0000
      4 C2         2.5302    2.0130    3.9950 C.2       1 RES1    0.0000
      5 C3         1.6475    2.9768    4.4661 C.2       1 RES1    0.0000
      6 C4         0.1708    3.2595    4.2323 C.3       1 RES1    0.0000
      7 C5        -0.6652    2.1948    4.9468 C.3       1 RES1    0.0000
      8 C6        -0.1290    3.2682    2.7252 C.3       1 RES1    0.0000
      9 C7        -0.1934    4.6301    4.8046 C.3       1 RES1    0.0000
     10 N3         2.2292    1.0166    3.0035 N.pl3     1 RES1    0.0000
     11 O1         1.2189    0.3462    3.1264 O.2       1 RES1    0.0000
     12 O2         2.9931    0.8868    2.0650 O.2       1 RES1    0.0000
     13 C8         5.0914    1.4417    4.5203 C.3       1 RES1    0.0000
     14 C9         5.8843    1.8601    3.2758 C.3       1 RES1    0.0000
     15 C10        5.9327    1.7284    5.7588 C.3       1 RES1    0.0000
     16 C11        4.8173   -0.0616    4.4697 C.3       1 RES1    0.0000
     17 H1         2.1681    4.4050    5.6865 H         1 RES1    0.0000
     18 H2        -1.6009    2.4045    4.8070 H         1 RES1    0.0000
     19 H3        -0.4609    1.2984    4.6383 H         1 RES1    0.0000
     20 H4        -0.4347    2.2410    5.9033 H         1 RES1    0.0000
     21 H5         0.0521    2.4045    2.3011 H         1 RES1    0.0000
     22 H6        -1.0564    3.4432    2.6023 H         1 RES1    0.0000
     23 H7         0.4412    3.9915    2.2168 H         1 RES1    0.0000
     24 H8        -1.1738    4.7609    4.6383 H         1 RES1    0.0000
     25 H9        -0.0562    4.6455    5.8190 H         1 RES1    0.0000
     26 H10        0.3766    5.3572    4.3853 H         1 RES1    0.0000
     27 H11        6.0939    2.8373    3.3251 H         1 RES1    0.0000
     28 H12        5.3340    1.7120    2.5180 H         1 RES1    0.0000
     29 H13        6.7266    1.3946    3.2770 H         1 RES1    0.0000
     30 H14        5.3955    1.5485    6.5298 H         1 RES1    0.0000
     31 H15        6.1618    2.6642    5.8070 H         1 RES1    0.0000
     32 H16        6.7811    1.2311    5.7347 H         1 RES1    0.0000
     33 H17        4.3604   -0.2789    3.6504 H         1 RES1    0.0000
     34 H18        4.2591   -0.3462    5.1443 H         1 RES1    0.0000
     35 H19        5.6696   -0.5290    4.4697 H         1 RES1    0.0000
@<TRIPOS>BOND
     1    1    2 1
     2    2    3 2
     3    3    4 1
     4    4    5 2
     5    5    1 1
     6    6    5 1
     7    7    6 1
     8    8    6 1
     9    9    6 1
    10   10    4 1
    11   11   10 2
    12   12   10 2
    13   13    3 1
    14   14   13 1
    15   15   13 1
    16   16   13 1
    17   17    1 1
    18   18    7 1
    19   19    7 1
    20   20    7 1
    21   21    8 1
    22   22    8 1
    23   23    8 1
    24   24    9 1
    25   25    9 1
    26   26    9 1
    27   27   14 1
    28   28   14 1
    29   29   14 1
    30   30   15 1
    31   31   15 1
    32   32   15 1
    33   33   16 1
    34   34   16 1
    35   35   16 1
@<TRIPOS>SUBSTRUCTURE
     1 RES1 1

@<TRIPOS>CRYSIN
  10.6407    9.6180   12.6649  90.0000 107.9620  90.0000  14 1

