# MOL2 file generated by ConQuest
# Please check atom types

@<TRIPOS>MOLECULE
WILJIL
    36    35     1
SMALL
NO_CHARGES
****
Generated from CSD

@<TRIPOS>ATOM
      1 O1        20.5524   11.0900    0.8574 O.3       1 RES1    0.0000
      2 H1        21.0114   11.1302    1.5471 H         1 RES1    0.0000
      3 N1        16.2967   10.0952    1.1852 N.3       1 RES1    0.0000
      4 H2        16.8274   10.2561    1.8551 H         1 RES1    0.0000
      5 N2        19.2795   11.6710    1.1010 N.2       1 RES1    0.0000
      6 N3        17.8223    7.6860    3.2879 N.2       1 RES1    0.0000
      7 C1        15.4500    8.9208    1.1058 C.3       1 RES1    0.0000
      8 H3        15.6580    8.4302    0.2833 H         1 RES1    0.0000
      9 H4        14.5139    9.2052    1.0565 H         1 RES1    0.0000
     10 O2        19.1157    7.1802    3.0395 O.3       1 RES1    0.0000
     11 H5        19.5953    7.3094    3.7053 H         1 RES1    0.0000
     12 C2        17.0505    7.5126    2.3074 C.2       1 RES1    0.0000
     13 H6        17.3790    7.0666    1.5485 H         1 RES1    0.0000
     14 C3        17.1284   12.1725    0.1081 C.3       1 RES1    0.0000
     15 C4        15.6269    7.9885    2.2998 C.3       1 RES1    0.0000
     16 C5        18.5363   11.6296    0.0828 C.2       1 RES1    0.0000
     17 H7        18.8669   11.2506   -0.7110 H         1 RES1    0.0000
     18 C6        16.1731   10.9746    0.0411 C.3       1 RES1    0.0000
     19 H8        15.2520   11.3031   -0.0116 H         1 RES1    0.0000
     20 H9        16.3573   10.4639   -0.7760 H         1 RES1    0.0000
     21 C7        16.8709   13.0033    1.3631 C.3       1 RES1    0.0000
     22 H10       16.9964   12.4491    2.1493 H         1 RES1    0.0000
     23 H11       15.9610   13.3387    1.3473 H         1 RES1    0.0000
     24 H12       17.4917   13.7486    1.3898 H         1 RES1    0.0000
     25 C8        16.9280   13.0431   -1.1434 C.3       1 RES1    0.0000
     26 H13       17.5266   13.8069   -1.1058 H         1 RES1    0.0000
     27 H14       16.0096   13.3543   -1.1776 H         1 RES1    0.0000
     28 H15       17.1226   12.5190   -1.9365 H         1 RES1    0.0000
     29 C9        14.7239    6.7688    2.0918 C.3       1 RES1    0.0000
     30 H16       14.9607    6.3285    1.2604 H         1 RES1    0.0000
     31 H17       13.7972    7.0549    2.0542 H         1 RES1    0.0000
     32 H18       14.8422    6.1498    2.8295 H         1 RES1    0.0000
     33 C10       15.2573    8.6930    3.6027 C.3       1 RES1    0.0000
     34 H19       15.8270    9.4694    3.7231 H         1 RES1    0.0000
     35 H20       15.3802    8.0825    4.3465 H         1 RES1    0.0000
     36 H21       14.3294    8.9741    3.5657 H         1 RES1    0.0000
@<TRIPOS>BOND
     1    1    2 1
     2    3    4 1
     3    5    1 1
     4    6   10 1
     5    7    3 1
     6    8    7 1
     7    9    7 1
     8   10   11 1
     9   12    6 2
    10   13   12 1
    11   14   16 1
    12   15    7 1
    13   16    5 2
    14   17   16 1
    15   18    3 1
    16   19   18 1
    17   20   18 1
    18   21   14 1
    19   22   21 1
    20   23   21 1
    21   24   21 1
    22   25   14 1
    23   26   25 1
    24   27   25 1
    25   28   25 1
    26   29   15 1
    27   30   29 1
    28   31   29 1
    29   32   29 1
    30   33   15 1
    31   34   33 1
    32   35   33 1
    33   36   33 1
    34   12   15 1
    35   14   18 1
@<TRIPOS>SUBSTRUCTURE
     1 RES1 1

@<TRIPOS>CRYSIN
  19.4244   19.4244    6.8427  90.0000  90.0000  90.0000  86 1

