# MOL2 file generated by ConQuest
# Please check atom types

@<TRIPOS>MOLECULE
WIMDAX
   109   113     1
SMALL
NO_CHARGES
****
Generated from CSD

@<TRIPOS>ATOM
      1 O1         7.6155    2.9116    7.7095 O.3       1 RES1    0.0000
      2 O2         5.4076    3.0891    9.4599 O.3       1 RES1    0.0000
      3 O3        10.3330    4.7364    8.8281 O.3       1 RES1    0.0000
      4 O4         8.7636    4.3648   11.3220 O.3       1 RES1    0.0000
      5 O5        11.3202    4.4282   10.9246 O.3       1 RES1    0.0000
      6 O6        12.0474   -0.1966    8.9576 O.2       1 RES1    0.0000
      7 O7        13.0394    0.1534   10.8531 O.2       1 RES1    0.0000
      8 O8        14.8386    2.0340    9.8797 O.2       1 RES1    0.0000
      9 O9        15.5993    5.2778   10.0895 O.2       1 RES1    0.0000
     10 O10       15.7700    4.3597    8.1694 O.2       1 RES1    0.0000
     11 O11       10.5968    7.7215    7.4661 O.3       1 RES1    0.0000
     12 O12        8.6951    9.5704    8.2677 O.3       1 RES1    0.0000
     13 O13        8.2872    5.8358    6.0082 O.3       1 RES1    0.0000
     14 O14        5.2981    6.0374    6.1980 O.3       1 RES1    0.0000
     15 N1        12.5262    0.5440    9.8105 N.pl3     1 RES1    0.0000
     16 N2        15.1532    4.6298    9.1875 N.pl3     1 RES1    0.0000
     17 C1         7.3621    3.4505    4.8985 C.3       1 RES1    0.0000
     18 C2        10.0342    2.0277    8.9777 C.3       1 RES1    0.0000
     19 C3        12.7092    6.2226    8.6338 C.3       1 RES1    0.0000
     20 C4         9.9384    7.7100    4.6351 C.3       1 RES1    0.0000
     21 C5         8.5653    2.7784    5.5281 C.ar      1 RES1    0.0000
     22 C6         8.6821    2.5844    6.8968 C.ar      1 RES1    0.0000
     23 C7         9.8757    2.1215    7.4684 C.ar      1 RES1    0.0000
     24 C8        10.9052    1.7512    6.6199 C.ar      1 RES1    0.0000
     25 C9        10.7841    1.8552    5.2558 C.ar      1 RES1    0.0000
     26 C10        9.6267    2.3916    4.7177 C.ar      1 RES1    0.0000
     27 C11       11.3536    2.6579    9.3483 C.2       1 RES1    0.0000
     28 C12       11.3862    4.1797    9.5291 C.3       1 RES1    0.0000
     29 C13       12.7179    4.8074    9.1496 C.2       1 RES1    0.0000
     30 C14       13.7943    4.0795    9.3483 C.2       1 RES1    0.0000
     31 C15       13.8069    2.6465    9.6810 C.2       1 RES1    0.0000
     32 C16       12.4848    2.0061    9.6140 C.2       1 RES1    0.0000
     33 C17       12.4481    6.2403    7.1379 C.ar      1 RES1    0.0000
     34 C18       11.4135    7.0189    6.6043 C.ar      1 RES1    0.0000
     35 C19       11.1426    7.0164    5.2312 C.ar      1 RES1    0.0000
     36 C20       11.9725    6.2809    4.4252 C.ar      1 RES1    0.0000
     37 C21       13.0044    5.5353    4.9231 C.ar      1 RES1    0.0000
     38 C22       13.2210    5.4934    6.2828 C.ar      1 RES1    0.0000
     39 C23        9.1037    6.6880    3.9228 C.ar      1 RES1    0.0000
     40 C24        8.3765    5.7267    4.6351 C.ar      1 RES1    0.0000
     41 C25        7.8519    4.5931    4.0456 C.ar      1 RES1    0.0000
     42 C26        7.9257    4.5043    2.6591 C.ar      1 RES1    0.0000
     43 C27        8.5528    5.4845    1.8866 C.ar      1 RES1    0.0000
     44 C28        9.1530    6.5472    2.5386 C.ar      1 RES1    0.0000
     45 C29        6.8550    1.7652    8.0935 C.3       1 RES1    0.0000
     46 C30        5.4803    2.1203    8.4373 C.3       1 RES1    0.0000
     47 C31        4.1127    3.3123    9.9466 C.3       1 RES1    0.0000
     48 C32        4.0995    4.5373   10.7906 C.3       1 RES1    0.0000
     49 C33        9.4656    5.6849    9.4644 C.3       1 RES1    0.0000
     50 C34        8.3087    5.0597   10.1543 C.3       1 RES1    0.0000
     51 C35        7.7582    3.5989   12.0052 C.3       1 RES1    0.0000
     52 C36        8.4301    2.7949   13.0568 C.3       1 RES1    0.0000
     53 C37       10.8996    9.1012    7.6581 C.3       1 RES1    0.0000
     54 C38        9.9410    9.6540    8.7343 C.3       1 RES1    0.0000
     55 C39        7.4522    9.7859    9.2701 C.3       1 RES1    0.0000
     56 C40        7.2084   11.0629    9.3706 C.3       1 RES1    0.0000
     57 C41        7.4774    6.9213    6.4971 C.3       1 RES1    0.0000
     58 C42        6.2518    6.4242    7.1669 C.3       1 RES1    0.0000
     59 C43        4.0882    5.5923    6.7852 C.3       1 RES1    0.0000
     60 C44        3.1589    5.1700    5.7045 C.3       1 RES1    0.0000
     61 H1         6.7972    3.7837    5.5868 H         1 RES1    0.0000
     62 H2         6.8785    2.8317    4.3642 H         1 RES1    0.0000
     63 H3        10.0182    1.1188    9.2522 H         1 RES1    0.0000
     64 H4         9.3285    2.5005    9.4029 H         1 RES1    0.0000
     65 H5        13.5564    6.6181    8.8048 H         1 RES1    0.0000
     66 H6        12.0324    6.7181    9.0769 H         1 RES1    0.0000
     67 H7        10.2184    8.3846    4.0283 H         1 RES1    0.0000
     68 H8         9.4249    8.1041    5.3320 H         1 RES1    0.0000
     69 H9        11.7172    1.4185    6.9825 H         1 RES1    0.0000
     70 H10       11.4850    1.5706    4.6810 H         1 RES1    0.0000
     71 H11        9.5662    2.4978    3.7755 H         1 RES1    0.0000
     72 H12       11.8284    6.2850    3.4855 H         1 RES1    0.0000
     73 H13       13.5816    5.0563    4.3390 H         1 RES1    0.0000
     74 H14       13.9111    4.9369    6.6236 H         1 RES1    0.0000
     75 H15        7.5464    3.7551    2.2151 H         1 RES1    0.0000
     76 H16        8.5712    5.4179    0.9385 H         1 RES1    0.0000
     77 H17        9.6170    7.1900    2.0137 H         1 RES1    0.0000
     78 H18        7.2594    1.3674    8.8558 H         1 RES1    0.0000
     79 H19        6.8555    1.1452    7.3743 H         1 RES1    0.0000
     80 H20        5.0625    2.4717    7.6594 H         1 RES1    0.0000
     81 H21        5.0138    1.3437    8.7238 H         1 RES1    0.0000
     82 H22        3.8447    2.5659   10.4690 H         1 RES1    0.0000
     83 H23        3.5127    3.4203    9.2170 H         1 RES1    0.0000
     84 H24        3.2267    4.6951   11.1315 H         1 RES1    0.0000
     85 H25        4.7050    4.4232   11.5150 H         1 RES1    0.0000
     86 H26        4.3730    5.2776   10.2631 H         1 RES1    0.0000
     87 H27        9.1540    6.2941    8.8052 H         1 RES1    0.0000
     88 H28        9.9688    6.1572   10.1183 H         1 RES1    0.0000
     89 H29        7.8935    4.4479    9.5582 H         1 RES1    0.0000
     90 H30        7.6824    5.7267   10.4113 H         1 RES1    0.0000
     91 H31        7.3241    3.0177   11.3922 H         1 RES1    0.0000
     92 H32        7.1191    4.1817   12.3975 H         1 RES1    0.0000
     93 H33        7.7965    2.2712   13.5332 H         1 RES1    0.0000
     94 H34        8.8675    3.3868   13.6571 H         1 RES1    0.0000
     95 H35        9.0725    2.2228   12.6518 H         1 RES1    0.0000
     96 H36       10.3469    4.1143   11.3108 H         1 RES1    0.0000
     97 H37       10.7425    9.5773    6.8510 H         1 RES1    0.0000
     98 H38       11.8073    9.2053    7.9161 H         1 RES1    0.0000
     99 H39       10.1594   10.5549    8.9437 H         1 RES1    0.0000
    100 H40       10.0258    9.1178    9.5135 H         1 RES1    0.0000
    101 H41        7.2098    7.4589    5.7600 H         1 RES1    0.0000
    102 H42        7.9916    7.4452    7.1000 H         1 RES1    0.0000
    103 H43        6.4847    5.6670    7.6931 H         1 RES1    0.0000
    104 H44        5.8831    7.0968    7.7284 H         1 RES1    0.0000
    105 H45        4.2575    4.8650    7.3719 H         1 RES1    0.0000
    106 H46        3.6942    6.3072    7.2698 H         1 RES1    0.0000
    107 H47        3.5660    4.4606    5.2224 H         1 RES1    0.0000
    108 H48        2.3333    4.8736    6.0692 H         1 RES1    0.0000
    109 H49        3.0027    5.9028    5.1203 H         1 RES1    0.0000
@<TRIPOS>BOND
     1    1   22 1
     2    2   46 1
     3    3   28 1
     4    4   50 1
     5    5   28 1
     6    6   15 2
     7    7   15 2
     8    8   31 2
     9    9   16 2
    10   10   16 2
    11   11   34 1
    12   12   54 1
    13   13   40 1
    14   14   58 1
    15   15   32 1
    16   16   30 1
    17   17   21 1
    18   18   23 1
    19   19   29 1
    20   20   35 1
    21   21   22 ar
    22   22   23 ar
    23   23   24 ar
    24   24   25 ar
    25   25   26 ar
    26   26   21 ar
    27   27   18 1
    28   28   27 1
    29   29   28 1
    30   30   29 2
    31   31   30 1
    32   32   27 2
    33   33   19 1
    34   34   33 ar
    35   35   34 ar
    36   36   35 ar
    37   37   36 ar
    38   38   33 ar
    39   39   20 1
    40   40   39 ar
    41   41   17 1
    42   42   41 ar
    43   43   42 ar
    44   44   39 ar
    45   45    1 1
    46   46   45 1
    47   47    2 1
    48   48   47 1
    49   49    3 1
    50   50   49 1
    51   51    4 1
    52   52   51 1
    53   53   11 1
    54   54   53 1
    55   55   12 1
    56   56   55 1
    57   57   13 1
    58   58   57 1
    59   59   14 1
    60   60   59 1
    61   61   17 1
    62   62   17 1
    63   63   18 1
    64   64   18 1
    65   65   19 1
    66   66   19 1
    67   67   20 1
    68   68   20 1
    69   69   24 1
    70   70   25 1
    71   71   26 1
    72   72   36 1
    73   73   37 1
    74   74   38 1
    75   75   42 1
    76   76   43 1
    77   77   44 1
    78   78   45 1
    79   79   45 1
    80   80   46 1
    81   81   46 1
    82   82   47 1
    83   83   47 1
    84   84   48 1
    85   85   48 1
    86   86   48 1
    87   87   49 1
    88   88   49 1
    89   89   50 1
    90   90   50 1
    91   91   51 1
    92   92   51 1
    93   93   52 1
    94   94   52 1
    95   95   52 1
    96   96    5 1
    97   97   53 1
    98   98   53 1
    99   99   54 1
   100  100   54 1
   101  101   57 1
   102  102   57 1
   103  103   58 1
   104  104   58 1
   105  105   59 1
   106  106   59 1
   107  107   60 1
   108  108   60 1
   109  109   60 1
   110   31   32 1
   111   37   38 ar
   112   40   41 ar
   113   43   44 ar
@<TRIPOS>SUBSTRUCTURE
     1 RES1 1

@<TRIPOS>CRYSIN
  14.9460   12.6810   23.3040  90.0000 106.6500  90.0000  14 1

