# MOL2 file generated by ConQuest
# Please check atom types

@<TRIPOS>MOLECULE
WINCAZ
    50    53     1
SMALL
NO_CHARGES
****
Generated from CSD

@<TRIPOS>ATOM
      1 N1         0.6616   12.6462    6.9775 N.pl3     1 RES1    0.0000
      2 C1         0.8358   14.1105    7.0498 C.3       1 RES1    0.0000
      3 H1         0.9712   14.3977    7.9658 H         1 RES1    0.0000
      4 H2         0.0619   14.5688    6.6878 H         1 RES1    0.0000
      5 C2         2.0770   14.3837    6.2046 C.3       1 RES1    0.0000
      6 C3         2.0894   13.1630    5.2461 C.3       1 RES1    0.0000
      7 H3         1.6578   13.3796    4.4049 H         1 RES1    0.0000
      8 H4         2.9970   12.8720    5.0690 H         1 RES1    0.0000
      9 C4         1.3268   12.1128    5.9808 C.2       1 RES1    0.0000
     10 C5         3.3149   14.3776    7.0835 C.3       1 RES1    0.0000
     11 H5         4.0949   14.5004    6.5373 H         1 RES1    0.0000
     12 H6         3.3759   13.5379    7.5439 H         1 RES1    0.0000
     13 H7         3.2568   15.0907    7.7237 H         1 RES1    0.0000
     14 C6         1.9706   15.7136    5.4683 C.3       1 RES1    0.0000
     15 H8         1.8758   16.4254    6.1050 H         1 RES1    0.0000
     16 H9         1.2047   15.6982    4.8892 H         1 RES1    0.0000
     17 H10        2.7635   15.8550    4.9462 H         1 RES1    0.0000
     18 C7         1.2416   10.7125    5.6984 C.2       1 RES1    0.0000
     19 H11        0.7206   10.1855    6.2606 H         1 RES1    0.0000
     20 C8         1.8656   10.1116    4.6730 C.2       1 RES1    0.0000
     21 H12        2.3506   10.6646    4.1040 H         1 RES1    0.0000
     22 C9         1.8682    8.7028    4.3537 C.2       1 RES1    0.0000
     23 C10        2.5340    8.1614    3.2605 C.2       1 RES1    0.0000
     24 N2         2.4628    6.7852    3.3095 N.3       1 RES1    0.0000
     25 C11        1.7246    6.4183    4.4137 C.ar      1 RES1    0.0000
     26 C12        1.3276    7.5887    5.1008 C.ar      1 RES1    0.0000
     27 C13        0.5759    7.4458    6.2708 C.ar      1 RES1    0.0000
     28 H13        0.3077    8.1949    6.7500 H         1 RES1    0.0000
     29 C14        0.2372    6.1824    6.7053 C.ar      1 RES1    0.0000
     30 H14       -0.2706    6.0873    7.4781 H         1 RES1    0.0000
     31 C15        0.6393    5.0510    6.0102 C.ar      1 RES1    0.0000
     32 H15        0.4005    4.2108    6.3315 H         1 RES1    0.0000
     33 C16        1.3827    5.1445    4.8582 C.ar      1 RES1    0.0000
     34 H16        1.6469    4.3848    4.3928 H         1 RES1    0.0000
     35 C17        2.9724    5.8438    2.3159 C.3       1 RES1    0.0000
     36 H17        3.6171    5.2631    2.7273 H         1 RES1    0.0000
     37 H18        3.3898    6.3283    1.5997 H         1 RES1    0.0000
     38 H19        2.2454    5.3216    1.9681 H         1 RES1    0.0000
     39 C18        3.2057    8.8839    2.1608 C.ar      1 RES1    0.0000
     40 C19        4.5706    8.7536    1.9055 C.ar      1 RES1    0.0000
     41 H20        5.0831    8.1749    2.4230 H         1 RES1    0.0000
     42 C20        5.1703    9.4747    0.8912 C.ar      1 RES1    0.0000
     43 H21        6.0821    9.3813    0.7350 H         1 RES1    0.0000
     44 C21        4.4341   10.3212    0.1166 C.ar      1 RES1    0.0000
     45 H22        4.8450   10.8058   -0.5621 H         1 RES1    0.0000
     46 C22        3.0876   10.4577    0.3395 C.ar      1 RES1    0.0000
     47 H23        2.5856   11.0311   -0.1937 H         1 RES1    0.0000
     48 C23        2.4683    9.7436    1.3581 C.ar      1 RES1    0.0000
     49 H24        1.5542    9.8418    1.5029 H         1 RES1    0.0000
     50 O1        -0.1243   12.0408    7.8083 O.2       1 RES1    0.0000
@<TRIPOS>BOND
     1    1    2 1
     2    2    3 1
     3    4    2 1
     4    5    2 1
     5    6    5 1
     6    7    6 1
     7    8    6 1
     8    9    1 2
     9   10    5 1
    10   11   10 1
    11   12   10 1
    12   13   10 1
    13   14    5 1
    14   15   14 1
    15   16   14 1
    16   17   14 1
    17   18    9 1
    18   19   18 1
    19   20   18 2
    20   21   20 1
    21   22   20 1
    22   23   22 2
    23   24   23 1
    24   25   24 1
    25   26   22 1
    26   27   26 ar
    27   28   27 1
    28   29   27 ar
    29   30   29 1
    30   31   29 ar
    31   32   31 1
    32   33   25 ar
    33   34   33 1
    34   35   24 1
    35   36   35 1
    36   37   35 1
    37   38   35 1
    38   39   23 1
    39   40   39 ar
    40   41   40 1
    41   42   40 ar
    42   43   42 1
    43   44   42 ar
    44   45   44 1
    45   46   44 ar
    46   47   46 1
    47   48   39 ar
    48   49   48 1
    49   50    1 1
    50    6    9 1
    51   25   26 ar
    52   31   33 ar
    53   46   48 ar
@<TRIPOS>SUBSTRUCTURE
     1 RES1 1

@<TRIPOS>CRYSIN
  15.4643   14.2594   17.2945  90.0000  90.0000  90.0000  61 1

