# MOL2 file generated by ConQuest
# Please check atom types

@<TRIPOS>MOLECULE
WINCIH
    39    41     1
SMALL
NO_CHARGES
****
Generated from CSD

@<TRIPOS>ATOM
      1 N1         5.7413    0.7007    0.8359 N.pl3     1 RES1    0.0000
      2 C1         5.6412   -0.5699    0.0835 C.3       1 RES1    0.0000
      3 H1         6.0628   -1.3115    0.5848 H         1 RES1    0.0000
      4 H2         6.0782   -0.4914   -0.8022 H         1 RES1    0.0000
      5 C2         4.1295   -0.8008   -0.0698 C.3       1 RES1    0.0000
      6 C3         3.5614    0.6372    0.0789 C.3       1 RES1    0.0000
      7 H3         3.4559    1.0712   -0.8041 H         1 RES1    0.0000
      8 H4         2.6850    0.6269    0.5406 H         1 RES1    0.0000
      9 C4         4.5920    1.3383    0.9011 C.2       1 RES1    0.0000
     10 C5         3.7757   -1.4151   -1.4238 C.3       1 RES1    0.0000
     11 H5         4.2223   -2.2825   -1.5159 H         1 RES1    0.0000
     12 H6         4.0719   -0.8178   -2.1411 H         1 RES1    0.0000
     13 H7         2.8053   -1.5402   -1.4832 H         1 RES1    0.0000
     14 C6         3.6113   -1.6747    1.0758 C.3       1 RES1    0.0000
     15 H8         2.6370   -1.7558    1.0100 H         1 RES1    0.0000
     16 H9         3.8480   -1.2632    1.9334 H         1 RES1    0.0000
     17 H10        4.0182   -2.5642    1.0177 H         1 RES1    0.0000
     18 C7         4.4449    2.5304    1.6902 C.2       1 RES1    0.0000
     19 H11        5.2312    2.9719    1.9891 H         1 RES1    0.0000
     20 C8         3.2531    3.0530    2.0284 C.2       1 RES1    0.0000
     21 H12        2.4668    2.6467    1.6813 H         1 RES1    0.0000
     22 C9         3.1072    4.2248    2.9104 C.ar      1 RES1    0.0000
     23 C10        4.0483    5.2322    2.8918 C.ar      1 RES1    0.0000
     24 H13        4.7891    5.1602    2.3008 H         1 RES1    0.0000
     25 C11        3.9440    6.3699    3.7276 C.ar      1 RES1    0.0000
     26 H14        4.6087    7.0480    3.6974 H         1 RES1    0.0000
     27 C12        2.8833    6.4859    4.5756 C.ar      1 RES1    0.0000
     28 H15        2.8110    7.2553    5.1287 H         1 RES1    0.0000
     29 C13        1.8872    5.4820    4.6497 C.ar      1 RES1    0.0000
     30 C14        0.7952    5.5906    5.5433 C.ar      1 RES1    0.0000
     31 H16        0.7076    6.3680    6.0809 H         1 RES1    0.0000
     32 C15       -0.1324    4.6000    5.6446 C.ar      1 RES1    0.0000
     33 H17       -0.8585    4.6888    6.2502 H         1 RES1    0.0000
     34 C16       -0.0147    3.4408    4.8486 C.ar      1 RES1    0.0000
     35 H18       -0.6564    2.7445    4.9344 H         1 RES1    0.0000
     36 C17        1.0133    3.3077    3.9535 C.ar      1 RES1    0.0000
     37 H19        1.0709    2.5253    3.4166 H         1 RES1    0.0000
     38 C18        1.9953    4.3247    3.8171 C.ar      1 RES1    0.0000
     39 O1         6.8680    1.0478    1.3628 O.2       1 RES1    0.0000
@<TRIPOS>BOND
     1    1    2 1
     2    2    3 1
     3    4    2 1
     4    5    2 1
     5    6    5 1
     6    7    6 1
     7    8    6 1
     8    9    1 2
     9   10    5 1
    10   11   10 1
    11   12   10 1
    12   13   10 1
    13   14    5 1
    14   15   14 1
    15   16   14 1
    16   17   14 1
    17   18    9 1
    18   19   18 1
    19   20   18 2
    20   21   20 1
    21   22   20 1
    22   23   22 ar
    23   24   23 1
    24   25   23 ar
    25   26   25 1
    26   27   25 ar
    27   28   27 1
    28   29   27 ar
    29   30   29 ar
    30   31   30 1
    31   32   30 ar
    32   33   32 1
    33   34   32 ar
    34   35   34 1
    35   36   34 ar
    36   37   36 1
    37   38   22 ar
    38   39    1 1
    39    6    9 1
    40   29   38 ar
    41   36   38 ar
@<TRIPOS>SUBSTRUCTURE
     1 RES1 1

@<TRIPOS>CRYSIN
   6.3974   11.7839   19.2374  90.0000  90.0000  90.0000  19 1

