# MOL2 file generated by ConQuest
# Please check atom types

@<TRIPOS>MOLECULE
WINJAF01
    32    33     1
SMALL
NO_CHARGES
****
Generated from CSD

@<TRIPOS>ATOM
      1 O1         0.9234    8.8153    3.7180 O.2       1 RES1    0.0000
      2 O2        -1.1759    9.0147    4.1932 O.2       1 RES1    0.0000
      3 O3        -3.3446    5.9431    7.0865 O.2       1 RES1    0.0000
      4 O4        -2.1889    4.3121    7.9436 O.2       1 RES1    0.0000
      5 O5         3.7415    8.0194    2.7388 O.2       1 RES1    0.0000
      6 O6         5.6691    7.1621    2.2414 O.2       1 RES1    0.0000
      7 O7         6.0495    2.6016    0.7945 O.2       1 RES1    0.0000
      8 O8         4.2423    1.8082   -0.1124 O.2       1 RES1    0.0000
      9 N1        -0.1306    8.3770    4.1810 N.pl3     1 RES1    0.0000
     10 N2        -2.3366    5.2367    7.1529 N.pl3     1 RES1    0.0000
     11 N3         4.4650    7.0577    2.4437 N.pl3     1 RES1    0.0000
     12 N4         4.8316    2.5929    0.6252 N.pl3     1 RES1    0.0000
     13 N5         1.8806    6.3509    3.5923 N.3       1 RES1    0.0000
     14 C1         0.8528    6.0765    4.4723 C.ar      1 RES1    0.0000
     15 C2        -0.1410    7.0376    4.7698 C.ar      1 RES1    0.0000
     16 C3        -1.1961    6.7614    5.6269 C.ar      1 RES1    0.0000
     17 C4        -1.2410    5.5299    6.2259 C.ar      1 RES1    0.0000
     18 C5        -0.2632    4.5653    6.0128 C.ar      1 RES1    0.0000
     19 C6         0.7716    4.8416    5.1478 C.ar      1 RES1    0.0000
     20 C7         2.5713    5.4396    2.8234 C.ar      1 RES1    0.0000
     21 C8         3.8507    5.7427    2.2958 C.ar      1 RES1    0.0000
     22 C9         4.6031    4.8021    1.6069 C.ar      1 RES1    0.0000
     23 C10        4.0354    3.5774    1.3486 C.ar      1 RES1    0.0000
     24 C11        2.7304    3.2719    1.7278 C.ar      1 RES1    0.0000
     25 C12        2.0250    4.1871    2.4753 C.ar      1 RES1    0.0000
     26 H1         2.0547    7.1397    3.4700 H         1 RES1    0.0000
     27 H2        -1.8708    7.4097    5.7947 H         1 RES1    0.0000
     28 H3        -0.3084    3.7274    6.4572 H         1 RES1    0.0000
     29 H4         1.4443    4.1871    5.0033 H         1 RES1    0.0000
     30 H5         5.4868    4.9993    1.3209 H         1 RES1    0.0000
     31 H6         2.3335    2.4464    1.4752 H         1 RES1    0.0000
     32 H7         1.1461    3.9696    2.7650 H         1 RES1    0.0000
@<TRIPOS>BOND
     1    1    9 2
     2    2    9 2
     3    3   10 2
     4    4   10 2
     5    5   11 2
     6    6   11 2
     7    7   12 2
     8    8   12 2
     9    9   15 1
    10   10   17 1
    11   11   21 1
    12   12   23 1
    13   13   14 1
    14   14   15 ar
    15   15   16 ar
    16   16   17 ar
    17   17   18 ar
    18   18   19 ar
    19   19   14 ar
    20   20   13 1
    21   21   20 ar
    22   22   21 ar
    23   23   22 ar
    24   24   23 ar
    25   25   20 ar
    26   26   13 1
    27   27   16 1
    28   28   18 1
    29   29   19 1
    30   30   22 1
    31   31   24 1
    32   32   25 1
    33   24   25 ar
@<TRIPOS>SUBSTRUCTURE
     1 RES1 1

@<TRIPOS>CRYSIN
  12.8270    7.4997   15.4860  90.0000 113.9060  90.0000  14 1

