# MOL2 file generated by ConQuest
# Please check atom types

@<TRIPOS>MOLECULE
WINPOY
    33    36     1
SMALL
NO_CHARGES
****
Generated from CSD

@<TRIPOS>ATOM
      1 C1         1.2839    0.5220    8.1730 C.ar      1 RES1    0.0000
      2 O1         2.3608    0.1433    8.8903 O.3       1 RES1    0.0000
      3 H1         2.1082    0.2556    9.8731 H         1 RES1    0.0000
      4 C2         1.0425   -0.1138    6.9527 C.ar      1 RES1    0.0000
      5 H2         1.6078   -0.7963    6.6714 H         1 RES1    0.0000
      6 C3        -0.0079    0.2513    6.1721 C.ar      1 RES1    0.0000
      7 H3        -0.1752   -0.2095    5.3817 H         1 RES1    0.0000
      8 C4        -0.8261    1.2960    6.5386 C.ar      1 RES1    0.0000
      9 H4        -1.5350    1.5415    5.9894 H         1 RES1    0.0000
     10 C5        -0.6026    1.9807    7.7151 C.ar      1 RES1    0.0000
     11 C6        -1.3707    3.2264    8.0561 C.3       1 RES1    0.0000
     12 H5        -2.0387    3.0284    8.7296 H         1 RES1    0.0000
     13 H6        -1.8222    3.5633    7.2669 H         1 RES1    0.0000
     14 C7        -0.3948    4.2718    8.5834 C.3       1 RES1    0.0000
     15 H7         0.2835    4.4597    7.9173 H         1 RES1    0.0000
     16 H8        -0.8672    5.0962    8.7807 H         1 RES1    0.0000
     17 C8         0.2433    3.7340    9.8317 C.ar      1 RES1    0.0000
     18 C9         0.4486    4.4893   10.9448 C.ar      1 RES1    0.0000
     19 H9         0.2224    5.3914   10.9351 H         1 RES1    0.0000
     20 C10        1.0001    3.9248   12.1128 C.ar      1 RES1    0.0000
     21 C11        1.2820    4.6585   13.2770 C.ar      1 RES1    0.0000
     22 H10        1.1100    5.5722   13.2965 H         1 RES1    0.0000
     23 C12        1.8071    4.0486   14.3804 C.ar      1 RES1    0.0000
     24 H11        1.9800    4.5476   15.1464 H         1 RES1    0.0000
     25 C13        2.0836    2.6777   14.3682 C.ar      1 RES1    0.0000
     26 H12        2.4419    2.2731   15.1257 H         1 RES1    0.0000
     27 C14        1.8335    1.9260   13.2527 C.ar      1 RES1    0.0000
     28 H13        2.0157    1.0138   13.2454 H         1 RES1    0.0000
     29 C15        1.2985    2.5532   12.1262 C.ar      1 RES1    0.0000
     30 N1         1.0512    1.7986   10.9698 N.pl3     1 RES1    0.0000
     31 O2         1.2737    0.4874   11.0588 O.2       1 RES1    0.0000
     32 C16        0.6032    2.3552    9.8220 C.ar      1 RES1    0.0000
     33 C17        0.4304    1.5675    8.5883 C.ar      1 RES1    0.0000
@<TRIPOS>BOND
     1    1    2 1
     2    2    3 1
     3    4    1 ar
     4    5    4 1
     5    6    4 ar
     6    7    6 1
     7    8    6 ar
     8    9    8 1
     9   10    8 ar
    10   11   10 1
    11   12   11 1
    12   13   11 1
    13   14   11 1
    14   15   14 1
    15   16   14 1
    16   17   14 1
    17   18   17 ar
    18   19   18 1
    19   20   18 ar
    20   21   20 ar
    21   22   21 1
    22   23   21 ar
    23   24   23 1
    24   25   23 ar
    25   26   25 1
    26   27   25 ar
    27   28   27 1
    28   29   20 ar
    29   30   29 ar
    30   31   30 1
    31   32   17 ar
    32   33    1 ar
    33   10   33 ar
    34   27   29 ar
    35   30   32 ar
    36   32   33 1
@<TRIPOS>SUBSTRUCTURE
     1 RES1 1

@<TRIPOS>CRYSIN
  14.2570    7.2001   12.8710  90.0000 108.8800  90.0000  14 2

