# MOL2 file generated by ConQuest
# Please check atom types

@<TRIPOS>MOLECULE
WINVEV
    43    46     1
SMALL
NO_CHARGES
****
Generated from CSD

@<TRIPOS>ATOM
      1 O1         8.2326   18.0721   -2.1362 O.2       1 RES1    0.0000
      2 O2         2.1302   14.7596    5.3933 O.2       1 RES1    0.0000
      3 O3         2.0878   16.2739    6.9164 O.2       1 RES1    0.0000
      4 O4         3.0015   18.6316    6.4513 O.3       1 RES1    0.0000
      5 H1         2.5909   17.9792    6.8391 H         1 RES1    0.0000
      6 O5         4.3088   20.1481    4.8381 O.3       1 RES1    0.0000
      7 N1         2.4204   15.8739    5.7907 N.pl3     1 RES1    0.0000
      8 C1         7.3516   15.3909   -2.3720 C.ar      1 RES1    0.0000
      9 H2         7.8378   15.7321   -3.0873 H         1 RES1    0.0000
     10 C2         6.8372   14.1328   -2.4492 C.ar      1 RES1    0.0000
     11 H3         6.9827   13.6130   -3.2063 H         1 RES1    0.0000
     12 C3         6.0981   13.6366   -1.3952 C.ar      1 RES1    0.0000
     13 H4         5.7453   12.7759   -1.4435 H         1 RES1    0.0000
     14 C4         5.8786   14.3997   -0.2752 C.ar      1 RES1    0.0000
     15 H5         5.3718   14.0524    0.4232 H         1 RES1    0.0000
     16 C5         6.1969   16.5272    1.0395 C.2       1 RES1    0.0000
     17 C6         7.5967   17.9611    2.5675 C.ar      1 RES1    0.0000
     18 H6         7.1811   17.5815    3.3077 H         1 RES1    0.0000
     19 C7         8.5470   18.9461    2.7566 C.ar      1 RES1    0.0000
     20 H7         8.7563   19.2251    3.6183 H         1 RES1    0.0000
     21 C8         9.1877   19.5193    1.6760 C.ar      1 RES1    0.0000
     22 H8         9.8081   20.2012    1.8023 H         1 RES1    0.0000
     23 C9         8.8959   19.0696    0.4136 C.ar      1 RES1    0.0000
     24 H9         9.3320   19.4448   -0.3162 H         1 RES1    0.0000
     25 C10        7.7876   17.5064   -1.1530 C.2       1 RES1    0.0000
     26 C11        6.4024   15.6832   -0.1714 C.ar      1 RES1    0.0000
     27 C12        7.2486   17.5267    1.2914 C.ar      1 RES1    0.0000
     28 C13        7.9601   18.0618    0.2052 C.ar      1 RES1    0.0000
     29 C14        7.1602   16.1790   -1.2367 C.ar      1 RES1    0.0000
     30 C15        5.0698   16.3378    1.7524 C.2       1 RES1    0.0000
     31 H10        4.5425   15.6431    1.4274 H         1 RES1    0.0000
     32 C16        4.4956   16.9978    2.9392 C.ar      1 RES1    0.0000
     33 C17        3.7018   16.2257    3.7591 C.ar      1 RES1    0.0000
     34 H11        3.5087   15.3483    3.5226 H         1 RES1    0.0000
     35 C18        3.1877   16.7533    4.9362 C.ar      1 RES1    0.0000
     36 C19        3.4240   18.0623    5.3136 C.ar      1 RES1    0.0000
     37 C20        4.1682   18.8685    4.4326 C.ar      1 RES1    0.0000
     38 C21        4.6728   18.3399    3.2771 C.ar      1 RES1    0.0000
     39 H12        5.1483   18.8913    2.6994 H         1 RES1    0.0000
     40 C22        5.3370   20.9103    4.2322 C.3       1 RES1    0.0000
     41 H13        6.1679   20.4320    4.2934 H         1 RES1    0.0000
     42 H14        5.4190   21.7530    4.6844 H         1 RES1    0.0000
     43 H15        5.1220   21.0605    3.3093 H         1 RES1    0.0000
@<TRIPOS>BOND
     1    1   25 2
     2    2    7 2
     3    3    7 2
     4    4    5 1
     5    6   37 1
     6    7   35 1
     7    8    9 1
     8   10    8 ar
     9   11   10 1
    10   12   10 ar
    11   13   12 1
    12   14   12 ar
    13   15   14 1
    14   16   26 1
    15   17   18 1
    16   19   17 ar
    17   20   19 1
    18   21   19 ar
    19   22   21 1
    20   23   21 ar
    21   24   23 1
    22   25   28 1
    23   26   14 ar
    24   27   16 1
    25   28   23 ar
    26   29    8 ar
    27   30   16 2
    28   31   30 1
    29   32   30 1
    30   33   32 ar
    31   34   33 1
    32   35   33 ar
    33   36    4 1
    34   37   36 ar
    35   38   32 ar
    36   39   38 1
    37   40    6 1
    38   41   40 1
    39   42   40 1
    40   43   40 1
    41   17   27 ar
    42   25   29 1
    43   26   29 ar
    44   27   28 ar
    45   35   36 ar
    46   37   38 ar
@<TRIPOS>SUBSTRUCTURE
     1 RES1 1

@<TRIPOS>CRYSIN
   7.5420   27.8100    8.1110  90.0000  97.2570  90.0000  14 1

