# MOL2 file generated by ConQuest
# Please check atom types

@<TRIPOS>MOLECULE
WIPFUX
    31    32     1
SMALL
NO_CHARGES
****
Generated from CSD

@<TRIPOS>ATOM
      1 N1         4.9508    8.4390    7.0936 N.am      1 RES1    0.0000
      2 H1         4.3169    8.9193    7.5475 H         1 RES1    0.0000
      3 C1         5.5987    9.0669    6.0957 C.2       1 RES1    0.0000
      4 O1         6.4761    8.5627    5.3886 O.2       1 RES1    0.0000
      5 N2         4.1155   10.0834    3.7698 N.pl3     1 RES1    0.0000
      6 O2         4.0171   10.4539    2.6030 O.2       1 RES1    0.0000
      7 O3         3.7548    8.9764    4.1691 O.2       1 RES1    0.0000
      8 C2         5.2653   10.5347    5.9192 C.ar      1 RES1    0.0000
      9 C3         4.6807   11.0338    4.7530 C.ar      1 RES1    0.0000
     10 C4         4.5526   12.3827    4.4896 C.ar      1 RES1    0.0000
     11 H2         4.1545   12.6751    3.7015 H         1 RES1    0.0000
     12 C5         5.0265   13.2914    5.4191 C.ar      1 RES1    0.0000
     13 H3         4.9492   14.2046    5.2594 H         1 RES1    0.0000
     14 C6         5.6127   12.8415    6.5826 C.ar      1 RES1    0.0000
     15 H4         5.9312   13.4552    7.2047 H         1 RES1    0.0000
     16 C7         5.7353   11.4696    6.8397 C.ar      1 RES1    0.0000
     17 H5         6.1326   11.1811    7.6290 H         1 RES1    0.0000
     18 C8         5.0764    7.0561    7.4460 C.ar      1 RES1    0.0000
     19 C9         4.7853    6.6920    8.7670 C.ar      1 RES1    0.0000
     20 C10        4.8579    5.3329    9.1016 C.ar      1 RES1    0.0000
     21 H6         4.6588    5.0666    9.9697 H         1 RES1    0.0000
     22 C11        5.2201    4.3743    8.1607 C.ar      1 RES1    0.0000
     23 H7         5.2739    3.4781    8.4053 H         1 RES1    0.0000
     24 C12        5.4995    4.7558    6.8673 C.ar      1 RES1    0.0000
     25 H8         5.7400    4.1144    6.2380 H         1 RES1    0.0000
     26 C13        5.4246    6.0955    6.4979 C.ar      1 RES1    0.0000
     27 H9         5.6057    6.3492    5.6219 H         1 RES1    0.0000
     28 C14        4.3864    7.7190    9.8134 C.3       1 RES1    0.0000
     29 H10        5.0515    8.4107    9.8528 H         1 RES1    0.0000
     30 H11        4.3177    7.2915   10.6711 H         1 RES1    0.0000
     31 H12        3.5386    8.1024    9.5783 H         1 RES1    0.0000
@<TRIPOS>BOND
     1    1    2 1
     2    3    1 1
     3    4    3 2
     4    5    6 2
     5    7    5 2
     6    8    3 1
     7    9    5 1
     8   10    9 ar
     9   11   10 1
    10   12   10 ar
    11   13   12 1
    12   14   12 ar
    13   15   14 1
    14   16    8 ar
    15   17   16 1
    16   18    1 1
    17   19   18 ar
    18   20   19 ar
    19   21   20 1
    20   22   20 ar
    21   23   22 1
    22   24   22 ar
    23   25   24 1
    24   26   18 ar
    25   27   26 1
    26   28   19 1
    27   29   28 1
    28   30   28 1
    29   31   28 1
    30    8    9 ar
    31   14   16 ar
    32   24   26 ar
@<TRIPOS>SUBSTRUCTURE
     1 RES1 1

@<TRIPOS>CRYSIN
   7.8063   12.2856   13.1353  90.0000  90.0000  90.0000  19 1

