# MOL2 file generated by ConQuest
# Please check atom types

@<TRIPOS>MOLECULE
WIPJEM
    32    33     1
SMALL
NO_CHARGES
****
Generated from CSD

@<TRIPOS>ATOM
      1 C1         5.5627    6.1140    5.9719 C.ar      1 RES1    0.0000
      2 C2         5.6720    6.4504    4.6316 C.ar      1 RES1    0.0000
      3 H1         6.1247    5.8700    4.0314 H         1 RES1    0.0000
      4 C3         5.1184    7.6381    4.1666 C.ar      1 RES1    0.0000
      5 H2         5.2048    7.8624    3.2480 H         1 RES1    0.0000
      6 C4         4.4414    8.5044    5.0179 C.ar      1 RES1    0.0000
      7 C5         4.3278    8.1439    6.3631 C.ar      1 RES1    0.0000
      8 H3         3.8577    8.7129    6.9612 H         1 RES1    0.0000
      9 C6         4.8906    6.9687    6.8403 C.ar      1 RES1    0.0000
     10 H4         4.8171    6.7473    7.7617 H         1 RES1    0.0000
     11 C7         5.5914    4.0160    7.2637 C.ar      1 RES1    0.0000
     12 C8         4.1782    3.9790    7.3807 C.ar      1 RES1    0.0000
     13 H5         3.6590    4.5929    6.8744 H         1 RES1    0.0000
     14 C9         3.5402    3.0908    8.1968 C.ar      1 RES1    0.0000
     15 H6         2.5909    3.1038    8.2383 H         1 RES1    0.0000
     16 C10        4.2459    2.1534    8.9805 C.ar      1 RES1    0.0000
     17 C11        5.6134    2.1318    8.8522 C.ar      1 RES1    0.0000
     18 H7         6.1169    1.4970    9.3484 H         1 RES1    0.0000
     19 C12        6.2830    3.0287    8.0017 C.ar      1 RES1    0.0000
     20 C13        3.8638    9.8061    4.5298 C.3       1 RES1    0.0000
     21 H8         4.0862    9.9278    3.5830 H         1 RES1    0.0000
     22 H9         4.2396   10.5459    5.0508 H         1 RES1    0.0000
     23 H10        2.8903    9.7925    4.6374 H         1 RES1    0.0000
     24 C14        3.5124    1.2324    9.9122 C.3       1 RES1    0.0000
     25 H11        2.7972    0.7752    9.4229 H         1 RES1    0.0000
     26 H12        3.1253    1.7519   10.6472 H         1 RES1    0.0000
     27 H13        4.1369    0.5693   10.2743 H         1 RES1    0.0000
     28 N1         6.1942    4.9356    6.4601 N.pl3     1 RES1    0.0000
     29 H14        7.0838    4.8305    6.3147 H         1 RES1    0.0000
     30 N2         7.7120    2.8963    7.9238 N.pl3     1 RES1    0.0000
     31 O1         8.3491    3.5970    7.1171 O.2       1 RES1    0.0000
     32 O2         8.2800    2.0732    8.6485 O.2       1 RES1    0.0000
@<TRIPOS>BOND
     1    1    2 ar
     2    2    3 1
     3    4    2 ar
     4    5    4 1
     5    6    4 ar
     6    7    6 ar
     7    8    7 1
     8    9    1 ar
     9   10    9 1
    10   11   12 ar
    11   12   13 1
    12   14   12 ar
    13   15   14 1
    14   16   14 ar
    15   17   16 ar
    16   18   17 1
    17   19   11 ar
    18   20    6 1
    19   21   20 1
    20   22   20 1
    21   23   20 1
    22   24   16 1
    23   25   24 1
    24   26   24 1
    25   27   24 1
    26   28    1 1
    27   29   28 1
    28   30   19 1
    29   31   30 2
    30   32   30 2
    31    7    9 ar
    32   11   28 1
    33   17   19 ar
@<TRIPOS>SUBSTRUCTURE
     1 RES1 1

@<TRIPOS>CRYSIN
   8.1009    8.1826    9.5700  88.2040  80.5210  76.0940   2 1

