# MOL2 file generated by ConQuest
# Please check atom types

@<TRIPOS>MOLECULE
WIQBON
    36    39     1
SMALL
NO_CHARGES
****
Generated from CSD

@<TRIPOS>ATOM
      1 C1         5.9801    9.4065   11.1739 C.2       1 RES1    0.0000
      2 C2         5.2472   10.5134   10.5187 C.ar      1 RES1    0.0000
      3 C3         4.0495   10.9936   11.0192 C.ar      1 RES1    0.0000
      4 C4         3.4657   12.1125   10.4393 C.ar      1 RES1    0.0000
      5 C5         4.0725   12.7326    9.3860 C.ar      1 RES1    0.0000
      6 C6         5.2653   12.2574    8.8869 C.ar      1 RES1    0.0000
      7 C7         5.8659   11.1634    9.4607 C.ar      1 RES1    0.0000
      8 C8         4.0353    7.8422   11.4533 C.2       1 RES1    0.0000
      9 C9         3.7311    6.7099   12.4422 C.3       1 RES1    0.0000
     10 C10        4.7945    6.8456   13.5137 C.3       1 RES1    0.0000
     11 C11        5.9543    7.5491   12.7981 C.3       1 RES1    0.0000
     12 C12        6.8634    6.5367   12.1453 C.2       1 RES1    0.0000
     13 C13        8.6422    5.0575   12.5855 C.3       1 RES1    0.0000
     14 C14        2.1117    5.0241   11.9812 C.2       1 RES1    0.0000
     15 C15        1.4609    3.7804   11.5245 C.ar      1 RES1    0.0000
     16 C16        0.8449    2.8972   12.4170 C.ar      1 RES1    0.0000
     17 C17        0.3280    2.4028   14.6957 C.3       1 RES1    0.0000
     18 C18        0.2556    1.7149   11.9553 C.ar      1 RES1    0.0000
     19 C19        0.2799    1.4400   10.6004 C.ar      1 RES1    0.0000
     20 C20       -0.8387   -0.6606   10.8696 C.3       1 RES1    0.0000
     21 C21        0.8878    2.3032    9.6896 C.ar      1 RES1    0.0000
     22 C22        1.4654    3.4614   10.1527 C.ar      1 RES1    0.0000
     23 C23        2.0295    4.2064    7.9624 C.3       1 RES1    0.0000
     24 C24        3.5703    5.3739   11.6716 C.3       1 RES1    0.0000
     25 C25        4.4794    4.3177   12.1120 C.1       1 RES1    0.0000
     26 N1         5.2638    8.3755   11.8066 N.am      1 RES1    0.0000
     27 N2         1.5233    5.9090   12.6716 N.2       1 RES1    0.0000
     28 N3         5.2029    3.5133   12.4719 N.1       1 RES1    0.0000
     29 O1         7.1885    9.3749   11.2441 O.2       1 RES1    0.0000
     30 O2         3.3267    8.1705   10.5464 O.2       1 RES1    0.0000
     31 O3         7.7891    6.1365   13.0039 O.3       1 RES1    0.0000
     32 O4         6.7174    6.1001   11.0443 O.2       1 RES1    0.0000
     33 O5         2.4204    6.9424   13.0126 O.3       1 RES1    0.0000
     34 O6         0.8719    3.2708   13.7205 O.3       1 RES1    0.0000
     35 O7        -0.2873    0.3454   10.0151 O.3       1 RES1    0.0000
     36 O8         2.0757    4.3823    9.3644 O.3       1 RES1    0.0000
@<TRIPOS>BOND
     1    1    2 1
     2    2    3 ar
     3    3    4 ar
     4    4    5 ar
     5    5    6 ar
     6    6    7 ar
     7    7    2 ar
     8    8    9 1
     9    9   10 1
    10   10   11 1
    11   11   12 1
    12   12   31 1
    13   13   31 1
    14   14   15 1
    15   15   16 ar
    16   16   18 ar
    17   17   34 1
    18   18   19 ar
    19   19   21 ar
    20   20   35 1
    21   21   22 ar
    22   22   15 ar
    23   23   36 1
    24   24    9 1
    25   25   24 1
    26   26    1 1
    27   27   14 2
    28   28   25 3
    29   29    1 2
    30   30    8 2
    31   32   12 2
    32   33    9 1
    33   34   16 1
    34   35   19 1
    35   36   22 1
    36    8   26 1
    37   11   26 1
    38   14   24 1
    39   27   33 1
@<TRIPOS>SUBSTRUCTURE
     1 RES1 1

@<TRIPOS>CRYSIN
  10.4450   13.0551   18.0050  90.0000  90.0000  90.0000  19 1

