# MOL2 file generated by ConQuest
# Please check atom types

@<TRIPOS>MOLECULE
WIQDIJ01
    18    18     1
SMALL
NO_CHARGES
****
Generated from CSD

@<TRIPOS>ATOM
      1 C1         6.5533   -0.3118   -1.3799 C.ar      1 RES1    0.0000
      2 N1         8.7305   -2.8508   -2.4442 N.1       1 RES1    0.0000
      3 O1         4.8313    0.5362    3.1728 O.2       1 RES1    0.0000
      4 O2         4.3013    2.3499    2.1203 O.2       1 RES1    0.0000
      5 C2         6.6386   -1.0325   -0.1857 C.ar      1 RES1    0.0000
      6 H1         7.0816   -1.8728   -0.1746 H         1 RES1    0.0000
      7 N2         4.8262    1.2364    2.1631 N.pl3     1 RES1    0.0000
      8 C3         6.0801   -0.5300    0.9896 C.ar      1 RES1    0.0000
      9 H2         6.1270   -1.0222    1.8003 H         1 RES1    0.0000
     10 C4         5.4549    0.7066    0.9422 C.ar      1 RES1    0.0000
     11 C5         5.3811    1.4617   -0.2241 C.ar      1 RES1    0.0000
     12 H3         4.9644    2.3157   -0.2241 H         1 RES1    0.0000
     13 C6         5.9298    0.9405   -1.3886 C.ar      1 RES1    0.0000
     14 H4         5.8809    1.4376   -2.1958 H         1 RES1    0.0000
     15 C7         7.0808   -0.8458   -2.6993 C.3       1 RES1    0.0000
     16 H5         6.3137   -1.1339   -3.2544 H         1 RES1    0.0000
     17 H6         7.5395   -0.1112   -3.1786 H         1 RES1    0.0000
     18 C8         8.0107   -1.9704   -2.5598 C.1       1 RES1    0.0000
@<TRIPOS>BOND
     1    1    5 ar
     2    2   18 3
     3    3    7 2
     4    4    7 2
     5    5    6 1
     6    7   10 1
     7    8    5 ar
     8    9    8 1
     9   10    8 ar
    10   11   10 ar
    11   12   11 1
    12   13    1 ar
    13   14   13 1
    14   15    1 1
    15   16   15 1
    16   17   15 1
    17   18   15 1
    18   11   13 ar
@<TRIPOS>SUBSTRUCTURE
     1 RES1 1

@<TRIPOS>CRYSIN
   8.1695    5.9775   15.7260  90.0000 100.6950  90.0000  14 1

