# MOL2 file generated by ConQuest
# Please check atom types

@<TRIPOS>MOLECULE
WIQSOE
    25    26     1
SMALL
NO_CHARGES
****
Generated from CSD

@<TRIPOS>ATOM
      1 O1         6.2984    5.0685    6.2185 O.3       1 RES1    0.0000
      2 O2         4.5935    4.0606    4.3518 O.3       1 RES1    0.0000
      3 O3         4.5756    6.3377    6.8236 O.2       1 RES1    0.0000
      4 O4         2.6562    5.9444    3.4831 O.2       1 RES1    0.0000
      5 O5         5.4713    7.9016    3.9510 O.3       1 RES1    0.0000
      6 N1         4.0929    7.6565    3.7727 N.am      1 RES1    0.0000
      7 C1         6.9100    4.5628    4.9690 C.3       1 RES1    0.0000
      8 C2         5.8308    4.7066    3.9419 C.3       1 RES1    0.0000
      9 C3         4.7487    5.4784    4.5458 C.3       1 RES1    0.0000
     10 C4         5.1543    5.7031    5.9846 C.2       1 RES1    0.0000
     11 C5         8.1134    5.3809    4.6631 C.3       1 RES1    0.0000
     12 C6         3.7307    6.3526    3.8603 C.2       1 RES1    0.0000
     13 C7         3.4117    8.5919    2.9348 C.3       1 RES1    0.0000
     14 C8         5.6708    8.8993    4.9569 C.3       1 RES1    0.0000
     15 H1         7.0850    3.6688    5.1383 H         1 RES1    0.0000
     16 H2         5.9841    4.7430    3.0104 H         1 RES1    0.0000
     17 H3         4.9774    8.8249    5.7428 H         1 RES1    0.0000
     18 H4         7.8001    6.3295    4.5761 H         1 RES1    0.0000
     19 H5         8.7127    5.3379    5.3136 H         1 RES1    0.0000
     20 H6         8.8256    5.1561    4.0683 H         1 RES1    0.0000
     21 H7         2.6533    8.1473    2.7686 H         1 RES1    0.0000
     22 H8         3.3214    9.3207    3.3248 H         1 RES1    0.0000
     23 H9         3.7918    8.6431    2.0493 H         1 RES1    0.0000
     24 H10        5.4949    9.7503    4.6849 H         1 RES1    0.0000
     25 H11        6.6145    8.9736    4.8602 H         1 RES1    0.0000
@<TRIPOS>BOND
     1    1    7 1
     2    2    8 1
     3    3   10 2
     4    4   12 2
     5    5    6 1
     6    6   12 1
     7    7    8 1
     8    8    9 1
     9    9    2 1
    10   10    1 1
    11   11    7 1
    12   12    9 1
    13   13    6 1
    14   14    5 1
    15   15    7 1
    16   16    8 1
    17   17   14 1
    18   18   11 1
    19   19   11 1
    20   20   11 1
    21   21   13 1
    22   22   13 1
    23   23   13 1
    24   24   14 1
    25   25   14 1
    26    9   10 1
@<TRIPOS>SUBSTRUCTURE
     1 RES1 1

@<TRIPOS>CRYSIN
   9.4090   16.5260    6.0450  90.0000  90.0000  90.0000  19 1

