# MOL2 file generated by ConQuest
# Please check atom types

@<TRIPOS>MOLECULE
WITTAW
    37    39     1
SMALL
USER_CHARGES
****
Generated from CSD

@<TRIPOS>ATOM
      1 O1         3.1011    5.4367    6.9402 O.2       1 RES1   -1.0000
      2 O2         1.2600    1.5143    8.8362 O.2       1 RES1    0.0000
      3 O3         0.3883    5.5661    8.5577 O.3       1 RES1    0.0000
      4 N1         3.6359    4.2563    6.7329 N.pl3     1 RES1    1.0000
      5 N2         1.9149    3.5147    8.0069 N.am      1 RES1    0.0000
      6 C1         4.7609    4.1221    5.9930 C.ar      1 RES1    0.0000
      7 H1         5.1657    4.8751    5.6259 H         1 RES1    0.0000
      8 C2         5.3084    2.8825    5.7818 C.ar      1 RES1    0.0000
      9 H2         6.0823    2.7961    5.2737 H         1 RES1    0.0000
     10 C3         4.7107    1.7673    6.3223 C.ar      1 RES1    0.0000
     11 H3         5.0780    0.9253    6.1755 H         1 RES1    0.0000
     12 C4         3.5694    1.8989    7.0797 C.ar      1 RES1    0.0000
     13 H4         3.1635    1.1474    7.4463 H         1 RES1    0.0000
     14 C5         3.0298    3.1544    7.2927 C.ar      1 RES1    0.0000
     15 C6         1.0909    2.7211    8.7528 C.2       1 RES1    0.0000
     16 C7        -0.0393    3.4089    9.4602 C.ar      1 RES1    0.0000
     17 C8        -0.8316    2.5971   10.2764 C.ar      1 RES1    0.0000
     18 H5        -0.6277    1.6926   10.3467 H         1 RES1    0.0000
     19 C9        -1.9037    3.0950   10.9791 C.ar      1 RES1    0.0000
     20 H6        -2.4134    2.5318   11.5154 H         1 RES1    0.0000
     21 C10       -2.2178    4.4315   10.8832 C.ar      1 RES1    0.0000
     22 H7        -2.9441    4.7721   11.3539 H         1 RES1    0.0000
     23 C11       -1.4580    5.2692   10.0902 C.ar      1 RES1    0.0000
     24 H8        -1.6715    6.1719   10.0304 H         1 RES1    0.0000
     25 C12       -0.3793    4.7652    9.3856 C.ar      1 RES1    0.0000
     26 C13        0.3072    6.9665    8.6074 C.ar      1 RES1    0.0000
     27 C14       -0.6991    7.6225    7.9485 C.ar      1 RES1    0.0000
     28 H9        -1.3747    7.1500    7.5181 H         1 RES1    0.0000
     29 C15       -0.6855    9.0040    7.9399 C.ar      1 RES1    0.0000
     30 H10       -1.3680    9.4643    7.5068 H         1 RES1    0.0000
     31 C16        0.3148    9.7089    8.5573 C.ar      1 RES1    0.0000
     32 H11        0.3084   10.6393    8.5421 H         1 RES1    0.0000
     33 C17        1.3194    9.0434    9.1940 C.ar      1 RES1    0.0000
     34 H12        2.0056    9.5190    9.6031 H         1 RES1    0.0000
     35 C18        1.3194    7.6566    9.2317 C.ar      1 RES1    0.0000
     36 H13        1.9964    7.1985    9.6749 H         1 RES1    0.0000
     37 H14        1.7462    4.3880    7.9667 H         1 RES1    0.0000
@<TRIPOS>BOND
     1    1    4 1
     2    2   15 2
     3    3   25 1
     4    4    6 ar
     5    5   14 1
     6    6    7 1
     7    8    6 ar
     8    9    8 1
     9   10    8 ar
    10   11   10 1
    11   12   10 ar
    12   13   12 1
    13   14    4 ar
    14   15    5 1
    15   16   15 1
    16   17   16 ar
    17   18   17 1
    18   19   17 ar
    19   20   19 1
    20   21   19 ar
    21   22   21 1
    22   23   21 ar
    23   24   23 1
    24   25   16 ar
    25   26    3 1
    26   27   26 ar
    27   28   27 1
    28   29   27 ar
    29   30   29 1
    30   31   29 ar
    31   32   31 1
    32   33   31 ar
    33   34   33 1
    34   35   26 ar
    35   36   35 1
    36   37    5 1
    37   12   14 ar
    38   23   25 ar
    39   33   35 ar
@<TRIPOS>SUBSTRUCTURE
     1 RES1 1

@<TRIPOS>CRYSIN
   6.0877   10.9989   11.2984  83.2900  87.5710  83.7170   2 1

