# MOL2 file generated by ConQuest
# Please check atom types

@<TRIPOS>MOLECULE
WITTUQ
    62    64     1
SMALL
NO_CHARGES
****
Generated from CSD

@<TRIPOS>ATOM
      1 O1         3.4200   11.7069    6.5658 O.2       1 RES1    0.0000
      2 O2         1.5159   10.9852    5.8930 O.2       1 RES1    0.0000
      3 O3        -1.1635    8.2307    8.7738 O.2       1 RES1    0.0000
      4 O4        -0.3116    7.4958   10.5747 O.2       1 RES1    0.0000
      5 O5         3.5426    9.8826   12.5507 O.2       1 RES1    0.0000
      6 O6         4.7704   11.0927   11.1241 O.3       1 RES1    0.0000
      7 O7         6.3763   13.4461   11.1417 O.3       1 RES1    0.0000
      8 O8         7.5295   14.9347   12.3706 O.2       1 RES1    0.0000
      9 O9         6.5386   13.8767    6.2773 O.2       1 RES1    0.0000
     10 O10        8.2650   14.7762    5.3823 O.2       1 RES1    0.0000
     11 O11       11.3141   17.3242    8.0601 O.2       1 RES1    0.0000
     12 O12       11.3192   16.9980   10.2144 O.2       1 RES1    0.0000
     13 N1         2.3719   11.1116    6.7451 N.pl3     1 RES1    0.0000
     14 N2        -0.2942    8.2133    9.6092 N.pl3     1 RES1    0.0000
     15 N3         7.5826   14.4828    6.3620 N.pl3     1 RES1    0.0000
     16 N4        10.8269   16.8976    9.0810 N.pl3     1 RES1    0.0000
     17 C1         3.0073   10.7697    9.0871 C.ar      1 RES1    0.0000
     18 H1         3.7438   11.3210    8.9529 H         1 RES1    0.0000
     19 C2         2.1206   10.5171    8.0623 C.ar      1 RES1    0.0000
     20 C3         1.0174    9.7143    8.2138 C.ar      1 RES1    0.0000
     21 H2         0.4198    9.5722    7.5160 H         1 RES1    0.0000
     22 C4         0.8387    9.1342    9.4383 C.ar      1 RES1    0.0000
     23 C5         1.6865    9.3541   10.4995 C.ar      1 RES1    0.0000
     24 H3         1.5302    8.9507   11.3227 H         1 RES1    0.0000
     25 C6         2.7775   10.1866   10.3177 C.ar      1 RES1    0.0000
     26 C7         3.7111   10.3727   11.4700 C.2       1 RES1    0.0000
     27 C8         5.8369   11.3261   12.1024 C.3       1 RES1    0.0000
     28 H4         5.6131   10.8655   12.9378 H         1 RES1    0.0000
     29 C9         5.9002   12.8126   12.3569 C.3       1 RES1    0.0000
     30 H5         6.5560   12.9753   13.0659 H         1 RES1    0.0000
     31 C10        4.5845   13.4057   12.7810 C.2       1 RES1    0.0000
     32 H6         4.2454   13.1162   13.5978 H         1 RES1    0.0000
     33 C11        3.8715   14.2743   12.1386 C.2       1 RES1    0.0000
     34 H7         4.1626   14.6006   11.3171 H         1 RES1    0.0000
     35 H8         3.0676   14.5735   12.5006 H         1 RES1    0.0000
     36 C12        7.0749   10.6754   11.4864 C.3       1 RES1    0.0000
     37 H9         7.0361   10.8327   10.5207 H         1 RES1    0.0000
     38 C13        8.3998   11.2413   11.9832 C.ar      1 RES1    0.0000
     39 C14        9.2374   11.8837   11.0940 C.ar      1 RES1    0.0000
     40 H10        8.9882   11.9657   10.2032 H         1 RES1    0.0000
     41 C15       10.4571   12.4109   11.5226 C.ar      1 RES1    0.0000
     42 H11       11.0199   12.8382   10.9189 H         1 RES1    0.0000
     43 C16       10.8187   12.2958   12.8334 C.ar      1 RES1    0.0000
     44 H12       11.6247   12.6549   13.1272 H         1 RES1    0.0000
     45 C17       10.0076   11.6608   13.7061 C.ar      1 RES1    0.0000
     46 H13       10.2610   11.5816   14.5975 H         1 RES1    0.0000
     47 C18        8.8104   11.1299   13.2887 C.ar      1 RES1    0.0000
     48 H14        8.2690   10.6860   13.9013 H         1 RES1    0.0000
     49 C19        7.0034    9.1533   11.7047 C.3       1 RES1    0.0000
     50 H15        7.7542    8.7325   11.2809 H         1 RES1    0.0000
     51 H16        6.1893    8.8136   11.3255 H         1 RES1    0.0000
     52 H17        7.0208    8.9622   12.6454 H         1 RES1    0.0000
     53 C20        7.2373   14.4568   11.3163 C.2       1 RES1    0.0000
     54 C21        7.8410   14.8857   10.0308 C.ar      1 RES1    0.0000
     55 C22        7.3681   14.4925    8.7989 C.ar      1 RES1    0.0000
     56 H18        6.6183   13.9462    8.7245 H         1 RES1    0.0000
     57 C23        8.0545   14.9422    7.6580 C.ar      1 RES1    0.0000
     58 C24        9.1741   15.7471    7.7599 C.ar      1 RES1    0.0000
     59 H19        9.6144   16.0541    7.0008 H         1 RES1    0.0000
     60 C25        9.6082   16.0753    8.9924 C.ar      1 RES1    0.0000
     61 C26        8.9759   15.6778   10.1238 C.ar      1 RES1    0.0000
     62 H20        9.3008   15.9344   10.9579 H         1 RES1    0.0000
@<TRIPOS>BOND
     1    1   13 2
     2    2   13 2
     3    3   14 2
     4    4   14 2
     5    5   26 2
     6    6   26 1
     7    7   29 1
     8    8   53 2
     9    9   15 2
    10   10   15 2
    11   11   16 2
    12   12   16 2
    13   13   19 1
    14   14   22 1
    15   15   57 1
    16   16   60 1
    17   17   18 1
    18   19   17 ar
    19   20   19 ar
    20   21   20 1
    21   22   20 ar
    22   23   22 ar
    23   24   23 1
    24   25   17 ar
    25   26   25 1
    26   27    6 1
    27   28   27 1
    28   29   27 1
    29   30   29 1
    30   31   29 1
    31   32   31 1
    32   33   31 2
    33   34   33 1
    34   35   33 1
    35   36   27 1
    36   37   36 1
    37   38   36 1
    38   39   38 ar
    39   40   39 1
    40   41   39 ar
    41   42   41 1
    42   43   41 ar
    43   44   43 1
    44   45   43 ar
    45   46   45 1
    46   47   38 ar
    47   48   47 1
    48   49   36 1
    49   50   49 1
    50   51   49 1
    51   52   49 1
    52   53    7 1
    53   54   53 1
    54   55   54 ar
    55   56   55 1
    56   57   55 ar
    57   58   57 ar
    58   59   58 1
    59   60   58 ar
    60   61   54 ar
    61   62   61 1
    62   23   25 ar
    63   45   47 ar
    64   60   61 ar
@<TRIPOS>SUBSTRUCTURE
     1 RES1 1

@<TRIPOS>CRYSIN
  10.2150   19.3027   27.8472  90.0000  90.0000  90.0000  61 1

