# MOL2 file generated by ConQuest
# Please check atom types

@<TRIPOS>MOLECULE
WITTEA
    48    51     1
SMALL
USER_CHARGES
****
Generated from CSD

@<TRIPOS>ATOM
      1 O1         0.4926    0.6164   -1.3355 O.2       1 RES1   -1.0000
      2 O2         1.9206    3.2739    2.3053 O.2       1 RES1    0.0000
      3 O3         1.2719    0.7316    4.2387 O.3       1 RES1    0.0000
      4 O4        -1.4021    3.5768    1.6148 O.3       1 RES1    0.0000
      5 N1         1.7536    0.9612   -1.1474 N.pl3     1 RES1    1.0000
      6 N2         1.1201    1.6128    0.9733 N.am      1 RES1    0.0000
      7 H1         0.4945    1.0731    0.8622 H         1 RES1    0.0000
      8 C1         2.6742    0.7318   -2.1167 C.ar      1 RES1    0.0000
      9 H2         2.4126    0.3084   -2.9024 H         1 RES1    0.0000
     10 C2         3.9767    1.1080   -1.9604 C.ar      1 RES1    0.0000
     11 H3         4.5971    0.9342   -2.6310 H         1 RES1    0.0000
     12 C3         4.3656    1.7459   -0.8074 C.ar      1 RES1    0.0000
     13 H4         5.2455    2.0251   -0.6991 H         1 RES1    0.0000
     14 C4         3.4350    1.9663    0.1887 C.ar      1 RES1    0.0000
     15 H5         3.6891    2.3976    0.9728 H         1 RES1    0.0000
     16 C5         2.1294    1.5510    0.0251 C.ar      1 RES1    0.0000
     17 C6         1.0929    2.4150    2.0704 C.2       1 RES1    0.0000
     18 C7        -0.0702    2.1790    2.9909 C.ar      1 RES1    0.0000
     19 C8         0.0427    1.3482    4.1021 C.ar      1 RES1    0.0000
     20 C9        -1.0130    1.1831    4.9823 C.ar      1 RES1    0.0000
     21 H6        -0.9285    0.6246    5.7205 H         1 RES1    0.0000
     22 C10       -2.1947    1.8623    4.7474 C.ar      1 RES1    0.0000
     23 H7        -2.9050    1.7577    5.3384 H         1 RES1    0.0000
     24 C11       -2.3425    2.6904    3.6532 C.ar      1 RES1    0.0000
     25 H8        -3.1422    3.1410    3.5035 H         1 RES1    0.0000
     26 C12       -1.2771    2.8362    2.7857 C.ar      1 RES1    0.0000
     27 C13        1.4677   -0.1010    5.3340 C.ar      1 RES1    0.0000
     28 C14        1.2807   -1.4321    5.2153 C.ar      1 RES1    0.0000
     29 H9         0.9617   -1.8044    4.4249 H         1 RES1    0.0000
     30 C15        1.5902   -2.2559    6.3500 C.ar      1 RES1    0.0000
     31 H10        1.4969   -3.1809    6.3170 H         1 RES1    0.0000
     32 C16        2.0266   -1.6230    7.4825 C.ar      1 RES1    0.0000
     33 H11        2.2322   -2.1469    8.2226 H         1 RES1    0.0000
     34 C17        2.1745   -0.3063    7.5897 C.ar      1 RES1    0.0000
     35 H12        2.4470    0.0762    8.3926 H         1 RES1    0.0000
     36 C18        1.9215    0.4635    6.5074 C.ar      1 RES1    0.0000
     37 H13        2.0543    1.3822    6.5553 H         1 RES1    0.0000
     38 C19       -1.6155    4.9486    1.7415 C.ar      1 RES1    0.0000
     39 C20       -0.9576    5.6994    2.6812 C.ar      1 RES1    0.0000
     40 H14       -0.4067    5.2917    3.3096 H         1 RES1    0.0000
     41 C21       -1.1251    7.0776    2.6812 C.ar      1 RES1    0.0000
     42 H15       -0.6880    7.5975    3.3164 H         1 RES1    0.0000
     43 C22       -1.9392    7.6794    1.7403 C.ar      1 RES1    0.0000
     44 H16       -2.0453    8.6034    1.7380 H         1 RES1    0.0000
     45 C23       -2.5908    6.9109    0.8097 C.ar      1 RES1    0.0000
     46 H17       -3.1414    7.3181    0.1802 H         1 RES1    0.0000
     47 C24       -2.4361    5.5349    0.7960 C.ar      1 RES1    0.0000
     48 H18       -2.8765    5.0151    0.1631 H         1 RES1    0.0000
@<TRIPOS>BOND
     1    1    5 1
     2    2   17 2
     3    3   19 1
     4    4   26 1
     5    5    8 ar
     6    6    7 1
     7    8    9 1
     8   10    8 ar
     9   11   10 1
    10   12   10 ar
    11   13   12 1
    12   14   12 ar
    13   15   14 1
    14   16    5 ar
    15   17    6 1
    16   18   17 1
    17   19   18 ar
    18   20   19 ar
    19   21   20 1
    20   22   20 ar
    21   23   22 1
    22   24   22 ar
    23   25   24 1
    24   26   18 ar
    25   27    3 1
    26   28   27 ar
    27   29   28 1
    28   30   28 ar
    29   31   30 1
    30   32   30 ar
    31   33   32 1
    32   34   32 ar
    33   35   34 1
    34   36   27 ar
    35   37   36 1
    36   38    4 1
    37   39   38 ar
    38   40   39 1
    39   41   39 ar
    40   42   41 1
    41   43   41 ar
    42   44   43 1
    43   45   43 ar
    44   46   45 1
    45   47   38 ar
    46   48   47 1
    47    6   16 1
    48   14   16 ar
    49   24   26 ar
    50   34   36 ar
    51   45   47 ar
@<TRIPOS>SUBSTRUCTURE
     1 RES1 1

@<TRIPOS>CRYSIN
   7.2876   12.0282   12.8131 115.8700  93.7120  98.6550   2 1

