# MOL2 file generated by ConQuest
# Please check atom types

@<TRIPOS>MOLECULE
WIWMAQ
   106   110     1
SMALL
NO_CHARGES
****
Generated from CSD

@<TRIPOS>ATOM
      1 C1        -3.7743    2.8211    3.4306 C.ar      1 RES1    0.0000
      2 C2        -4.9880    3.4498    3.6247 C.ar      1 RES1    0.0000
      3 H1        -5.3345    4.0100    2.9663 H         1 RES1    0.0000
      4 C3        -5.6801    3.2456    4.7948 C.ar      1 RES1    0.0000
      5 C4        -5.1769    2.4404    5.8128 C.ar      1 RES1    0.0000
      6 H2        -5.6582    2.3383    6.6024 H         1 RES1    0.0000
      7 C5        -3.9765    1.7986    5.6548 C.ar      1 RES1    0.0000
      8 C6        -3.2952    1.9867    4.4333 C.ar      1 RES1    0.0000
      9 C7        -3.4032    1.0007    6.7965 C.3       1 RES1    0.0000
     10 H3        -2.4985    0.7279    6.5777 H         1 RES1    0.0000
     11 H4        -3.9342    0.2013    6.9297 H         1 RES1    0.0000
     12 C8        -3.3876    1.8161    8.0751 C.ar      1 RES1    0.0000
     13 C9        -4.1866    1.4864    9.1768 C.ar      1 RES1    0.0000
     14 H5        -4.7014    0.7118    9.1577 H         1 RES1    0.0000
     15 C10       -4.2180    2.3077   10.2974 C.ar      1 RES1    0.0000
     16 H6        -4.7023    2.0524   11.0509 H         1 RES1    0.0000
     17 C11       -3.5358    3.4892   10.2860 C.ar      1 RES1    0.0000
     18 H7        -3.6161    4.0596   11.0167 H         1 RES1    0.0000
     19 C12       -2.7241    3.8728    9.2224 C.ar      1 RES1    0.0000
     20 C13       -2.6375    2.9816    8.1455 C.ar      1 RES1    0.0000
     21 C14       -2.1865    5.2805    9.1596 C.3       1 RES1    0.0000
     22 H8        -1.2202    5.2542    9.0797 H         1 RES1    0.0000
     23 H9        -2.4076    5.7458    9.9816 H         1 RES1    0.0000
     24 C15       -2.7687    6.0361    7.9819 C.ar      1 RES1    0.0000
     25 C16       -4.1611    6.1265    7.8715 C.ar      1 RES1    0.0000
     26 H10       -4.7072    5.7954    8.5470 H         1 RES1    0.0000
     27 C17       -4.7209    6.7159    6.7413 C.ar      1 RES1    0.0000
     28 H11       -5.6414    6.8369    6.6937 H         1 RES1    0.0000
     29 C18       -3.9355    7.1185    5.7005 C.ar      1 RES1    0.0000
     30 H12       -4.3356    7.4437    4.9261 H         1 RES1    0.0000
     31 C19       -2.5474    7.0484    5.7785 C.ar      1 RES1    0.0000
     32 C20       -1.9814    6.5466    6.9639 C.ar      1 RES1    0.0000
     33 C21       -1.6896    7.4029    4.5703 C.3       1 RES1    0.0000
     34 H13       -1.6960    8.3642    4.4390 H         1 RES1    0.0000
     35 H14       -0.7742    7.1272    4.7320 H         1 RES1    0.0000
     36 C22       -2.2147    6.7144    3.3183 C.ar      1 RES1    0.0000
     37 C23       -2.9349    7.4321    2.3765 C.ar      1 RES1    0.0000
     38 H15       -3.0110    8.3554    2.4697 H         1 RES1    0.0000
     39 C24       -3.5417    6.8107    1.3091 C.ar      1 RES1    0.0000
     40 H16       -3.9801    7.3095    0.6583 H         1 RES1    0.0000
     41 C25       -3.4885    5.4293    1.2177 C.ar      1 RES1    0.0000
     42 H17       -3.9317    5.0004    0.5194 H         1 RES1    0.0000
     43 C26       -2.7887    4.6708    2.1463 C.ar      1 RES1    0.0000
     44 C27       -2.0743    5.3636    3.1319 C.ar      1 RES1    0.0000
     45 C28       -2.9428    3.1625    2.2090 C.3       1 RES1    0.0000
     46 H18       -3.3813    2.8401    1.4061 H         1 RES1    0.0000
     47 H19       -2.0710    2.7424    2.2718 H         1 RES1    0.0000
     48 O1        -2.0485    1.3974    4.2788 O.3       1 RES1    0.0000
     49 C29       -2.0200    0.2013    3.4953 C.3       1 RES1    0.0000
     50 H20       -2.6417    0.2757    2.7532 H         1 RES1    0.0000
     51 H21       -2.2855   -0.5572    4.0394 H         1 RES1    0.0000
     52 C30       -0.6565    0.0000    2.9892 C.2       1 RES1    0.0000
     53 O2         0.2588    0.7527    3.1071 O.2       1 RES1    0.0000
     54 O3        -0.5709   -1.1436    2.3403 O.3       1 RES1    0.0000
     55 C31        0.7580   -1.4937    1.7391 C.3       1 RES1    0.0000
     56 H22        1.2059   -0.6768    1.4651 H         1 RES1    0.0000
     57 H23        1.3084   -1.9211    2.4126 H         1 RES1    0.0000
     58 C32        0.6545   -2.2843    0.7097 C.3       1 RES1    0.0000
     59 H24        0.1540   -3.0662    0.9571 H         1 RES1    0.0000
     60 H25        1.5302   -2.5469    0.4167 H         1 RES1    0.0000
     61 H26        0.2014   -1.8263   -0.0019 H         1 RES1    0.0000
     62 O4        -1.8953    3.3069    7.0204 O.3       1 RES1    0.0000
     63 C33       -0.4958    3.4338    7.1599 C.3       1 RES1    0.0000
     64 H27       -0.2985    3.8539    8.0123 H         1 RES1    0.0000
     65 H28       -0.1570    4.0085    6.4578 H         1 RES1    0.0000
     66 C34        0.2105    2.0889    7.0914 C.2       1 RES1    0.0000
     67 O5        -0.2344    1.0153    7.2170 O.2       1 RES1    0.0000
     68 O6         1.4967    2.3470    6.8745 O.3       1 RES1    0.0000
     69 C35        2.3781    1.2311    6.7185 C.3       1 RES1    0.0000
     70 H29        1.8910    0.5018    6.3075 H         1 RES1    0.0000
     71 H30        3.0966    1.4820    6.1153 H         1 RES1    0.0000
     72 C36        2.9233    0.7935    7.9000 C.3       1 RES1    0.0000
     73 H31        3.3958    1.5141    8.3224 H         1 RES1    0.0000
     74 H32        3.5315    0.0715    7.7231 H         1 RES1    0.0000
     75 H33        2.2222    0.4857    8.4804 H         1 RES1    0.0000
     76 O7        -0.5869    6.5146    7.0927 O.3       1 RES1    0.0000
     77 C37        0.0054    7.7865    7.2036 C.3       1 RES1    0.0000
     78 H34       -0.5582    8.4415    6.7622 H         1 RES1    0.0000
     79 H35        0.8653    7.7792    6.7565 H         1 RES1    0.0000
     80 C38        0.1962    8.1877    8.6516 C.2       1 RES1    0.0000
     81 O8         0.2474    7.4656    9.5973 O.2       1 RES1    0.0000
     82 O9         0.3534    9.4976    8.7049 O.3       1 RES1    0.0000
     83 C39        0.6331   10.0942    9.9930 C.3       1 RES1    0.0000
     84 H36        1.2382    9.5297   10.4991 H         1 RES1    0.0000
     85 H37       -0.1877   10.1963   10.4991 H         1 RES1    0.0000
     86 C40        1.2349   11.3808    9.7571 C.3       1 RES1    0.0000
     87 H38        2.0817   11.2626    9.3214 H         1 RES1    0.0000
     88 H39        1.3650   11.8301   10.5943 H         1 RES1    0.0000
     89 H40        0.6571   11.9059    9.1977 H         1 RES1    0.0000
     90 N1        -6.9535    3.9414    4.9775 N.pl3     1 RES1    0.0000
     91 O10       -7.2690    4.8093    4.1631 O.2       1 RES1    0.0000
     92 O11       -7.6416    3.6540    5.9402 O.2       1 RES1    0.0000
     93 O12       -1.3069    4.6416    4.0427 O.3       1 RES1    0.0000
     94 C41       -0.1445    4.0216    3.4934 C.3       1 RES1    0.0000
     95 H41       -0.2177    4.0114    2.5268 H         1 RES1    0.0000
     96 H42       -0.1041    3.1012    3.7978 H         1 RES1    0.0000
     97 C42        1.1183    4.7218    3.8815 C.2       1 RES1    0.0000
     98 O13        1.2232    5.6466    4.6141 O.2       1 RES1    0.0000
     99 O14        2.1436    4.1485    3.3412 O.3       1 RES1    0.0000
    100 C43        3.4486    4.8312    3.5390 C.3       1 RES1    0.0000
    101 H43        3.8639    5.0442    2.6866 H         1 RES1    0.0000
    102 H44        3.3408    5.6481    4.0509 H         1 RES1    0.0000
    103 C44        4.0647    4.0639    4.1156 C.3       1 RES1    0.0000
    104 H45        3.7941    3.1785    3.8587 H         1 RES1    0.0000
    105 H46        3.9211    4.1806    5.0574 H         1 RES1    0.0000
    106 H47        4.9951    4.1850    3.9158 H         1 RES1    0.0000
@<TRIPOS>BOND
     1    1    2 ar
     2    2    3 1
     3    4    2 ar
     4    5    4 ar
     5    6    5 1
     6    7    5 ar
     7    8    1 ar
     8    9    7 1
     9   10    9 1
    10   11    9 1
    11   12    9 1
    12   13   12 ar
    13   14   13 1
    14   15   13 ar
    15   16   15 1
    16   17   15 ar
    17   18   17 1
    18   19   17 ar
    19   20   12 ar
    20   21   19 1
    21   22   21 1
    22   23   21 1
    23   24   21 1
    24   25   24 ar
    25   26   25 1
    26   27   25 ar
    27   28   27 1
    28   29   27 ar
    29   30   29 1
    30   31   29 ar
    31   32   24 ar
    32   33   31 1
    33   34   33 1
    34   35   33 1
    35   36   33 1
    36   37   36 ar
    37   38   37 1
    38   39   37 ar
    39   40   39 1
    40   41   39 ar
    41   42   41 1
    42   43   41 ar
    43   44   36 ar
    44   45    1 1
    45   46   45 1
    46   47   45 1
    47   48    8 1
    48   49   48 1
    49   50   49 1
    50   51   49 1
    51   52   49 1
    52   53   52 2
    53   54   52 1
    54   55   54 1
    55   56   55 1
    56   57   55 1
    57   58   55 1
    58   59   58 1
    59   60   58 1
    60   61   58 1
    61   62   20 1
    62   63   62 1
    63   64   63 1
    64   65   63 1
    65   66   63 1
    66   67   66 2
    67   68   66 1
    68   69   68 1
    69   70   69 1
    70   71   69 1
    71   72   69 1
    72   73   72 1
    73   74   72 1
    74   75   72 1
    75   76   32 1
    76   77   76 1
    77   78   77 1
    78   79   77 1
    79   80   77 1
    80   81   80 2
    81   82   80 1
    82   83   82 1
    83   84   83 1
    84   85   83 1
    85   86   83 1
    86   87   86 1
    87   88   86 1
    88   89   86 1
    89   90    4 1
    90   91   90 2
    91   92   90 2
    92   93   44 1
    93   94   93 1
    94   95   94 1
    95   96   94 1
    96   97   94 1
    97   98   97 2
    98   99   97 1
    99  100   99 1
   100  101  100 1
   101  102  100 1
   102  103  100 1
   103  104  103 1
   104  105  103 1
   105  106  103 1
   106    7    8 ar
   107   19   20 ar
   108   31   32 ar
   109   43   45 1
   110   43   44 ar
@<TRIPOS>SUBSTRUCTURE
     1 RES1 1

@<TRIPOS>CRYSIN
  14.8680   14.5870   20.2900  90.0000 110.3220  90.0000 231 1

