# MOL2 file generated by ConQuest
# Please check atom types

@<TRIPOS>MOLECULE
WIXBUB01
    43    40     2
SMALL
NO_CHARGES
****
Generated from CSD

@<TRIPOS>ATOM
      1 C1         7.1927    6.7827    5.8421 C.3       1 RES1    0.0000
      2 H1         7.8076    6.3850    5.2176 H         1 RES1    0.0000
      3 H2         7.5891    6.7916    6.7169 H         1 RES1    0.0000
      4 H3         6.9971    7.6813    5.5686 H         1 RES1    0.0000
      5 C2         5.2662    5.9230    4.7167 C.ar      1 RES1    0.0000
      6 C3         5.6613    6.4273    3.4881 C.ar      1 RES1    0.0000
      7 H4         6.4668    6.8843    3.4100 H         1 RES1    0.0000
      8 C4         4.8562    6.2508    2.3793 C.ar      1 RES1    0.0000
      9 H5         5.1279    6.5891    1.5573 H         1 RES1    0.0000
     10 C5         3.6486    5.5743    2.4753 C.ar      1 RES1    0.0000
     11 C6         3.2407    5.0651    3.7151 C.ar      1 RES1    0.0000
     12 C7         4.0550    5.2488    4.8206 C.ar      1 RES1    0.0000
     13 H6         3.7872    4.9154    5.6460 H         1 RES1    0.0000
     14 C8         1.9137    4.3403    3.8703 C.3       1 RES1    0.0000
     15 H7         1.8372    4.1086    4.8190 H         1 RES1    0.0000
     16 C9         1.8824    3.0308    3.1093 C.ar      1 RES1    0.0000
     17 C10        2.4677    1.9250    3.7194 C.ar      1 RES1    0.0000
     18 H8         2.8363    2.0145    4.5687 H         1 RES1    0.0000
     19 C11        2.5102    0.6970    3.0867 C.ar      1 RES1    0.0000
     20 H9         2.8875   -0.0342    3.5197 H         1 RES1    0.0000
     21 C12        1.9938    0.5498    1.8115 C.ar      1 RES1    0.0000
     22 H10        2.0215   -0.2700    1.3728 H         1 RES1    0.0000
     23 C13        1.4388    1.6554    1.2156 C.ar      1 RES1    0.0000
     24 C14        1.3505    2.8890    1.8342 C.ar      1 RES1    0.0000
     25 H11        0.9445    3.6077    1.4063 H         1 RES1    0.0000
     26 C15        0.1621    5.8848    4.5395 C.2       1 RES1    0.0000
     27 C16       -0.9700    6.7721    4.1464 C.3       1 RES1    0.0000
     28 H12       -1.6539    6.2492    3.7223 H         1 RES1    0.0000
     29 H13       -0.6537    7.4422    3.5352 H         1 RES1    0.0000
     30 H14       -1.3311    7.1958    4.9286 H         1 RES1    0.0000
     31 N1         0.7820    5.2053    3.5682 N.am      1 RES1    0.0000
     32 H15        0.5091    5.2806    2.7559 H         1 RES1    0.0000
     33 N2         0.9655    1.5420   -0.1699 N.pl3     1 RES1    0.0000
     34 O1         5.9969    6.0263    5.8726 O.3       1 RES1    0.0000
     35 O2         2.8015    5.4055    1.4218 O.3       1 RES1    0.0000
     36 H16        3.1392    5.7238    0.7457 H         1 RES1    0.0000
     37 O3         1.1895    0.5098   -0.7748 O.2       1 RES1    0.0000
     38 O4         0.3782    2.4704   -0.6658 O.2       1 RES1    0.0000
     39 O5         0.5078    5.7571    5.7093 O.2       1 RES1    0.0000
     40 C17        6.7531    7.2218    5.9092 Du        2 SUP2    0.0000
     41 H17        7.4126    7.2080    5.2164 Du        2 SUP2    0.0000
     42 H18        7.1841    7.3024    6.7646 Du        2 SUP2    0.0000
     43 H19        6.1674    7.9741    5.7789 Du        2 SUP2    0.0000
@<TRIPOS>BOND
     1    1    2 1
     2    3    1 1
     3    4    1 1
     4    5    6 ar
     5    6    7 1
     6    8    6 ar
     7    9    8 1
     8   10    8 ar
     9   11   10 ar
    10   12    5 ar
    11   13   12 1
    12   14   11 1
    13   15   14 1
    14   16   14 1
    15   17   16 ar
    16   18   17 1
    17   19   17 ar
    18   20   19 1
    19   21   19 ar
    20   22   21 1
    21   23   21 ar
    22   24   16 ar
    23   25   24 1
    24   26   27 1
    25   27   28 1
    26   29   27 1
    27   30   27 1
    28   31   14 1
    29   32   31 1
    30   33   23 1
    31   34    1 1
    32   35   10 1
    33   36   35 1
    34   37   33 2
    35   38   33 2
    36   39   26 2
    37    5   34 1
    38   11   12 ar
    39   23   24 ar
    40   26   31 1
@<TRIPOS>SUBSTRUCTURE
     1 RES1 1
     2 SUP2 40

@<TRIPOS>CRYSIN
  15.3351    8.1327   14.5308  90.0000 117.3870  90.0000  14 1

