# MOL2 file generated by ConQuest
# Please check atom types

@<TRIPOS>MOLECULE
WIXBUB
    39    40     1
SMALL
NO_CHARGES
****
Generated from CSD

@<TRIPOS>ATOM
      1 N1         0.7827    2.9279    3.5681 N.am      1 RES1    0.0000
      2 H1         0.5091    2.8538    2.7559 H         1 RES1    0.0000
      3 C1         7.1250    1.2776    5.8486 C.3       1 RES1    0.0000
      4 H2         6.8503    0.3676    5.7157 H         1 RES1    0.0000
      5 H3         7.5942    1.3508    6.6833 H         1 RES1    0.0000
      6 H4         7.7045    1.5452    5.1325 H         1 RES1    0.0000
      7 C2         5.2651    2.2105    4.7176 C.ar      1 RES1    0.0000
      8 C3         5.6601    1.7054    3.4871 C.ar      1 RES1    0.0000
      9 H5         6.4659    1.2484    3.4088 H         1 RES1    0.0000
     10 C4         4.8560    1.8822    2.3793 C.ar      1 RES1    0.0000
     11 H6         5.1279    1.5428    1.5573 H         1 RES1    0.0000
     12 C5         3.6483    2.5586    2.4748 C.ar      1 RES1    0.0000
     13 C6         3.2416    3.0674    3.7154 C.ar      1 RES1    0.0000
     14 C7         4.0557    2.8832    4.8201 C.ar      1 RES1    0.0000
     15 H7         3.7872    3.2165    5.6460 H         1 RES1    0.0000
     16 C8         1.9145    3.7928    3.8703 C.3       1 RES1    0.0000
     17 H8         1.8372    4.0249    4.8190 H         1 RES1    0.0000
     18 C9         1.8818    5.1017    3.1093 C.ar      1 RES1    0.0000
     19 C10        2.4672    6.2075    3.7188 C.ar      1 RES1    0.0000
     20 H9         2.8370    6.1182    4.5674 H         1 RES1    0.0000
     21 C11        2.5104    7.4349    3.0861 C.ar      1 RES1    0.0000
     22 H10        2.8890    8.1660    3.5197 H         1 RES1    0.0000
     23 C12        1.9943    7.5822    1.8110 C.ar      1 RES1    0.0000
     24 H11        2.0215    8.4019    1.3728 H         1 RES1    0.0000
     25 C13        1.4405    6.4785    1.2164 C.ar      1 RES1    0.0000
     26 N2         0.9668    6.5891   -0.1703 N.pl3     1 RES1    0.0000
     27 C14        1.3518    5.2441    1.8346 C.ar      1 RES1    0.0000
     28 H12        0.9467    4.5258    1.4050 H         1 RES1    0.0000
     29 C15        0.1620    2.2471    4.5398 C.2       1 RES1    0.0000
     30 C16       -0.9678    1.3565    4.1438 C.3       1 RES1    0.0000
     31 H13       -1.1513    0.7376    4.8538 H         1 RES1    0.0000
     32 H14       -0.7299    0.8718    3.3507 H         1 RES1    0.0000
     33 H15       -1.7498    1.8884    3.9726 H         1 RES1    0.0000
     34 O1         2.8015    2.7275    1.4221 O.3       1 RES1    0.0000
     35 H16        3.1495    2.4317    0.7406 H         1 RES1    0.0000
     36 O2         5.9981    2.1072    5.8718 O.3       1 RES1    0.0000
     37 O3         0.5075    2.3737    5.7091 O.2       1 RES1    0.0000
     38 O4         1.1902    7.6226   -0.7757 O.2       1 RES1    0.0000
     39 O5         0.3790    5.6632   -0.6643 O.2       1 RES1    0.0000
@<TRIPOS>BOND
     1    1    2 1
     2    3    4 1
     3    5    3 1
     4    6    3 1
     5    7    8 ar
     6    8    9 1
     7   10    8 ar
     8   11   10 1
     9   12   10 ar
    10   13   12 ar
    11   14    7 ar
    12   15   14 1
    13   16    1 1
    14   17   16 1
    15   18   16 1
    16   19   18 ar
    17   20   19 1
    18   21   19 ar
    19   22   21 1
    20   23   21 ar
    21   24   23 1
    22   25   23 ar
    23   26   25 1
    24   27   18 ar
    25   28   27 1
    26   29    1 1
    27   30   29 1
    28   31   30 1
    29   32   30 1
    30   33   30 1
    31   34   12 1
    32   35   34 1
    33   36    3 1
    34   37   29 2
    35   38   26 2
    36   39   26 2
    37    7   36 1
    38   13   14 ar
    39   13   16 1
    40   25   27 ar
@<TRIPOS>SUBSTRUCTURE
     1 RES1 1

@<TRIPOS>CRYSIN
  15.3351    8.1327   14.5308  90.0000 117.3870  90.0000  14 1

