# MOL2 file generated by ConQuest
# Please check atom types

@<TRIPOS>MOLECULE
WIXCAI
    41    43     1
SMALL
NO_CHARGES
****
Generated from CSD

@<TRIPOS>ATOM
      1 N1         4.8376    4.6620    8.7329 N.am      1 RES1    0.0000
      2 H1         4.1550    5.1743    8.6253 H         1 RES1    0.0000
      3 N2         2.4264    3.8680    4.2705 N.pl3     1 RES1    0.0000
      4 O1         2.1283    4.1760    9.1086 O.3       1 RES1    0.0000
      5 H2         1.3272    4.3256    9.1981 H         1 RES1    0.0000
      6 O2         7.0319    4.5208    9.0555 O.2       1 RES1    0.0000
      7 O3         2.0696    4.9647    4.6375 O.2       1 RES1    0.0000
      8 O4         2.2131    3.4549    3.1561 O.2       1 RES1    0.0000
      9 C1         4.6470    3.2195    8.7040 C.3       1 RES1    0.0000
     10 H3         5.5337    2.8177    8.8175 H         1 RES1    0.0000
     11 C2         3.5435    3.5476    6.4223 C.ar      1 RES1    0.0000
     12 H4         3.4685    4.4616    6.5756 H         1 RES1    0.0000
     13 C3         4.1081    2.7188    7.3691 C.ar      1 RES1    0.0000
     14 C4         3.7935    2.7217    9.8598 C.ar      1 RES1    0.0000
     15 C5         4.2674    1.7504   10.7813 C.ar      1 RES1    0.0000
     16 C6         4.1790    1.3559    7.1063 C.ar      1 RES1    0.0000
     17 H5         4.5394    0.7879    7.7486 H         1 RES1    0.0000
     18 C7         3.3909    1.2820   11.8066 C.ar      1 RES1    0.0000
     19 C8         3.0911    2.9869    5.2369 C.ar      1 RES1    0.0000
     20 C9         2.5124    3.2205    9.9937 C.ar      1 RES1    0.0000
     21 C10        3.7257    0.8235    5.9147 C.ar      1 RES1    0.0000
     22 H6         3.7907   -0.0912    5.7584 H         1 RES1    0.0000
     23 C11        1.6582    2.7589   11.0147 C.ar      1 RES1    0.0000
     24 H7         0.7971    3.1030   11.0916 H         1 RES1    0.0000
     25 C12        5.9950    0.3021   11.6892 C.ar      1 RES1    0.0000
     26 H8         6.8673   -0.0184   11.6620 H         1 RES1    0.0000
     27 C13        6.0326    5.2127    8.9204 C.2       1 RES1    0.0000
     28 C14        3.1777    1.6463    4.9574 C.ar      1 RES1    0.0000
     29 H9         2.8763    1.3046    4.1477 H         1 RES1    0.0000
     30 C15        5.5842    1.2179   10.7605 C.ar      1 RES1    0.0000
     31 H10        6.1790    1.4983   10.1033 H         1 RES1    0.0000
     32 C16        2.0903    1.8140   11.8827 C.ar      1 RES1    0.0000
     33 H11        1.5138    1.5105   12.5461 H         1 RES1    0.0000
     34 C17        3.8605    0.3128   12.7221 C.ar      1 RES1    0.0000
     35 H12        3.2823   -0.0087   13.3769 H         1 RES1    0.0000
     36 C18        5.1250   -0.1597   12.6738 C.ar      1 RES1    0.0000
     37 H13        5.4131   -0.7891   13.2950 H         1 RES1    0.0000
     38 C19        6.1009    6.7069    8.9452 C.3       1 RES1    0.0000
     39 H14        6.6209    6.9903    9.7003 H         1 RES1    0.0000
     40 H15        5.2138    7.0665    9.0134 H         1 RES1    0.0000
     41 H16        6.5127    7.0212    8.1367 H         1 RES1    0.0000
@<TRIPOS>BOND
     1    1    2 1
     2    3    7 2
     3    4    5 1
     4    6   27 2
     5    8    3 2
     6    9    1 1
     7   10    9 1
     8   11   12 1
     9   13    9 1
    10   14    9 1
    11   15   14 ar
    12   16   13 ar
    13   17   16 1
    14   18   15 ar
    15   19    3 1
    16   20    4 1
    17   21   16 ar
    18   22   21 1
    19   23   20 ar
    20   24   23 1
    21   25   26 1
    22   27    1 1
    23   28   19 ar
    24   29   28 1
    25   30   15 ar
    26   31   30 1
    27   32   18 ar
    28   33   32 1
    29   34   18 ar
    30   35   34 1
    31   36   25 ar
    32   37   36 1
    33   38   27 1
    34   39   38 1
    35   40   38 1
    36   41   38 1
    37   11   13 ar
    38   11   19 ar
    39   14   20 ar
    40   21   28 ar
    41   23   32 ar
    42   25   30 ar
    43   34   36 ar
@<TRIPOS>SUBSTRUCTURE
     1 RES1 1

@<TRIPOS>CRYSIN
   7.5261    8.8635   13.3008  74.7200  73.7540  82.6000   2 1

