# MOL2 file generated by ConQuest
# Please check atom types

@<TRIPOS>MOLECULE
WIXGOB
    34    35     1
SMALL
NO_CHARGES
****
Generated from CSD

@<TRIPOS>ATOM
      1 O1         0.1116   -1.8226    9.4514 O.2       1 RES1    0.0000
      2 O2         1.2557   -0.9827    7.8043 O.2       1 RES1    0.0000
      3 N1         0.8121   -0.9401    8.9431 N.pl3     1 RES1    0.0000
      4 C1         1.1237    0.2414    9.7655 C.ar      1 RES1    0.0000
      5 C2         1.7177    1.3327    9.1585 C.ar      1 RES1    0.0000
      6 H1         1.9570    1.2922    8.1946 H         1 RES1    0.0000
      7 C3         1.9980    2.4446    9.9298 C.ar      1 RES1    0.0000
      8 H2         2.4133    3.1879    9.5095 H         1 RES1    0.0000
      9 C4         1.6969    2.4446   11.2920 C.ar      1 RES1    0.0000
     10 C5         1.0915    1.3213   11.8808 C.ar      1 RES1    0.0000
     11 H3         0.8556    1.3490   12.8085 H         1 RES1    0.0000
     12 C6         0.7987    0.2130   11.1115 C.ar      1 RES1    0.0000
     13 H4         0.3178   -0.6106   11.4790 H         1 RES1    0.0000
     14 C7         2.0053    3.5728   12.1182 C.1       1 RES1    0.0000
     15 C8         2.2637    4.4944   12.8437 C.1       1 RES1    0.0000
     16 C9         2.5586    5.5686   13.6377 C.1       1 RES1    0.0000
     17 C10        2.8092    6.5442   14.3075 C.1       1 RES1    0.0000
     18 O1B        5.7768   16.0228   19.8990 O.2       1 RES1    0.0000
     19 O2B        4.6327   15.1829   21.5462 O.2       1 RES1    0.0000
     20 N1B        5.0763   15.1403   20.4074 N.pl3     1 RES1    0.0000
     21 C1B        4.7646   13.9588   19.5850 C.ar      1 RES1    0.0000
     22 C2B        4.1707   12.8675   20.1919 C.ar      1 RES1    0.0000
     23 H1B        3.9313   12.9080   21.1558 H         1 RES1    0.0000
     24 C3B        3.8904   11.7556   19.4206 C.ar      1 RES1    0.0000
     25 H2B        3.4751   11.0123   19.8409 H         1 RES1    0.0000
     26 C4B        4.1915   11.7556   18.0584 C.ar      1 RES1    0.0000
     27 C5B        4.7968   12.8789   17.4697 C.ar      1 RES1    0.0000
     28 H3B        5.0327   12.8512   16.5419 H         1 RES1    0.0000
     29 C6B        5.0896   13.9872   18.2389 C.ar      1 RES1    0.0000
     30 H4B        5.5705   14.8108   17.8715 H         1 RES1    0.0000
     31 C7B        3.8831   10.6274   17.2322 C.1       1 RES1    0.0000
     32 C8B        3.6246    9.7058   16.5067 C.1       1 RES1    0.0000
     33 C9B        3.3298    8.6316   15.7128 C.1       1 RES1    0.0000
     34 C10B       3.0791    7.6560   15.0430 C.1       1 RES1    0.0000
@<TRIPOS>BOND
     1    1    3 2
     2    2    3 2
     3    3    4 1
     4    4    5 ar
     5    5    6 1
     6    7    5 ar
     7    8    7 1
     8    9    7 ar
     9   10    9 ar
    10   11   10 1
    11   12    4 ar
    12   13   12 1
    13   14    9 1
    14   15   14 3
    15   16   15 1
    16   17   16 3
    17   18   20 2
    18   19   20 2
    19   20   21 1
    20   21   22 ar
    21   22   23 1
    22   24   22 ar
    23   25   24 1
    24   26   24 ar
    25   27   26 ar
    26   28   27 1
    27   29   21 ar
    28   30   29 1
    29   31   26 1
    30   32   31 3
    31   33   32 1
    32   34   17 1
    33   10   12 ar
    34   27   29 ar
    35   33   34 3
@<TRIPOS>SUBSTRUCTURE
     1 RES1 1

@<TRIPOS>CRYSIN
   3.7441    7.1001   29.3940  90.0000  93.1200  90.0000 231 1

