# MOL2 file generated by ConQuest
# Please check atom types

@<TRIPOS>MOLECULE
WIXTUT
    57    59     1
SMALL
NO_CHARGES
****
Generated from CSD

@<TRIPOS>ATOM
      1 C1         1.1657   -0.8557    3.8678 C.3       1 RES1    0.0000
      2 H1         1.1713   -1.6551    3.3190 H         1 RES1    0.0000
      3 H2         1.3542   -1.1036    4.7868 H         1 RES1    0.0000
      4 O1        -0.0852   -0.1784    3.7697 O.3       1 RES1    0.0000
      5 C2        -0.0737    0.5366    2.5294 C.3       1 RES1    0.0000
      6 N1         1.3569    0.8999    2.4052 N.am      1 RES1    0.0000
      7 C3         2.1845    0.1624    3.3580 C.3       1 RES1    0.0000
      8 H3         2.9201   -0.2910    2.8940 H         1 RES1    0.0000
      9 C4        -0.5116   -0.3644    1.3838 C.3       1 RES1    0.0000
     10 H4         0.0628   -1.1335    1.3454 H         1 RES1    0.0000
     11 H5        -0.4556    0.1194    0.5577 H         1 RES1    0.0000
     12 H6        -1.4170   -0.6479    1.5279 H         1 RES1    0.0000
     13 C5        -0.9756    1.7395    2.6830 C.3       1 RES1    0.0000
     14 H7        -1.8529    1.4508    2.9459 H         1 RES1    0.0000
     15 H8        -1.0296    2.2072    1.8471 H         1 RES1    0.0000
     16 H9        -0.6170    2.3249    3.3543 H         1 RES1    0.0000
     17 C6         1.8398    1.6276    1.3595 C.2       1 RES1    0.0000
     18 O2         3.1815    1.6213    1.3913 O.3       1 RES1    0.0000
     19 O3         1.1399    2.1969    0.5475 O.2       1 RES1    0.0000
     20 C7         2.7243    1.0858    4.4319 C.3       1 RES1    0.0000
     21 H10        2.1560    1.8399    4.6956 H         1 RES1    0.0000
     22 C8         3.6599    0.5441    5.4753 C.3       1 RES1    0.0000
     23 H11        3.8457   -0.4184    5.4647 H         1 RES1    0.0000
     24 N2         4.1499    1.3263    4.3850 N.am      1 RES1    0.0000
     25 C9         3.9551    2.3168    0.3408 C.3       1 RES1    0.0000
     26 C10        3.5508    1.8273   -1.0388 C.3       1 RES1    0.0000
     27 H12        3.4923    0.8689   -1.0345 H         1 RES1    0.0000
     28 H13        4.2080    2.1045   -1.6813 H         1 RES1    0.0000
     29 H14        2.6977    2.1986   -1.2729 H         1 RES1    0.0000
     30 C11        3.7917    3.8199    0.5002 C.3       1 RES1    0.0000
     31 H15        2.8681    4.0558    0.3835 H         1 RES1    0.0000
     32 H16        4.3228    4.2715   -0.1596 H         1 RES1    0.0000
     33 H17        4.0807    4.0822    1.3765 H         1 RES1    0.0000
     34 C12        5.3716    1.8899    0.6711 C.3       1 RES1    0.0000
     35 H18        5.5981    2.1900    1.5548 H         1 RES1    0.0000
     36 H19        5.9784    2.2761    0.0352 H         1 RES1    0.0000
     37 H20        5.4349    0.9326    0.6323 H         1 RES1    0.0000
     38 N3         3.5827    1.2149    6.7983 N.pl3     1 RES1    0.0000
     39 O4         3.6893    0.5016    7.7801 O.2       1 RES1    0.0000
     40 O5         3.4057    2.4253    6.8273 O.2       1 RES1    0.0000
     41 C13        4.7513    2.5757    4.5515 C.2       1 RES1    0.0000
     42 O6         5.8744    2.4104    5.2555 O.3       1 RES1    0.0000
     43 O7         4.3521    3.5984    4.0651 O.2       1 RES1    0.0000
     44 C14        6.7063    3.5978    5.4158 C.3       1 RES1    0.0000
     45 H21        7.3111    3.4646    6.1633 H         1 RES1    0.0000
     46 H22        6.1398    4.3576    5.6222 H         1 RES1    0.0000
     47 C15        7.5066    3.8997    4.1843 C.ar      1 RES1    0.0000
     48 C16        8.4853    3.0118    3.7728 C.ar      1 RES1    0.0000
     49 H23        8.6187    2.2233    4.2457 H         1 RES1    0.0000
     50 C17        9.2672    3.2856    2.6637 C.ar      1 RES1    0.0000
     51 H24        9.9156    2.6778    2.3903 H         1 RES1    0.0000
     52 C18        9.0826    4.4667    1.9607 C.ar      1 RES1    0.0000
     53 H25        9.6160    4.6629    1.2252 H         1 RES1    0.0000
     54 C19        8.1043    5.3447    2.3633 C.ar      1 RES1    0.0000
     55 H26        7.9712    6.1338    1.8907 H         1 RES1    0.0000
     56 C20        7.3118    5.0664    3.4677 C.ar      1 RES1    0.0000
     57 H27        6.6492    5.6650    3.7254 H         1 RES1    0.0000
@<TRIPOS>BOND
     1    1    2 1
     2    3    1 1
     3    4    1 1
     4    5    4 1
     5    6    5 1
     6    7    1 1
     7    8    7 1
     8    9    5 1
     9   10    9 1
    10   11    9 1
    11   12    9 1
    12   13    5 1
    13   14   13 1
    14   15   13 1
    15   16   13 1
    16   17    6 1
    17   18   17 1
    18   19   17 2
    19   20    7 1
    20   21   20 1
    21   22   20 1
    22   23   22 1
    23   24   20 1
    24   25   18 1
    25   26   25 1
    26   27   26 1
    27   28   26 1
    28   29   26 1
    29   30   25 1
    30   31   30 1
    31   32   30 1
    32   33   30 1
    33   34   25 1
    34   35   34 1
    35   36   34 1
    36   37   34 1
    37   38   22 1
    38   39   38 2
    39   40   38 2
    40   41   24 1
    41   42   41 1
    42   43   41 2
    43   44   42 1
    44   45   44 1
    45   46   44 1
    46   47   44 1
    47   48   47 ar
    48   49   48 1
    49   50   48 ar
    50   51   50 1
    51   52   50 ar
    52   53   52 1
    53   54   52 ar
    54   55   54 1
    55   56   47 ar
    56   57   56 1
    57    6    7 1
    58   22   24 1
    59   54   56 ar
@<TRIPOS>SUBSTRUCTURE
     1 RES1 1

@<TRIPOS>CRYSIN
  17.9370    5.7390   20.7310  90.0000  90.0000  90.0000  19 1

