# MOL2 file generated by ConQuest
# Please check atom types

@<TRIPOS>MOLECULE
WIZGAP
    52    56     1
SMALL
NO_CHARGES
****
Generated from CSD

@<TRIPOS>ATOM
      1 C1         4.5113    2.4227    3.0450 C.2       1 RES1    0.0000
      2 C2         3.3950    3.2961    3.5770 C.3       1 RES1    0.0000
      3 H1         2.6412    3.2697    2.9208 H         1 RES1    0.0000
      4 C3         2.8710    2.7902    4.9214 C.3       1 RES1    0.0000
      5 H2         3.5167    3.0379    5.6304 H         1 RES1    0.0000
      6 H3         2.0149    3.2447    5.1233 H         1 RES1    0.0000
      7 C4         1.5861    0.9011    4.0852 C.3       1 RES1    0.0000
      8 H4         1.8100    1.1132    3.1443 H         1 RES1    0.0000
      9 H5         0.7475    1.3727    4.3180 H         1 RES1    0.0000
     10 C5         1.3911   -0.5928    4.2394 C.3       1 RES1    0.0000
     11 H6         1.1527   -0.8062    5.1760 H         1 RES1    0.0000
     12 H7         0.6555   -0.8985    3.6525 H         1 RES1    0.0000
     13 C6         2.4302   -2.7336    4.0231 C.3       1 RES1    0.0000
     14 H8         1.7058   -3.0300    3.4165 H         1 RES1    0.0000
     15 H9         2.1522   -2.9364    4.9514 H         1 RES1    0.0000
     16 C7         3.7050   -3.4976    3.6981 C.3       1 RES1    0.0000
     17 H10        3.9199   -3.3949    2.7365 H         1 RES1    0.0000
     18 H11        3.5745   -4.4606    3.8844 H         1 RES1    0.0000
     19 C8         4.8561   -2.9628    4.5406 C.3       1 RES1    0.0000
     20 H12        4.7013   -3.1907    5.4917 H         1 RES1    0.0000
     21 H13        5.7006   -3.3923    4.2559 H         1 RES1    0.0000
     22 C9         5.4692   -1.1171    3.0843 C.3       1 RES1    0.0000
     23 H14        4.7878   -1.3319    2.3991 H         1 RES1    0.0000
     24 H15        6.2911   -1.6270    2.8742 H         1 RES1    0.0000
     25 C10        5.7673    0.3636    3.0615 C.3       1 RES1    0.0000
     26 H16        6.5120    0.5625    3.6836 H         1 RES1    0.0000
     27 H17        6.0479    0.6323    2.1507 H         1 RES1    0.0000
     28 C11        3.9048    0.6758    4.7062 C.3       1 RES1    0.0000
     29 H18        4.5167    0.9090    5.4627 H         1 RES1    0.0000
     30 C12        3.7429   -0.8405    4.7248 C.3       1 RES1    0.0000
     31 H19        3.5126   -1.0987    5.6625 H         1 RES1    0.0000
     32 C13        3.8913    4.7544    3.6763 C.3       1 RES1    0.0000
     33 H20        4.6139    4.8005    4.3511 H         1 RES1    0.0000
     34 H21        4.2762    5.0205    2.8049 H         1 RES1    0.0000
     35 C14        2.8128    5.7359    4.0520 C.ar      1 RES1    0.0000
     36 C15        1.9374    6.1917    3.0884 C.ar      1 RES1    0.0000
     37 H22        1.9963    5.8558    2.2025 H         1 RES1    0.0000
     38 C16        0.9694    7.1376    3.4000 C.ar      1 RES1    0.0000
     39 H23        0.3808    7.4695    2.7324 H         1 RES1    0.0000
     40 C17        0.8824    7.5828    4.7041 C.ar      1 RES1    0.0000
     41 C18        1.7270    7.1376    5.6822 C.ar      1 RES1    0.0000
     42 H24        1.6582    7.4616    6.5723 H         1 RES1    0.0000
     43 C19        2.6747    6.2128    5.3406 C.ar      1 RES1    0.0000
     44 H25        3.2600    5.8874    6.0144 H         1 RES1    0.0000
     45 N1         4.5767    1.1329    3.4569 N.am      1 RES1    0.0000
     46 N2         2.6591    1.3437    4.9597 N.3       1 RES1    0.0000
     47 N3         2.6286   -1.2726    3.8771 N.3       1 RES1    0.0000
     48 N4         4.9772   -1.4952    4.4008 N.3       1 RES1    0.0000
     49 N5        -0.1279    8.6143    5.0229 N.pl3     1 RES1    0.0000
     50 O1         5.3148    2.8582    2.2211 O.2       1 RES1    0.0000
     51 O2        -0.8195    9.0544    4.0976 O.2       1 RES1    0.0000
     52 O3        -0.2224    8.9924    6.1800 O.2       1 RES1    0.0000
@<TRIPOS>BOND
     1    1    2 1
     2    2    3 1
     3    4    2 1
     4    5    4 1
     5    6    4 1
     6    7    8 1
     7    9    7 1
     8   10    7 1
     9   11   10 1
    10   12   10 1
    11   13   14 1
    12   15   13 1
    13   16   13 1
    14   17   16 1
    15   18   16 1
    16   19   16 1
    17   20   19 1
    18   21   19 1
    19   22   23 1
    20   24   22 1
    21   25   22 1
    22   26   25 1
    23   27   25 1
    24   28   29 1
    25   30   28 1
    26   31   30 1
    27   32    2 1
    28   33   32 1
    29   34   32 1
    30   35   32 1
    31   36   35 ar
    32   37   36 1
    33   38   36 ar
    34   39   38 1
    35   40   38 ar
    36   41   40 ar
    37   42   41 1
    38   43   35 ar
    39   44   43 1
    40   45    1 1
    41   46    4 1
    42   47   10 1
    43   48   19 1
    44   49   40 1
    45   50    1 2
    46   51   49 2
    47   52   49 2
    48    7   46 1
    49   13   47 1
    50   22   48 1
    51   25   45 1
    52   28   45 1
    53   28   46 1
    54   30   47 1
    55   30   48 1
    56   41   43 ar
@<TRIPOS>SUBSTRUCTURE
     1 RES1 1

@<TRIPOS>CRYSIN
  13.4633   13.1738   10.3885  90.0000  94.9330  90.0000  14 1

