# MOL2 file generated by ConQuest
# Please check atom types

@<TRIPOS>MOLECULE
WIZTIK
    44    45     1
SMALL
NO_CHARGES
****
Generated from CSD

@<TRIPOS>ATOM
      1 O1        13.3785    4.8588    5.8452 O.2       1 RES1    0.0000
      2 O2        12.6955    6.8482    5.4579 O.2       1 RES1    0.0000
      3 O3         2.4717    1.7639   -0.2050 O.3       1 RES1    0.0000
      4 N1        12.5687    5.6377    5.3785 N.pl3     1 RES1    0.0000
      5 C1        11.3751    5.1097    4.7149 C.ar      1 RES1    0.0000
      6 C2        11.2921    3.7519    4.4964 C.ar      1 RES1    0.0000
      7 C3        10.1622    3.2576    3.8762 C.ar      1 RES1    0.0000
      8 C4         9.1252    4.0993    3.4737 C.ar      1 RES1    0.0000
      9 C5         9.2480    5.4660    3.7372 C.ar      1 RES1    0.0000
     10 C6        10.3696    5.9817    4.3430 C.ar      1 RES1    0.0000
     11 C7         7.9550    3.5168    2.8181 C.2       1 RES1    0.0000
     12 C8         6.9194    4.1604    2.2796 C.2       1 RES1    0.0000
     13 C9         5.7658    3.5472    1.6232 C.ar      1 RES1    0.0000
     14 C10        5.5589    2.1633    1.6025 C.ar      1 RES1    0.0000
     15 C11        4.4586    1.6055    0.9929 C.ar      1 RES1    0.0000
     16 C12        3.5220    2.4204    0.3665 C.ar      1 RES1    0.0000
     17 C13        3.6968    3.7969    0.3658 C.ar      1 RES1    0.0000
     18 C14        4.8113    4.3396    0.9975 C.ar      1 RES1    0.0000
     19 C15        1.4281    2.5065   -0.8462 C.3       1 RES1    0.0000
     20 C16        0.4974    1.4950   -1.4555 C.3       1 RES1    0.0000
     21 C17       -0.7416    2.0779   -2.0966 C.3       1 RES1    0.0000
     22 C18       -1.6825    1.0016   -2.6150 C.3       1 RES1    0.0000
     23 C19       -2.9204    1.5520   -3.2908 C.3       1 RES1    0.0000
     24 H1        11.9802    3.1836    4.7596 H         1 RES1    0.0000
     25 H2        10.0906    2.3427    3.7240 H         1 RES1    0.0000
     26 H3         8.5565    6.0395    3.4973 H         1 RES1    0.0000
     27 H4        10.4496    6.8959    4.4988 H         1 RES1    0.0000
     28 H5         7.9312    2.5885    2.7715 H         1 RES1    0.0000
     29 H6         6.9323    5.0890    2.3255 H         1 RES1    0.0000
     30 H7         6.1816    1.6057    2.0115 H         1 RES1    0.0000
     31 H8         4.3410    0.6830    1.0004 H         1 RES1    0.0000
     32 H9         3.0764    4.3506   -0.0522 H         1 RES1    0.0000
     33 H10        4.9203    5.2633    1.0015 H         1 RES1    0.0000
     34 H11        1.7961    3.0838   -1.5326 H         1 RES1    0.0000
     35 H12        0.9558    3.0538   -0.1990 H         1 RES1    0.0000
     36 H13        0.2233    0.8722   -0.7642 H         1 RES1    0.0000
     37 H14        0.9848    0.9922   -2.1265 H         1 RES1    0.0000
     38 H15       -0.4792    2.6529   -2.8332 H         1 RES1    0.0000
     39 H16       -1.2104    2.6234   -1.4453 H         1 RES1    0.0000
     40 H17       -1.2027    0.4443   -3.2472 H         1 RES1    0.0000
     41 H18       -1.9542    0.4401   -1.8732 H         1 RES1    0.0000
     42 H19       -2.6625    2.0921   -4.0412 H         1 RES1    0.0000
     43 H20       -3.4148    2.0869   -2.6650 H         1 RES1    0.0000
     44 H21       -3.4693    0.8238   -3.5931 H         1 RES1    0.0000
@<TRIPOS>BOND
     1    1    4 2
     2    2    4 2
     3    3   16 1
     4    4    5 1
     5    5    6 ar
     6    6    7 ar
     7    7    8 ar
     8    8    9 ar
     9    9   10 ar
    10   10    5 ar
    11   11    8 1
    12   12   11 2
    13   13   12 1
    14   14   13 ar
    15   15   14 ar
    16   16   15 ar
    17   17   16 ar
    18   18   13 ar
    19   19    3 1
    20   20   19 1
    21   21   20 1
    22   22   21 1
    23   23   22 1
    24   24    6 1
    25   25    7 1
    26   26    9 1
    27   27   10 1
    28   28   11 1
    29   29   12 1
    30   30   14 1
    31   31   15 1
    32   32   17 1
    33   33   18 1
    34   34   19 1
    35   35   19 1
    36   36   20 1
    37   37   20 1
    38   38   21 1
    39   39   21 1
    40   40   22 1
    41   41   22 1
    42   42   23 1
    43   43   23 1
    44   44   23 1
    45   17   18 ar
@<TRIPOS>SUBSTRUCTURE
     1 RES1 1

@<TRIPOS>CRYSIN
   7.3030   10.8680   11.7100 113.2270  92.0280 104.1100   2 1

