# MOL2 file generated by ConQuest
# Please check atom types

@<TRIPOS>MOLECULE
WOBHOK
    35    36     1
SMALL
NO_CHARGES
****
Generated from CSD

@<TRIPOS>ATOM
      1 N1         8.3601    3.2596   10.4116 N.2       1 RES1    0.0000
      2 N2         5.3560    5.1729   13.8379 N.pl3     1 RES1    0.0000
      3 O1         4.5942    5.5315   12.9438 O.2       1 RES1    0.0000
      4 O2         5.1565    5.3887   15.0306 O.2       1 RES1    0.0000
      5 O3         8.1196    3.4409    1.5048 O.3       1 RES1    0.0000
      6 C1         8.0131    3.5904   11.7370 C.ar      1 RES1    0.0000
      7 C2         6.8134    4.2162   12.1158 C.ar      1 RES1    0.0000
      8 H1         6.1436    4.4654   11.4674 H         1 RES1    0.0000
      9 C3         6.5940    4.4607   13.4581 C.ar      1 RES1    0.0000
     10 C4         7.4804    4.1036   14.4591 C.ar      1 RES1    0.0000
     11 H2         7.2775    4.3045   15.4139 H         1 RES1    0.0000
     12 C5         8.6609    3.4738   14.0766 C.ar      1 RES1    0.0000
     13 H3         9.3048    3.1980   14.7373 H         1 RES1    0.0000
     14 C6         8.9215    3.2290   12.7373 C.ar      1 RES1    0.0000
     15 H4         9.7055    2.8017   12.4682 H         1 RES1    0.0000
     16 C7         7.8203    3.8992    9.4355 C.2       1 RES1    0.0000
     17 H5         7.2068    4.6302    9.5638 H         1 RES1    0.0000
     18 C8         8.1402    3.5841    8.0657 C.2       1 RES1    0.0000
     19 H6         8.8185    2.8762    7.8930 H         1 RES1    0.0000
     20 C9         7.5051    4.1958    7.0462 C.2       1 RES1    0.0000
     21 H7         6.7931    4.8146    7.2490 H         1 RES1    0.0000
     22 C10        7.7240    3.9800    5.6199 C.ar      1 RES1    0.0000
     23 C11        6.7950    4.4901    4.6981 C.ar      1 RES1    0.0000
     24 H8         6.0773    4.9951    5.0256 H         1 RES1    0.0000
     25 C12        6.9581    4.3053    3.3447 C.ar      1 RES1    0.0000
     26 H9         6.3462    4.6694    2.6977 H         1 RES1    0.0000
     27 C13        8.0687    3.6021    2.8594 C.ar      1 RES1    0.0000
     28 C14        9.0239    3.1207    3.7529 C.ar      1 RES1    0.0000
     29 H10        9.8024    2.6290    3.3961 H         1 RES1    0.0000
     30 C15        8.8396    3.2992    5.1178 C.ar      1 RES1    0.0000
     31 H11        9.5311    2.9312    5.7326 H         1 RES1    0.0000
     32 C16        9.2730    2.7911    0.9516 C.3       1 RES1    0.0000
     33 H12        9.3776    1.9109    1.3162 H         1 RES1    0.0000
     34 H13       10.0771    3.3392    1.1204 H         1 RES1    0.0000
     35 H14        9.1140    2.7428   -0.0370 H         1 RES1    0.0000
@<TRIPOS>BOND
     1    1    6 1
     2    2    3 2
     3    4    2 2
     4    5   27 1
     5    6    7 ar
     6    7    8 1
     7    9    2 1
     8   10    9 ar
     9   11   10 1
    10   12   10 ar
    11   13   12 1
    12   14    6 ar
    13   15   14 1
    14   16    1 2
    15   17   16 1
    16   18   16 1
    17   19   18 1
    18   20   18 2
    19   21   20 1
    20   22   20 1
    21   23   22 ar
    22   24   23 1
    23   25   23 ar
    24   26   25 1
    25   27   25 ar
    26   28   27 ar
    27   29   28 1
    28   30   22 ar
    29   31   30 1
    30   32    5 1
    31   33   32 1
    32   34   32 1
    33   35   32 1
    34    7    9 ar
    35   12   14 ar
    36   28   30 ar
@<TRIPOS>SUBSTRUCTURE
     1 RES1 1

@<TRIPOS>CRYSIN
  15.7883    3.9239   22.6063  90.0000 105.7670  90.0000 231 1

