# MOL2 file generated by ConQuest
# Please check atom types

@<TRIPOS>MOLECULE
WOBJAY
    39    40     1
SMALL
NO_CHARGES
****
Generated from CSD

@<TRIPOS>ATOM
      1 N1         1.4950    6.1630    3.8057 N.2       1 RES1    0.0000
      2 N2        -2.4144    6.7861    0.8537 N.pl3     1 RES1    0.0000
      3 N3         8.6154    0.7868    2.7473 N.3       1 RES1    0.0000
      4 O1        -3.4498    7.4072    0.6326 O.2       1 RES1    0.0000
      5 O2        -2.0206    5.8709    0.1479 O.2       1 RES1    0.0000
      6 C1         0.2793    6.7740    3.4226 C.ar      1 RES1    0.0000
      7 C2        -0.4672    6.4557    2.2865 C.ar      1 RES1    0.0000
      8 H1        -0.1830    5.7867    1.7064 H         1 RES1    0.0000
      9 C3        -1.6263    7.1447    2.0391 C.ar      1 RES1    0.0000
     10 C4        -2.0912    8.1337    2.8545 C.ar      1 RES1    0.0000
     11 H2        -2.8788    8.5875    2.6553 H         1 RES1    0.0000
     12 C5        -1.3643    8.4402    3.9764 C.ar      1 RES1    0.0000
     13 H3        -1.6614    9.1077    4.5510 H         1 RES1    0.0000
     14 C6        -0.2035    7.7681    4.2555 C.ar      1 RES1    0.0000
     15 H4         0.2728    7.9865    5.0239 H         1 RES1    0.0000
     16 C7         2.0457    5.3116    3.0559 C.2       1 RES1    0.0000
     17 H5         1.6195    5.1001    2.2569 H         1 RES1    0.0000
     18 C8         3.2719    4.6502    3.3449 C.2       1 RES1    0.0000
     19 H6         3.6990    4.8277    4.1515 H         1 RES1    0.0000
     20 C9         3.8304    3.7829    2.4944 C.2       1 RES1    0.0000
     21 H7         3.3482    3.6346    1.7129 H         1 RES1    0.0000
     22 C10        5.0514    3.0472    2.5973 C.ar      1 RES1    0.0000
     23 C11        5.4740    2.2440    1.5378 C.ar      1 RES1    0.0000
     24 H8         4.9492    2.2090    0.7705 H         1 RES1    0.0000
     25 C12        6.6226    1.5059    1.5750 C.ar      1 RES1    0.0000
     26 H9         6.8557    0.9876    0.8384 H         1 RES1    0.0000
     27 C13        7.4551    1.5147    2.6969 C.ar      1 RES1    0.0000
     28 C14        7.0379    2.3104    3.7750 C.ar      1 RES1    0.0000
     29 H10        7.5514    2.3328    4.5500 H         1 RES1    0.0000
     30 C15        5.8918    3.0514    3.7094 C.ar      1 RES1    0.0000
     31 H11        5.6634    3.5813    4.4383 H         1 RES1    0.0000
     32 C16        9.4195    0.7216    3.9512 C.3       1 RES1    0.0000
     33 H12       10.1640    0.1326    3.8068 H         1 RES1    0.0000
     34 H13        8.8842    0.3902    4.6758 H         1 RES1    0.0000
     35 H14        9.7430    1.5985    4.1680 H         1 RES1    0.0000
     36 C17        9.0143   -0.0315    1.6319 C.3       1 RES1    0.0000
     37 H15        9.8691   -0.4294    1.8158 H         1 RES1    0.0000
     38 H16        9.0772    0.5123    0.8428 H         1 RES1    0.0000
     39 H17        8.3632   -0.7225    1.4929 H         1 RES1    0.0000
@<TRIPOS>BOND
     1    1    6 1
     2    2    4 2
     3    3   27 1
     4    5    2 2
     5    6    7 ar
     6    7    8 1
     7    9    2 1
     8   10    9 ar
     9   11   10 1
    10   12   10 ar
    11   13   12 1
    12   14    6 ar
    13   15   14 1
    14   16    1 2
    15   17   16 1
    16   18   16 1
    17   19   18 1
    18   20   18 2
    19   21   20 1
    20   22   20 1
    21   23   22 ar
    22   24   23 1
    23   25   23 ar
    24   26   25 1
    25   27   25 ar
    26   28   27 ar
    27   29   28 1
    28   30   22 ar
    29   31   30 1
    30   32    3 1
    31   33   32 1
    32   34   32 1
    33   35   32 1
    34   36    3 1
    35   37   36 1
    36   38   36 1
    37   39   36 1
    38    7    9 ar
    39   12   14 ar
    40   28   30 ar
@<TRIPOS>SUBSTRUCTURE
     1 RES1 1

@<TRIPOS>CRYSIN
   6.7910   10.2040   12.1850 113.2000  98.9700  95.5300   2 1

