# MOL2 file generated by ConQuest
# Please check atom types

@<TRIPOS>MOLECULE
WOBLUU
    15    15     1
SMALL
NO_CHARGES
****
Generated from CSD

@<TRIPOS>ATOM
      1 N1        -0.0166    1.7246    0.5359 N.2       1 RES1    0.0000
      2 N2         0.5096    1.4156    1.7455 N.pl3     1 RES1    0.0000
      3 N3        -0.6841    3.2018    2.1206 N.2       1 RES1    0.0000
      4 O1         2.9441    2.0661    1.1026 O.2       1 RES1    0.0000
      5 C1        -0.7084    2.7848    0.8494 C.2       1 RES1    0.0000
      6 N4         2.8363    0.9097    1.4252 N.pl3     1 RES1    0.0000
      7 N5        -1.4650    3.4872   -0.1693 N.pl3     1 RES1    0.0000
      8 O2        -1.7059    2.8926   -1.2019 O.2       1 RES1    0.0000
      9 C2         1.4901    0.3866    1.8615 C.3       1 RES1    0.0000
     10 O3         3.7386    0.0980    1.4329 O.2       1 RES1    0.0000
     11 O4        -1.8045    4.6258    0.0740 O.2       1 RES1    0.0000
     12 C3         0.1026    2.3041    2.6638 C.2       1 RES1    0.0000
     13 H1         1.5906    0.1393    2.8060 H         1 RES1    0.0000
     14 H2         1.3076   -0.3363    1.2963 H         1 RES1    0.0000
     15 H3         0.3704    2.2191    3.5576 H         1 RES1    0.0000
@<TRIPOS>BOND
     1    1    2 1
     2    2    9 1
     3    3    5 1
     4    4    6 2
     5    5    1 2
     6    6    9 1
     7    7    5 1
     8    8    7 2
     9    9   13 1
    10   10    6 2
    11   11    7 2
    12   12    2 1
    13   14    9 1
    14   15   12 1
    15    3   12 2
@<TRIPOS>SUBSTRUCTURE
     1 RES1 1

@<TRIPOS>CRYSIN
   6.6305    9.2888   10.9828  90.0000 104.8370  90.0000  14 1

