# MOL2 file generated by ConQuest
# Please check atom types

@<TRIPOS>MOLECULE
WOCHAX
    32    34     1
SMALL
NO_CHARGES
****
Generated from CSD

@<TRIPOS>ATOM
      1 O1       -10.1985   -0.8974   -2.3830 O.3       1 RES1    0.0000
      2 O2       -10.8790   -2.2143   -0.7577 O.2       1 RES1    0.0000
      3 O3        -1.9976    1.0922   -5.3785 O.2       1 RES1    0.0000
      4 O4        -2.9552    1.7836   -7.1855 O.2       1 RES1    0.0000
      5 N1       -11.6242    0.2944   -3.8277 N.2       1 RES1    0.0000
      6 N2        -2.9832    1.3124   -6.0484 N.pl3     1 RES1    0.0000
      7 C1       -14.0226    0.2405   -3.4104 C.ar      1 RES1    0.0000
      8 H1       -14.1627    0.7663   -4.1766 H         1 RES1    0.0000
      9 C2       -15.0857   -0.1438   -2.6295 C.ar      1 RES1    0.0000
     10 H2       -15.9467    0.1723   -2.8332 H         1 RES1    0.0000
     11 C3       -14.9075   -1.0000   -1.5301 C.ar      1 RES1    0.0000
     12 H3       -15.6447   -1.3019   -1.0335 H         1 RES1    0.0000
     13 C4       -13.6291   -1.3888   -1.1958 C.ar      1 RES1    0.0000
     14 H4       -13.4901   -1.9327   -0.4417 H         1 RES1    0.0000
     15 C5       -12.5531   -0.9866   -1.9559 C.ar      1 RES1    0.0000
     16 C6       -12.7198   -0.1611   -3.0541 C.ar      1 RES1    0.0000
     17 C7       -11.2049   -1.4577   -1.6094 C.2       1 RES1    0.0000
     18 C8       -10.4740   -0.0419   -3.4494 C.2       1 RES1    0.0000
     19 C9        -9.2382    0.3716   -4.0973 C.2       1 RES1    0.0000
     20 H5        -9.3202    0.9514   -4.8319 H         1 RES1    0.0000
     21 C10       -8.0399    0.0225   -3.7654 C.2       1 RES1    0.0000
     22 H6        -7.9799   -0.5483   -3.0211 H         1 RES1    0.0000
     23 C11       -6.7629    0.3850   -4.3767 C.ar      1 RES1    0.0000
     24 C12       -6.6654    1.2008   -5.5481 C.ar      1 RES1    0.0000
     25 H7        -7.4404    1.5499   -5.9507 H         1 RES1    0.0000
     26 C13       -5.4307    1.4675   -6.0740 C.ar      1 RES1    0.0000
     27 H8        -5.3598    1.9904   -6.8524 H         1 RES1    0.0000
     28 C14       -4.3002    0.9813   -5.4810 C.ar      1 RES1    0.0000
     29 C15       -4.3503    0.1880   -4.3621 C.ar      1 RES1    0.0000
     30 H9        -3.5630   -0.1483   -3.9729 H         1 RES1    0.0000
     31 C16       -5.5763   -0.1019   -3.8252 C.ar      1 RES1    0.0000
     32 H10       -5.6202   -0.6465   -3.0614 H         1 RES1    0.0000
@<TRIPOS>BOND
     1    1   17 1
     2    2   17 2
     3    3    6 2
     4    4    6 2
     5    5   16 1
     6    6   28 1
     7    7    8 1
     8    9    7 ar
     9   10    9 1
    10   11    9 ar
    11   12   11 1
    12   13   11 ar
    13   14   13 1
    14   15   13 ar
    15   16    7 ar
    16   17   15 1
    17   18    1 1
    18   19   18 1
    19   20   19 1
    20   21   19 2
    21   22   21 1
    22   23   21 1
    23   24   23 ar
    24   25   24 1
    25   26   24 ar
    26   27   26 1
    27   28   26 ar
    28   29   28 ar
    29   30   29 1
    30   31   23 ar
    31   32   31 1
    32    5   18 2
    33   15   16 ar
    34   29   31 ar
@<TRIPOS>SUBSTRUCTURE
     1 RES1 1

@<TRIPOS>CRYSIN
  14.6270    7.4910   12.3440  90.0000  98.7100  90.0000   9 1

