# MOL2 file generated by ConQuest
# Please check atom types

@<TRIPOS>MOLECULE
WOCHEB
    40    42     1
SMALL
NO_CHARGES
****
Generated from CSD

@<TRIPOS>ATOM
      1 O1         4.7877    1.8733   -1.3615 O.3       1 RES1    0.0000
      2 O2         6.8268    2.5692   -1.8478 O.2       1 RES1    0.0000
      3 O3        -0.1875    2.5766    6.0364 O.2       1 RES1    0.0000
      4 O4        -1.8735    2.0137    4.8216 O.2       1 RES1    0.0000
      5 O5         5.0785   -0.1976   -7.3009 O.3       1 RES1    0.0000
      6 O6         7.2397    1.1167   -6.8487 O.3       1 RES1    0.0000
      7 N1         3.3757    0.7630   -2.8877 N.2       1 RES1    0.0000
      8 N2        -0.6830    2.2444    4.9666 N.pl3     1 RES1    0.0000
      9 C1         4.1949    0.2516   -5.0902 C.ar      1 RES1    0.0000
     10 H1         3.3889   -0.1963   -5.2752 H         1 RES1    0.0000
     11 C2         5.1703    0.3382   -6.0596 C.ar      1 RES1    0.0000
     12 C3         6.3698    1.0403   -5.8015 C.ar      1 RES1    0.0000
     13 C4         6.5881    1.5707   -4.5621 C.ar      1 RES1    0.0000
     14 H2         7.4013    2.0037   -4.3747 H         1 RES1    0.0000
     15 C5         5.6059    1.4721   -3.5705 C.ar      1 RES1    0.0000
     16 C6         4.3992    0.8295   -3.8305 C.ar      1 RES1    0.0000
     17 C7         5.8413    2.0224   -2.2523 C.2       1 RES1    0.0000
     18 C8         3.6011    1.2889   -1.7397 C.2       1 RES1    0.0000
     19 C9         2.6124    1.3283   -0.6865 C.2       1 RES1    0.0000
     20 H3         1.7915    0.8948   -0.8347 H         1 RES1    0.0000
     21 C10        2.7929    1.9398    0.4775 C.2       1 RES1    0.0000
     22 H4         3.6174    2.3747    0.5985 H         1 RES1    0.0000
     23 C11        1.8466    2.0117    1.5953 C.ar      1 RES1    0.0000
     24 C12        0.5404    1.5284    1.5381 C.ar      1 RES1    0.0000
     25 H5         0.2210    1.1533    0.7374 H         1 RES1    0.0000
     26 C13       -0.2883    1.5898    2.6357 C.ar      1 RES1    0.0000
     27 H6        -1.1640    1.2507    2.5950 H         1 RES1    0.0000
     28 C14        0.1920    2.1592    3.7946 C.ar      1 RES1    0.0000
     29 C15        1.4657    2.6627    3.8868 C.ar      1 RES1    0.0000
     30 H7         1.7718    3.0453    4.6890 H         1 RES1    0.0000
     31 C16        2.2878    2.5980    2.7798 C.ar      1 RES1    0.0000
     32 H8         3.1564    2.9548    2.8256 H         1 RES1    0.0000
     33 C17        3.9177   -0.9830   -7.5971 C.3       1 RES1    0.0000
     34 H9         3.9995   -1.3574   -8.4868 H         1 RES1    0.0000
     35 H10        3.1276   -0.4205   -7.5571 H         1 RES1    0.0000
     36 H11        3.8374   -1.6998   -6.9478 H         1 RES1    0.0000
     37 C18        8.2515    2.1110   -6.7801 C.3       1 RES1    0.0000
     38 H12        8.6999    2.1757   -7.6368 H         1 RES1    0.0000
     39 H13        8.8952    1.8701   -6.0961 H         1 RES1    0.0000
     40 H14        7.8504    2.9662   -6.5593 H         1 RES1    0.0000
@<TRIPOS>BOND
     1    1   17 1
     2    2   17 2
     3    3    8 2
     4    4    8 2
     5    5   11 1
     6    6   12 1
     7    7   16 1
     8    8   28 1
     9    9   10 1
    10   11    9 ar
    11   12   11 ar
    12   13   12 ar
    13   14   13 1
    14   15   13 ar
    15   16    9 ar
    16   17   15 1
    17   18    1 1
    18   19   18 1
    19   20   19 1
    20   21   19 2
    21   22   21 1
    22   23   21 1
    23   24   23 ar
    24   25   24 1
    25   26   24 ar
    26   27   26 1
    27   28   26 ar
    28   29   28 ar
    29   30   29 1
    30   31   23 ar
    31   32   31 1
    32   33    5 1
    33   34   33 1
    34   35   33 1
    35   36   33 1
    36   37    6 1
    37   38   37 1
    38   39   37 1
    39   40   37 1
    40    7   18 2
    41   15   16 ar
    42   29   31 ar
@<TRIPOS>SUBSTRUCTURE
     1 RES1 1

@<TRIPOS>CRYSIN
   6.8484    7.2348   16.8060  93.8010  96.7830 105.3210   2 1

