# MOL2 file generated by ConQuest
# Please check atom types

@<TRIPOS>MOLECULE
WOCTIR
    41    42     1
SMALL
NO_CHARGES
****
Generated from CSD

@<TRIPOS>ATOM
      1 O1         3.3022    1.2971    9.2268 O.3       1 RES1    0.0000
      2 O2         3.1757   -2.5737    7.1787 O.2       1 RES1    0.0000
      3 O3         1.8086   -2.6137    8.9635 O.3       1 RES1    0.0000
      4 O4         0.8105   -0.7250    5.9782 O.3       1 RES1    0.0000
      5 O5         1.0420    1.5873    5.6339 O.3       1 RES1    0.0000
      6 N1         3.2315   -0.1025    9.3817 N.2       1 RES1    0.0000
      7 C1         2.7603    1.6334    8.0265 C.2       1 RES1    0.0000
      8 C2         2.3270    0.5202    7.3835 C.2       1 RES1    0.0000
      9 C3         2.6682   -0.5330    8.2815 C.2       1 RES1    0.0000
     10 C4         2.5793   -2.0145    8.0584 C.2       1 RES1    0.0000
     11 C5         1.7234   -4.0674    8.8417 C.3       1 RES1    0.0000
     12 H1         2.6302   -4.4639    8.8203 H         1 RES1    0.0000
     13 H2         1.2521   -4.3145    8.0067 H         1 RES1    0.0000
     14 C6         0.9653   -4.5723   10.0357 C.3       1 RES1    0.0000
     15 H3         0.8905   -5.5481    9.9869 H         1 RES1    0.0000
     16 H4         0.0682   -4.1759   10.0445 H         1 RES1    0.0000
     17 H5         1.4411   -4.3216   10.8551 H         1 RES1    0.0000
     18 C7         2.7835    3.0824    7.6955 C.3       1 RES1    0.0000
     19 H6         2.3728    3.2232    6.8176 H         1 RES1    0.0000
     20 H7         3.7103    3.3979    7.6790 H         1 RES1    0.0000
     21 H8         2.2808    3.5804    8.3745 H         1 RES1    0.0000
     22 C8         1.6973    0.3862    6.0059 C.3       1 RES1    0.0000
     23 C9        -0.3999   -0.5368    6.7305 C.3       1 RES1    0.0000
     24 H9        -0.1798   -0.4629    7.6926 H         1 RES1    0.0000
     25 H10       -0.9865   -1.3254    6.6108 H         1 RES1    0.0000
     26 C10       -1.1458    0.7200    6.2833 C.3       1 RES1    0.0000
     27 C11       -0.1395    1.8578    6.4030 C.3       1 RES1    0.0000
     28 H11       -0.5544    2.6982    6.0841 H         1 RES1    0.0000
     29 H12        0.1075    1.9796    7.3541 H         1 RES1    0.0000
     30 C12        2.7472    0.1171    4.9488 C.3       1 RES1    0.0000
     31 H13        2.3152    0.0355    4.0726 H         1 RES1    0.0000
     32 H14        3.2184   -0.7152    5.1603 H         1 RES1    0.0000
     33 H15        3.3877    0.8586    4.9291 H         1 RES1    0.0000
     34 C13       -1.6215    0.5724    4.8354 C.3       1 RES1    0.0000
     35 H16       -2.0968    1.3851    4.5633 H         1 RES1    0.0000
     36 H17       -2.2249   -0.1969    4.7672 H         1 RES1    0.0000
     37 H18       -0.8478    0.4345    4.2502 H         1 RES1    0.0000
     38 C14       -2.3229    0.9845    7.2185 C.3       1 RES1    0.0000
     39 H19       -1.9953    1.0760    8.1374 H         1 RES1    0.0000
     40 H20       -2.9530    0.2357    7.1698 H         1 RES1    0.0000
     41 H21       -2.7753    1.8103    6.9493 H         1 RES1    0.0000
@<TRIPOS>BOND
     1    1    6 1
     2    2   10 2
     3    3   10 1
     4    4   22 1
     5    5   22 1
     6    6    9 2
     7    7    1 1
     8    8    7 2
     9    9    8 1
    10   10    9 1
    11   11    3 1
    12   12   11 1
    13   13   11 1
    14   14   11 1
    15   15   14 1
    16   16   14 1
    17   17   14 1
    18   18    7 1
    19   19   18 1
    20   20   18 1
    21   21   18 1
    22   22    8 1
    23   23    4 1
    24   24   23 1
    25   25   23 1
    26   26   23 1
    27   27    5 1
    28   28   27 1
    29   29   27 1
    30   30   22 1
    31   31   30 1
    32   32   30 1
    33   33   30 1
    34   34   26 1
    35   35   34 1
    36   36   34 1
    37   37   34 1
    38   38   26 1
    39   39   38 1
    40   40   38 1
    41   41   38 1
    42   26   27 1
@<TRIPOS>SUBSTRUCTURE
     1 RES1 1

@<TRIPOS>CRYSIN
   8.5710    9.5382   10.3449 105.7991  94.1123 112.6952   2 1

