# MOL2 file generated by ConQuest
# Please check atom types

@<TRIPOS>MOLECULE
WODFEB
    31    33     1
SMALL
NO_CHARGES
****
Generated from CSD

@<TRIPOS>ATOM
      1 C1         5.0024    1.5081    3.2911 C.2       1 RES1    0.0000
      2 H1         4.5085    0.7214    3.4918 H         1 RES1    0.0000
      3 C2         4.6508    2.4616    2.3578 C.2       1 RES1    0.0000
      4 H2         3.8772    2.4483    1.8068 H         1 RES1    0.0000
      5 C3         5.6417    3.4545    2.3693 C.2       1 RES1    0.0000
      6 H3         5.6595    4.2374    1.8311 H         1 RES1    0.0000
      7 C4         6.6017    3.0790    3.3223 C.2       1 RES1    0.0000
      8 C5         7.8239    3.7260    3.7229 C.2       1 RES1    0.0000
      9 C6         8.6293    3.2782    4.7609 C.2       1 RES1    0.0000
     10 C7         9.9512    3.7381    5.1257 C.2       1 RES1    0.0000
     11 H4        10.4367    4.4473    4.7215 H         1 RES1    0.0000
     12 C8        10.3618    2.9569    6.1584 C.2       1 RES1    0.0000
     13 H5        11.1927    3.0081    6.6159 H         1 RES1    0.0000
     14 C9         9.2907    2.0375    6.4211 C.2       1 RES1    0.0000
     15 H6         9.3165    1.3828    7.1102 H         1 RES1    0.0000
     16 C10        8.2341    4.9544    2.9707 C.ar      1 RES1    0.0000
     17 C11        8.4903    6.1465    3.6618 C.ar      1 RES1    0.0000
     18 H7         8.3872    6.1719    4.6046 H         1 RES1    0.0000
     19 C12        8.8937    7.2944    2.9836 C.ar      1 RES1    0.0000
     20 H8         9.0845    8.0975    3.4528 H         1 RES1    0.0000
     21 C13        9.0098    7.2322    1.6027 C.ar      1 RES1    0.0000
     22 C14        8.7573    6.0763    0.8810 C.ar      1 RES1    0.0000
     23 H9         8.8452    6.0666   -0.0657 H         1 RES1    0.0000
     24 C15        8.3740    4.9329    1.5689 C.ar      1 RES1    0.0000
     25 H10        8.2052    4.1292    1.0909 H         1 RES1    0.0000
     26 N1         6.1692    1.8789    3.8751 N.pl3     1 RES1    0.0000
     27 N2         8.2664    2.1978    5.6061 N.2       1 RES1    0.0000
     28 N3         9.4251    8.4541    0.8822 N.pl3     1 RES1    0.0000
     29 O1         9.8729    9.4069    1.5353 O.2       1 RES1    0.0000
     30 O2         9.2942    8.4586   -0.3521 O.2       1 RES1    0.0000
     31 H11        6.6035    1.4755    4.5778 H         1 RES1    0.0000
@<TRIPOS>BOND
     1    1    2 1
     2    3    1 2
     3    4    3 1
     4    5    3 1
     5    6    5 1
     6    7    5 2
     7    8    7 1
     8    9    8 2
     9   10    9 1
    10   11   10 1
    11   12   10 2
    12   13   12 1
    13   14   12 1
    14   15   14 1
    15   16    8 1
    16   17   16 ar
    17   18   17 1
    18   19   17 ar
    19   20   19 1
    20   21   19 ar
    21   22   21 ar
    22   23   22 1
    23   24   16 ar
    24   25   24 1
    25   26    1 1
    26   27    9 1
    27   28   21 1
    28   29   28 2
    29   30   28 2
    30   31   26 1
    31    7   26 1
    32   14   27 2
    33   22   24 ar
@<TRIPOS>SUBSTRUCTURE
     1 RES1 1

@<TRIPOS>CRYSIN
  14.6809    7.4146   24.3500  90.0000  90.0000  90.0000  61 1

