# MOL2 file generated by ConQuest
# Please check atom types

@<TRIPOS>MOLECULE
WODKEH
    43    43     1
SMALL
NO_CHARGES
****
Generated from CSD

@<TRIPOS>ATOM
      1 O1         6.1521    6.7270   11.1773 O.2       1 RES1    0.0000
      2 O2         5.7593    7.7109    9.2872 O.2       1 RES1    0.0000
      3 O3        11.6195    8.8363    7.4294 O.2       1 RES1    0.0000
      4 O4         9.6333    9.2735    6.6748 O.2       1 RES1    0.0000
      5 O5         9.2023    5.1059    7.9654 O.2       1 RES1    0.0000
      6 O6         8.0330    4.8048    6.1530 O.2       1 RES1    0.0000
      7 N1        10.0999    6.6176   10.4499 N.3       1 RES1    0.0000
      8 N2         6.5324    7.1817   10.0959 N.pl3     1 RES1    0.0000
      9 N3        10.3933    8.7056    7.4624 N.pl3     1 RES1    0.0000
     10 N4         8.3919    5.5290    7.1213 N.pl3     1 RES1    0.0000
     11 N5         6.2592    6.6037    5.4141 N.3       1 RES1    0.0000
     12 C1         8.7530    6.5708   10.6293 C.2       1 RES1    0.0000
     13 C2         7.9098    7.1210    9.7423 C.2       1 RES1    0.0000
     14 C3         8.3070    7.6693    8.3954 C.3       1 RES1    0.0000
     15 C4         9.7947    7.8688    8.4687 C.2       1 RES1    0.0000
     16 C5        10.6038    7.3253    9.3931 C.2       1 RES1    0.0000
     17 C6         7.8524    6.7987    7.2447 C.2       1 RES1    0.0000
     18 C7         6.8304    7.2278    6.4126 C.2       1 RES1    0.0000
     19 C8         5.0610    7.0968    4.7439 C.3       1 RES1    0.0000
     20 C9         3.8329    6.2879    5.0929 C.3       1 RES1    0.0000
     21 C10        2.5936    6.8732    4.4373 C.3       1 RES1    0.0000
     22 C11       10.9846    5.9372   11.4052 C.3       1 RES1    0.0000
     23 C12       11.1166    4.4571   11.1236 C.3       1 RES1    0.0000
     24 C13       12.0408    3.8011   12.1392 C.3       1 RES1    0.0000
     25 H1         8.3983    6.1483   11.3993 H         1 RES1    0.0000
     26 H2         7.9003    8.5218    8.2951 H         1 RES1    0.0000
     27 H3        11.5442    7.4290    9.3076 H         1 RES1    0.0000
     28 H4         6.4998    8.0967    6.5866 H         1 RES1    0.0000
     29 H5         6.6453    5.7791    5.1142 H         1 RES1    0.0000
     30 H6         5.1987    7.0553    3.8051 H         1 RES1    0.0000
     31 H7         4.9206    7.9977    5.0053 H         1 RES1    0.0000
     32 H8         3.9516    5.3961    4.7895 H         1 RES1    0.0000
     33 H9         3.7166    6.2909    6.0350 H         1 RES1    0.0000
     34 H10        1.8393    6.3458    4.6674 H         1 RES1    0.0000
     35 H11        2.4673    7.7625    4.7451 H         1 RES1    0.0000
     36 H12        2.7077    6.8745    3.4955 H         1 RES1    0.0000
     37 H13       10.6355    6.0529   12.2797 H         1 RES1    0.0000
     38 H14       11.8484    6.3341   11.3539 H         1 RES1    0.0000
     39 H15       10.2588    4.0475   11.1734 H         1 RES1    0.0000
     40 H16       11.4753    4.3275   10.2536 H         1 RES1    0.0000
     41 H17       12.1184    2.8710   11.9429 H         1 RES1    0.0000
     42 H18       11.6740    3.9042   13.0119 H         1 RES1    0.0000
     43 H19       12.8937    4.2062   12.1022 H         1 RES1    0.0000
@<TRIPOS>BOND
     1    1    8 2
     2    2    8 2
     3    3    9 2
     4    4    9 2
     5    5   10 2
     6    6   10 2
     7    7   12 1
     8    8   13 1
     9    9   15 1
    10   10   17 1
    11   11   18 1
    12   12   13 2
    13   13   14 1
    14   14   15 1
    15   15   16 2
    16   16    7 1
    17   17   14 1
    18   18   17 2
    19   19   11 1
    20   20   19 1
    21   21   20 1
    22   22    7 1
    23   23   22 1
    24   24   23 1
    25   25   12 1
    26   26   14 1
    27   27   16 1
    28   28   18 1
    29   29   11 1
    30   30   19 1
    31   31   19 1
    32   32   20 1
    33   33   20 1
    34   34   21 1
    35   35   21 1
    36   36   21 1
    37   37   22 1
    38   38   22 1
    39   39   23 1
    40   40   23 1
    41   41   24 1
    42   42   24 1
    43   43   24 1
@<TRIPOS>SUBSTRUCTURE
     1 RES1 1

@<TRIPOS>CRYSIN
   8.1250   10.0530   10.4610  87.5080  74.9010  69.2920   2 1

