# MOL2 file generated by ConQuest
# Please check atom types

@<TRIPOS>MOLECULE
WOFFON
    35    37     1
SMALL
NO_CHARGES
****
Generated from CSD

@<TRIPOS>ATOM
      1 O1         2.1764    5.8970   11.7559 O.3       1 RES1    0.0000
      2 N1         3.1094    5.4869   10.7325 N.2       1 RES1    0.0000
      3 N2         0.9749    5.3515    9.9509 N.2       1 RES1    0.0000
      4 N3        -0.1023    6.1289   11.9273 N.pl3     1 RES1    0.0000
      5 H1        -0.8593    5.9620   11.5758 H         1 RES1    0.0000
      6 C1         2.3204    5.1930    9.7277 C.2       1 RES1    0.0000
      7 C2         0.9523    5.7836   11.1957 C.2       1 RES1    0.0000
      8 C3         2.8398    4.7186    8.4304 C.ar      1 RES1    0.0000
      9 C4         4.1132    5.0733    7.9848 C.ar      1 RES1    0.0000
     10 H2         4.6731    5.6166    8.5271 H         1 RES1    0.0000
     11 C5         4.5614    4.6303    6.7467 C.ar      1 RES1    0.0000
     12 H3         5.4179    4.8940    6.4310 H         1 RES1    0.0000
     13 C6         3.7637    3.8044    5.9678 C.ar      1 RES1    0.0000
     14 H4         4.0780    3.4952    5.1255 H         1 RES1    0.0000
     15 C7         2.5041    3.4304    6.4194 C.ar      1 RES1    0.0000
     16 H5         1.9639    2.8534    5.8919 H         1 RES1    0.0000
     17 C8         2.0337    3.8989    7.6389 C.ar      1 RES1    0.0000
     18 H6         1.1629    3.6611    7.9348 H         1 RES1    0.0000
     19 C9        -0.0158    6.5924   13.3197 C.3       1 RES1    0.0000
     20 H7         0.5542    5.9474   13.8291 H         1 RES1    0.0000
     21 C10       -1.4103    6.5796   13.9325 C.3       1 RES1    0.0000
     22 H8        -1.7649    5.6553   13.9209 H         1 RES1    0.0000
     23 H9        -2.0136    7.1442   13.3866 H         1 RES1    0.0000
     24 C11       -1.3952    7.0989   15.3699 C.3       1 RES1    0.0000
     25 H10       -2.3236    7.1528   15.7076 H         1 RES1    0.0000
     26 H11       -0.8985    6.4612   15.9421 H         1 RES1    0.0000
     27 C12       -0.7442    8.4732   15.4658 C.3       1 RES1    0.0000
     28 H12       -0.7022    8.7552   16.4136 H         1 RES1    0.0000
     29 H13       -1.2911    9.1342   14.9726 H         1 RES1    0.0000
     30 C13        0.6634    8.4354   14.8805 C.3       1 RES1    0.0000
     31 H14        1.2258    7.8144   15.4078 H         1 RES1    0.0000
     32 H15        1.0683    9.3369   14.9315 H         1 RES1    0.0000
     33 C14        0.6213    7.9747   13.4239 C.3       1 RES1    0.0000
     34 H16        0.0987    8.6221   12.8862 H         1 RES1    0.0000
     35 H17        1.5407    7.9442   13.0603 H         1 RES1    0.0000
@<TRIPOS>BOND
     1    1    2 1
     2    2    6 2
     3    3    6 1
     4    4    5 1
     5    6    8 1
     6    7    1 1
     7    8    9 ar
     8    9   10 1
     9   11    9 ar
    10   12   11 1
    11   13   11 ar
    12   14   13 1
    13   15   13 ar
    14   16   15 1
    15   17    8 ar
    16   18   17 1
    17   19    4 1
    18   20   19 1
    19   21   19 1
    20   22   21 1
    21   23   21 1
    22   24   21 1
    23   25   24 1
    24   26   24 1
    25   27   24 1
    26   28   27 1
    27   29   27 1
    28   30   27 1
    29   31   30 1
    30   32   30 1
    31   33   19 1
    32   34   33 1
    33   35   33 1
    34    3    7 2
    35    4    7 1
    36   15   17 ar
    37   30   33 1
@<TRIPOS>SUBSTRUCTURE
     1 RES1 1

@<TRIPOS>CRYSIN
   5.9864    8.5920   24.2750  90.0000  95.1580  90.0000  14 1

