# MOL2 file generated by ConQuest
# Please check atom types

@<TRIPOS>MOLECULE
WOFFON01
    35    37     1
SMALL
NO_CHARGES
****
Generated from CSD

@<TRIPOS>ATOM
      1 N1         6.7012    6.5275    6.5668 N.2       1 RES1    0.0000
      2 N2         7.7382    7.8652    8.2380 N.3       1 RES1    0.0000
      3 H1         8.5465    7.6266    7.9840 H         1 RES1    0.0000
      4 N3         4.5474    6.9056    7.2058 N.2       1 RES1    0.0000
      5 C1         6.6943    7.3233    7.6166 C.2       1 RES1    0.0000
      6 C2         5.3629    6.3149    6.3634 C.2       1 RES1    0.0000
      7 C3         4.8760    5.4666    5.2560 C.ar      1 RES1    0.0000
      8 C4         7.6069    8.8423    9.3280 C.3       1 RES1    0.0000
      9 H2         6.9120    8.5122    9.9663 H         1 RES1    0.0000
     10 C5         3.6090    5.6593    4.6921 C.ar      1 RES1    0.0000
     11 H3         3.0235    6.3202    5.0421 H         1 RES1    0.0000
     12 C6         5.7212    4.4800    4.7450 C.ar      1 RES1    0.0000
     13 H4         6.5817    4.3521    5.1266 H         1 RES1    0.0000
     14 C7         8.4053   11.3377   10.6809 C.3       1 RES1    0.0000
     15 H5         9.0954   11.7006   10.0702 H         1 RES1    0.0000
     16 H6         8.3073   11.9651   11.4416 H         1 RES1    0.0000
     17 C8         5.3126    3.6833    3.6834 C.ar      1 RES1    0.0000
     18 H7         5.8841    3.0014    3.3503 H         1 RES1    0.0000
     19 C9         3.2166    4.8737    3.6149 C.ar      1 RES1    0.0000
     20 H8         2.3635    5.0114    3.2200 H         1 RES1    0.0000
     21 C10        7.1705   10.2090    8.8005 C.3       1 RES1    0.0000
     22 H9         6.2880   10.1261    8.3590 H         1 RES1    0.0000
     23 H10        7.8215   10.5259    8.1266 H         1 RES1    0.0000
     24 C11        4.0558    3.8902    3.1086 C.ar      1 RES1    0.0000
     25 H11        3.7757    3.3581    2.3732 H         1 RES1    0.0000
     26 C12        8.9366    8.9436   10.0698 C.3       1 RES1    0.0000
     27 H12        9.6496    9.2072    9.4346 H         1 RES1    0.0000
     28 H13        9.1732    8.0595   10.4469 H         1 RES1    0.0000
     29 C13        8.8513    9.9754   11.2003 C.3       1 RES1    0.0000
     30 H14        8.2094    9.6599   11.8853 H         1 RES1    0.0000
     31 H15        9.7382   10.0634   11.6318 H         1 RES1    0.0000
     32 C14        7.0774   11.2289    9.9383 C.3       1 RES1    0.0000
     33 H16        6.8329   12.1139    9.5684 H         1 RES1    0.0000
     34 H17        6.3674   10.9540   10.5702 H         1 RES1    0.0000
     35 O1         5.4574    7.6063    8.0840 O.3       1 RES1    0.0000
@<TRIPOS>BOND
     1    1    5 2
     2    2    3 1
     3    4    6 2
     4    5    2 1
     5    6    1 1
     6    7    6 1
     7    8    2 1
     8    9    8 1
     9   10    7 ar
    10   11   10 1
    11   12    7 ar
    12   13   12 1
    13   14   15 1
    14   16   14 1
    15   17   12 ar
    16   18   17 1
    17   19   10 ar
    18   20   19 1
    19   21    8 1
    20   22   21 1
    21   23   21 1
    22   24   17 ar
    23   25   24 1
    24   26    8 1
    25   27   26 1
    26   28   26 1
    27   29   14 1
    28   30   29 1
    29   31   29 1
    30   32   14 1
    31   33   32 1
    32   34   32 1
    33   35    4 1
    34    5   35 1
    35   19   24 ar
    36   21   32 1
    37   26   29 1
@<TRIPOS>SUBSTRUCTURE
     1 RES1 1

@<TRIPOS>CRYSIN
   5.8808   12.3009   17.6105  90.0000  91.4010  90.0000 231 1

