# MOL2 file generated by ConQuest
# Please check atom types

@<TRIPOS>MOLECULE
WOFJUX01
    73    76     1
SMALL
NO_CHARGES
****
Generated from CSD

@<TRIPOS>ATOM
      1 O1         9.1548    3.5921   -0.5793 O.2       1 RES1    0.0000
      2 O2         7.4378    4.8636   -0.4691 O.2       1 RES1    0.0000
      3 O3        10.2625    7.3156    3.4176 O.2       1 RES1    0.0000
      4 O4         8.8646    7.9991    1.9719 O.2       1 RES1    0.0000
      5 O5         4.2830    2.6789    3.0439 O.2       1 RES1    0.0000
      6 O6         3.2517    3.8024    1.5428 O.2       1 RES1    0.0000
      7 N1         8.2307    4.0864    0.0250 N.pl3     1 RES1    0.0000
      8 N2         9.5863    7.1593    2.4324 N.pl3     1 RES1    0.0000
      9 N3         4.2684    3.4509    2.1110 N.pl3     1 RES1    0.0000
     10 N4         6.4354    5.7622    4.3919 N.3       1 RES1    0.0000
     11 N5         7.7429    0.5282    2.4868 N.3       1 RES1    0.0000
     12 C1         8.0843    3.7508    1.4838 C.3       1 RES1    0.0000
     13 H1         8.7804    3.0973    1.7069 H         1 RES1    0.0000
     14 C2         9.5681    5.8074    1.8012 C.3       1 RES1    0.0000
     15 H2        10.3864    5.3321    2.0167 H         1 RES1    0.0000
     16 H3         9.5121    5.8953    0.8370 H         1 RES1    0.0000
     17 C3         5.5486    4.0510    1.6517 C.3       1 RES1    0.0000
     18 H4         5.7474    4.8296    2.1950 H         1 RES1    0.0000
     19 H5         5.4487    4.3472    0.7333 H         1 RES1    0.0000
     20 C4         8.3541    5.0203    2.3258 C.3       1 RES1    0.0000
     21 H6         7.5678    5.6006    2.2544 H         1 RES1    0.0000
     22 C5         8.5082    4.6218    3.7930 C.ar      1 RES1    0.0000
     23 C6         9.6200    3.8705    4.1763 C.ar      1 RES1    0.0000
     24 H7        10.2633    3.6460    3.5428 H         1 RES1    0.0000
     25 C7         9.7784    3.4528    5.4925 C.ar      1 RES1    0.0000
     26 H8        10.5286    2.9622    5.7391 H         1 RES1    0.0000
     27 C8         8.8237    3.7661    6.4231 C.ar      1 RES1    0.0000
     28 H9         8.9177    3.4702    7.3006 H         1 RES1    0.0000
     29 C9         7.7388    4.5102    6.0725 C.ar      1 RES1    0.0000
     30 H10        7.1034    4.7230    6.7177 H         1 RES1    0.0000
     31 C10        7.5601    4.9583    4.7606 C.ar      1 RES1    0.0000
     32 C11        5.1695    5.4365    5.0572 C.3       1 RES1    0.0000
     33 H11        5.2311    5.6654    5.9983 H         1 RES1    0.0000
     34 H12        5.0044    4.4835    4.9893 H         1 RES1    0.0000
     35 C12        4.0250    6.1938    4.4274 C.3       1 RES1    0.0000
     36 H13        3.9236    5.9159    3.5036 H         1 RES1    0.0000
     37 H14        3.2025    5.9838    4.8970 H         1 RES1    0.0000
     38 C13        4.2643    7.6829    4.4785 C.3       1 RES1    0.0000
     39 H15        3.5763    8.1401    3.9702 H         1 RES1    0.0000
     40 H16        4.2146    7.9892    5.3977 H         1 RES1    0.0000
     41 C14        5.6168    8.0130    3.9086 C.3       1 RES1    0.0000
     42 H17        5.7965    8.9568    4.0410 H         1 RES1    0.0000
     43 H18        5.6117    7.8417    2.9536 H         1 RES1    0.0000
     44 C15        6.7118    7.2028    4.5536 C.3       1 RES1    0.0000
     45 H19        7.5628    7.4200    4.1434 H         1 RES1    0.0000
     46 H20        6.7668    7.4212    5.4976 H         1 RES1    0.0000
     47 C16        6.7119    3.0735    1.7365 C.3       1 RES1    0.0000
     48 H21        6.7312    2.7431    2.6590 H         1 RES1    0.0000
     49 C17        6.5325    1.8512    0.8427 C.ar      1 RES1    0.0000
     50 C18        5.8720    1.9275   -0.3712 C.ar      1 RES1    0.0000
     51 H22        5.4952    2.7366   -0.6309 H         1 RES1    0.0000
     52 C19        5.7593    0.8353   -1.2050 C.ar      1 RES1    0.0000
     53 H23        5.3063    0.9102   -2.0142 H         1 RES1    0.0000
     54 C20        6.3122   -0.3493   -0.8396 C.ar      1 RES1    0.0000
     55 H24        6.2528   -1.0825   -1.4085 H         1 RES1    0.0000
     56 C21        6.9611   -0.4701    0.3667 C.ar      1 RES1    0.0000
     57 H25        7.3285   -1.2895    0.6094 H         1 RES1    0.0000
     58 C22        7.0762    0.6091    1.2249 C.ar      1 RES1    0.0000
     59 C23        8.8907   -0.3811    2.5364 C.3       1 RES1    0.0000
     60 H26        9.4587   -0.2368    1.7626 H         1 RES1    0.0000
     61 H27        8.5838   -1.3009    2.5212 H         1 RES1    0.0000
     62 C24        9.6725   -0.1212    3.8008 C.3       1 RES1    0.0000
     63 H28       10.0131    0.7881    3.7881 H         1 RES1    0.0000
     64 H29       10.4307   -0.7241    3.8400 H         1 RES1    0.0000
     65 C25        8.8145   -0.3147    5.0297 C.3       1 RES1    0.0000
     66 H30        9.3034   -0.0258    5.8149 H         1 RES1    0.0000
     67 H31        8.6058   -1.2565    5.1334 H         1 RES1    0.0000
     68 C26        7.5262    0.4795    4.9141 C.3       1 RES1    0.0000
     69 H32        6.9339    0.2343    5.6417 H         1 RES1    0.0000
     70 H33        7.7246    1.4248    4.9956 H         1 RES1    0.0000
     71 C27        6.8308    0.2305    3.6039 C.3       1 RES1    0.0000
     72 H34        6.5464   -0.6956    3.5555 H         1 RES1    0.0000
     73 H35        6.0425    0.7926    3.5403 H         1 RES1    0.0000
@<TRIPOS>BOND
     1    1    7 2
     2    2    7 2
     3    3    8 2
     4    4    8 2
     5    5    9 2
     6    6    9 2
     7    7   12 1
     8    8   14 1
     9    9   17 1
    10   10   31 1
    11   11   58 1
    12   12   13 1
    13   14   15 1
    14   16   14 1
    15   17   18 1
    16   19   17 1
    17   20   12 1
    18   21   20 1
    19   22   20 1
    20   23   22 ar
    21   24   23 1
    22   25   23 ar
    23   26   25 1
    24   27   25 ar
    25   28   27 1
    26   29   27 ar
    27   30   29 1
    28   31   22 ar
    29   32   10 1
    30   33   32 1
    31   34   32 1
    32   35   32 1
    33   36   35 1
    34   37   35 1
    35   38   35 1
    36   39   38 1
    37   40   38 1
    38   41   38 1
    39   42   41 1
    40   43   41 1
    41   44   10 1
    42   45   44 1
    43   46   44 1
    44   47   12 1
    45   48   47 1
    46   49   47 1
    47   50   49 ar
    48   51   50 1
    49   52   50 ar
    50   53   52 1
    51   54   52 ar
    52   55   54 1
    53   56   54 ar
    54   57   56 1
    55   58   49 ar
    56   59   11 1
    57   60   59 1
    58   61   59 1
    59   62   59 1
    60   63   62 1
    61   64   62 1
    62   65   62 1
    63   66   65 1
    64   67   65 1
    65   68   65 1
    66   69   68 1
    67   70   68 1
    68   71   11 1
    69   72   71 1
    70   73   71 1
    71   14   20 1
    72   17   47 1
    73   29   31 ar
    74   41   44 1
    75   56   58 ar
    76   68   71 1
@<TRIPOS>SUBSTRUCTURE
     1 RES1 1

@<TRIPOS>CRYSIN
   9.1500   12.0960   13.4250  75.0120  74.1630  75.4170   2 1

