# MOL2 file generated by ConQuest
# Please check atom types

@<TRIPOS>MOLECULE
WOFQIS
    12    13     1
SMALL
NO_CHARGES
****
Generated from CSD

@<TRIPOS>ATOM
      1 O1         0.1788   -1.8786   -9.1713 O.3       1 RES1    0.0000
      2 O2         1.2381   -3.7361   -8.2965 O.3       1 RES1    0.0000
      3 O3         1.5040   -0.6702   -3.2264 O.2       1 RES1    0.0000
      4 O4         2.2802   -2.6558   -3.4451 O.2       1 RES1    0.0000
      5 N1         1.7262   -1.6635   -3.9042 N.pl3     1 RES1    0.0000
      6 C1         0.5141   -1.6485   -7.8753 C.ar      1 RES1    0.0000
      7 C2         0.3070   -0.5152   -7.1378 C.ar      1 RES1    0.0000
      8 C3         0.7202   -0.5372   -5.8220 C.ar      1 RES1    0.0000
      9 C4         1.3135   -1.6715   -5.2978 C.ar      1 RES1    0.0000
     10 C5         1.5475   -2.8298   -6.0533 C.ar      1 RES1    0.0000
     11 C6         1.1288   -2.7678   -7.3439 C.ar      1 RES1    0.0000
     12 C7         0.6632   -3.1990   -9.4840 C.3       1 RES1    0.0000
@<TRIPOS>BOND
     1    1    6 1
     2    2   11 1
     3    3    5 2
     4    4    5 2
     5    5    9 1
     6    6    7 ar
     7    7    8 ar
     8    8    9 ar
     9    9   10 ar
    10   10   11 ar
    11   11    6 ar
    12   12    1 1
    13    2   12 1
@<TRIPOS>SUBSTRUCTURE
     1 RES1 1

@<TRIPOS>CRYSIN
   3.7800   10.0030   18.2240  90.0000  97.3300  90.0000  14 1

