# MOL2 file generated by ConQuest
# Please check atom types

@<TRIPOS>MOLECULE
WOGDUR
    40    42     1
SMALL
NO_CHARGES
****
Generated from CSD

@<TRIPOS>ATOM
      1 O1         4.0835   12.4379   -1.8712 O.2       1 RES1    0.0000
      2 O2         6.0218   15.3179   -0.9534 O.2       1 RES1    0.0000
      3 O3         2.7240   16.8290    0.8971 O.3       1 RES1    0.0000
      4 O4         0.7592   17.2985    1.8384 O.2       1 RES1    0.0000
      5 O5         2.6066   17.4154    2.9754 O.2       1 RES1    0.0000
      6 C1         1.3293   15.4971   -2.8930 C.3       1 RES1    0.0000
      7 C2         2.2397   16.7672   -2.7731 C.3       1 RES1    0.0000
      8 C3         3.0906   16.7662   -4.0281 C.3       1 RES1    0.0000
      9 C4         2.7189   15.6528   -4.8110 C.2       1 RES1    0.0000
     10 C5         1.7292   14.8804   -4.2275 C.2       1 RES1    0.0000
     11 C6         2.9996   16.5245   -1.4544 C.3       1 RES1    0.0000
     12 C7         1.9651   16.7017   -0.3512 C.3       1 RES1    0.0000
     13 C8         1.1187   15.4177   -0.4243 C.3       1 RES1    0.0000
     14 C9         1.7121   14.6957   -1.6389 C.3       1 RES1    0.0000
     15 C10        3.2147   15.0045   -1.5181 C.3       1 RES1    0.0000
     16 C11        4.6741   11.9167    0.3372 C.3       1 RES1    0.0000
     17 C12        4.2317   12.8348   -0.7427 C.2       1 RES1    0.0000
     18 C13        3.9510   14.2994   -0.3802 C.3       1 RES1    0.0000
     19 C14        5.3033   14.9541   -0.0665 C.2       1 RES1    0.0000
     20 C15        5.6722   15.1343    1.3692 C.3       1 RES1    0.0000
     21 N1         1.9533   17.2151    1.9901 N.pl3     1 RES1    0.0000
     22 H1         1.4504   17.4960   -0.4196 H         1 RES1    0.0000
     23 H2         1.7472   17.5191   -2.6972 H         1 RES1    0.0000
     24 H3         3.6358   14.7649   -2.3245 H         1 RES1    0.0000
     25 H4         0.1758   15.6191   -0.5497 H         1 RES1    0.0000
     26 H5         3.4573   14.2624    0.4168 H         1 RES1    0.0000
     27 H6         1.4591   13.7528   -1.6839 H         1 RES1    0.0000
     28 H7         3.7892   17.0858   -1.3280 H         1 RES1    0.0000
     29 H8         0.4144   15.7096   -2.8405 H         1 RES1    0.0000
     30 H9         1.2092   14.9088    0.3437 H         1 RES1    0.0000
     31 H10        3.1354   15.4202   -5.6473 H         1 RES1    0.0000
     32 H11        5.5232   12.1600    0.6312 H         1 RES1    0.0000
     33 H12        1.3263   14.2677   -4.5300 H         1 RES1    0.0000
     34 H13        5.5076   14.2855    1.8178 H         1 RES1    0.0000
     35 H14        6.5779   15.4042    1.4170 H         1 RES1    0.0000
     36 H15        4.6891   11.1354    0.1152 H         1 RES1    0.0000
     37 H16        5.1116   15.8410    1.7813 H         1 RES1    0.0000
     38 H17        4.1868   12.0321    1.1051 H         1 RES1    0.0000
     39 H18        4.0633   16.7395   -3.8286 H         1 RES1    0.0000
     40 H19        3.1868   17.5954   -4.4008 H         1 RES1    0.0000
@<TRIPOS>BOND
     1    1   17 2
     2    2   19 2
     3    3   12 1
     4    4   21 2
     5    5   21 2
     6    6    7 1
     7    7    8 1
     8    8    9 1
     9    9   10 2
    10   10    6 1
    11   11    7 1
    12   12   11 1
    13   13   12 1
    14   14    6 1
    15   15   11 1
    16   16   17 1
    17   17   18 1
    18   18   15 1
    19   19   18 1
    20   20   19 1
    21   21    3 1
    22   22   12 1
    23   23    7 1
    24   24   15 1
    25   25   13 1
    26   26   18 1
    27   27   14 1
    28   28   11 1
    29   29    6 1
    30   30   13 1
    31   31    9 1
    32   32   16 1
    33   33   10 1
    34   34   20 1
    35   35   20 1
    36   36   16 1
    37   37   20 1
    38   38   16 1
    39   39    8 1
    40   40    8 1
    41   13   14 1
    42   14   15 1
@<TRIPOS>SUBSTRUCTURE
     1 RES1 1

@<TRIPOS>CRYSIN
   8.6370   17.7570    9.9760  90.0000 110.1500  90.0000  14 1

