# MOL2 file generated by ConQuest
# Please check atom types

@<TRIPOS>MOLECULE
WOGGEE
    46    50     1
SMALL
NO_CHARGES
****
Generated from CSD

@<TRIPOS>ATOM
      1 O1         7.1345    1.1435    6.2821 O.2       1 RES1    0.0000
      2 O2         3.6501    6.1383    4.3418 O.2       1 RES1    0.0000
      3 N1         6.3152    2.1275    6.3415 N.3       1 RES1    0.0000
      4 N2         3.5665    5.3553    6.4585 N.am      1 RES1    0.0000
      5 C1         4.3635    4.1717    6.1287 C.3       1 RES1    0.0000
      6 C2         4.2093    3.1072    7.1784 C.3       1 RES1    0.0000
      7 C3         4.9253    1.8037    6.8017 C.3       1 RES1    0.0000
      8 C4         6.6709    3.3219    5.5190 C.3       1 RES1    0.0000
      9 C5         5.8352    4.5103    5.9820 C.3       1 RES1    0.0000
     10 C6         5.0420    0.9052    8.0297 C.3       1 RES1    0.0000
     11 C7         4.1710    1.0667    5.6944 C.3       1 RES1    0.0000
     12 C8         6.4453    3.0120    4.0398 C.3       1 RES1    0.0000
     13 C9         8.1529    3.6317    5.7635 C.3       1 RES1    0.0000
     14 C10        3.2326    6.2343    5.5037 C.2       1 RES1    0.0000
     15 C11        2.3305    7.3320    5.8890 C.3       1 RES1    0.0000
     16 C12        1.4254    7.5113    7.1008 C.3       1 RES1    0.0000
     17 C13        0.3265    8.0734    6.2025 C.3       1 RES1    0.0000
     18 C14        1.2342    7.8986    4.9975 C.3       1 RES1    0.0000
     19 C15        1.0892    8.9719    7.1104 C.3       1 RES1    0.0000
     20 C16        2.1133    9.7421    6.3588 C.3       1 RES1    0.0000
     21 C17        2.4248    8.7263    5.2880 C.3       1 RES1    0.0000
     22 H1         4.0566    3.8685    5.2928 H         1 RES1    0.0000
     23 H2         4.5674    3.4414    8.0412 H         1 RES1    0.0000
     24 H3         3.2753    2.8837    7.3222 H         1 RES1    0.0000
     25 H4         6.1774    4.8644    6.8343 H         1 RES1    0.0000
     26 H5         5.9977    5.2229    5.3253 H         1 RES1    0.0000
     27 H6         5.7030    1.3212    8.7679 H         1 RES1    0.0000
     28 H7         4.0957    0.7834    8.4276 H         1 RES1    0.0000
     29 H8         5.5058    0.1195    7.7901 H         1 RES1    0.0000
     30 H9         3.2752    0.7060    6.0194 H         1 RES1    0.0000
     31 H10        3.9825    1.6311    4.8604 H         1 RES1    0.0000
     32 H11        4.6510    0.3010    5.4912 H         1 RES1    0.0000
     33 H12        6.7540    3.6649    3.5202 H         1 RES1    0.0000
     34 H13        5.4512    2.9124    3.8519 H         1 RES1    0.0000
     35 H14        6.8252    2.1578    3.8068 H         1 RES1    0.0000
     36 H15        8.5998    2.8505    5.4174 H         1 RES1    0.0000
     37 H16        8.3544    4.4616    5.2343 H         1 RES1    0.0000
     38 H17        8.3137    3.7888    6.6991 H         1 RES1    0.0000
     39 H18        3.1845    5.3646    7.2350 H         1 RES1    0.0000
     40 H19        1.2883    6.9004    7.7987 H         1 RES1    0.0000
     41 H20       -0.6433    7.9052    6.2620 H         1 RES1    0.0000
     42 H21        1.0071    7.5555    4.1213 H         1 RES1    0.0000
     43 H22        0.6341    9.3105    7.9003 H         1 RES1    0.0000
     44 H23        1.7514   10.6450    5.9188 H         1 RES1    0.0000
     45 H24        2.9024    9.9833    6.9081 H         1 RES1    0.0000
     46 H25        2.9892    8.8856    4.5996 H         1 RES1    0.0000
@<TRIPOS>BOND
     1    1    3 1
     2    2   14 2
     3    3    7 1
     4    4    5 1
     5    5    6 1
     6    6    7 1
     7    7   10 1
     8    8    3 1
     9    9    5 1
    10   10   27 1
    11   11    7 1
    12   12    8 1
    13   13    8 1
    14   14    4 1
    15   15   14 1
    16   16   15 1
    17   17   16 1
    18   18   15 1
    19   19   16 1
    20   20   19 1
    21   21   15 1
    22   22    5 1
    23   23    6 1
    24   24    6 1
    25   25    9 1
    26   26    9 1
    27   28   10 1
    28   29   10 1
    29   30   11 1
    30   31   11 1
    31   32   11 1
    32   33   12 1
    33   34   12 1
    34   35   12 1
    35   36   13 1
    36   37   13 1
    37   38   13 1
    38   39    4 1
    39   40   16 1
    40   41   17 1
    41   42   18 1
    42   43   19 1
    43   44   20 1
    44   45   20 1
    45   46   21 1
    46    8    9 1
    47   17   18 1
    48   17   19 1
    49   18   21 1
    50   20   21 1
@<TRIPOS>SUBSTRUCTURE
     1 RES1 1

@<TRIPOS>CRYSIN
   7.5297   22.1310    9.9543  90.0000 105.6220  90.0000  14 1

