# MOL2 file generated by ConQuest
# Please check atom types

@<TRIPOS>MOLECULE
WOGNUB
    27    28     1
SMALL
NO_CHARGES
****
Generated from CSD

@<TRIPOS>ATOM
      1 N1         1.6456    0.6366    2.7618 N.am      1 RES1    0.0000
      2 N2         1.9579    2.0141    2.7442 N.2       1 RES1    0.0000
      3 C1         1.0728    2.5998    2.0351 C.2       1 RES1    0.0000
      4 C2         0.0351    1.6677    1.5253 C.3       1 RES1    0.0000
      5 C3         0.4502    0.3595    2.1275 C.2       1 RES1    0.0000
      6 C4         1.1471    4.0745    1.8111 C.3       1 RES1    0.0000
      7 O1        -0.0955   -0.7165    2.1107 O.2       1 RES1    0.0000
      8 C5         2.3593   -0.1775    3.6399 C.ar      1 RES1    0.0000
      9 C6         2.5536   -1.5471    3.4160 C.ar      1 RES1    0.0000
     10 C7         3.1854   -2.3462    4.3491 C.ar      1 RES1    0.0000
     11 C8         3.6834   -1.7535    5.4762 C.ar      1 RES1    0.0000
     12 C9         3.5582   -0.4024    5.7139 C.ar      1 RES1    0.0000
     13 C10        2.8809    0.3726    4.8030 C.ar      1 RES1    0.0000
     14 N3         2.2289   -2.1884    2.1382 N.pl3     1 RES1    0.0000
     15 O2         2.4741   -1.5755    1.1165 O.2       1 RES1    0.0000
     16 O3         1.8026   -3.3346    2.1856 O.2       1 RES1    0.0000
     17 N4         4.4142   -2.5863    6.4468 N.pl3     1 RES1    0.0000
     18 O4         4.4919   -3.7895    6.2137 O.2       1 RES1    0.0000
     19 O5         4.9299   -2.0296    7.4066 O.2       1 RES1    0.0000
     20 H1         2.7627    1.2861    4.9367 H         1 RES1    0.0000
     21 H2         3.9213    0.0351    6.5033 H         1 RES1    0.0000
     22 H3         3.2967   -3.2830    4.1343 H         1 RES1    0.0000
     23 H4        -0.8463    1.9011    1.8111 H         1 RES1    0.0000
     24 H5         0.0729    1.5976    0.6037 H         1 RES1    0.0000
     25 H6         1.3099    4.1857    0.9935 H         1 RES1    0.0000
     26 H7         0.3005    4.4253    2.1398 H         1 RES1    0.0000
     27 H8         1.9702    4.4733    2.3996 H         1 RES1    0.0000
@<TRIPOS>BOND
     1    1    2 1
     2    2    3 2
     3    3    4 1
     4    4    5 1
     5    5    1 1
     6    6    3 1
     7    7    5 2
     8    8    1 1
     9    9    8 ar
    10   10    9 ar
    11   11   10 ar
    12   12   11 ar
    13   13    8 ar
    14   14    9 1
    15   15   14 2
    16   16   14 2
    17   17   11 1
    18   18   17 2
    19   19   17 2
    20   20   13 1
    21   21   12 1
    22   22   10 1
    23   23    4 1
    24   24    4 1
    25   25    6 1
    26   26    6 1
    27   27    6 1
    28   12   13 ar
@<TRIPOS>SUBSTRUCTURE
     1 RES1 1

@<TRIPOS>CRYSIN
   9.4248   15.9759    7.6589  90.0000  93.8090  90.0000  14 1

