# MOL2 file generated by ConQuest
# Please check atom types

@<TRIPOS>MOLECULE
WOGVIY
    35    36     1
SMALL
NO_CHARGES
****
Generated from CSD

@<TRIPOS>ATOM
      1 O1         2.1228   -1.4419    5.9594 O.3       1 RES1    0.0000
      2 O2         0.5907    0.3525    4.9689 O.3       1 RES1    0.0000
      3 O3        -0.1115    8.9942   12.4901 O.2       1 RES1    0.0000
      4 O4         0.1604    7.9117   14.3141 O.2       1 RES1    0.0000
      5 N1         0.9504    3.1404    8.8946 N.2       1 RES1    0.0000
      6 N2         0.0660    7.9497   13.1042 N.pl3     1 RES1    0.0000
      7 C1         1.2464    1.9117    8.2416 C.ar      1 RES1    0.0000
      8 C2         2.0248    0.9155    8.7923 C.ar      1 RES1    0.0000
      9 C3         2.3322   -0.2262    8.0619 C.ar      1 RES1    0.0000
     10 C4         1.8491   -0.3866    6.7832 C.ar      1 RES1    0.0000
     11 C5         1.0313    0.6095    6.2281 C.ar      1 RES1    0.0000
     12 C6         0.7587    1.7505    6.9453 C.ar      1 RES1    0.0000
     13 C7         2.9470   -2.4858    6.4683 C.3       1 RES1    0.0000
     14 C8        -0.3349    1.2684    4.4034 C.3       1 RES1    0.0000
     15 C9         0.8317    3.1669   10.1489 C.2       1 RES1    0.0000
     16 C10        0.6099    4.4099   10.8967 C.ar      1 RES1    0.0000
     17 C11        0.4179    5.6281   10.2473 C.ar      1 RES1    0.0000
     18 C12        0.2198    6.7805   10.9669 C.ar      1 RES1    0.0000
     19 C13        0.2225    6.7090   12.3428 C.ar      1 RES1    0.0000
     20 C14        0.3958    5.5286   13.0250 C.ar      1 RES1    0.0000
     21 C15        0.5723    4.3827   12.2842 C.ar      1 RES1    0.0000
     22 H1         2.3469    1.0085    9.6593 H         1 RES1    0.0000
     23 H2         2.8684   -0.8859    8.4392 H         1 RES1    0.0000
     24 H3         0.2424    2.4225    6.5612 H         1 RES1    0.0000
     25 H4         3.0606   -3.1612    5.7952 H         1 RES1    0.0000
     26 H5         2.5323   -2.8724    7.2424 H         1 RES1    0.0000
     27 H6         3.8048   -2.1280    6.7098 H         1 RES1    0.0000
     28 H7        -0.5700    0.9813    3.5183 H         1 RES1    0.0000
     29 H8         0.0634    2.1412    4.3607 H         1 RES1    0.0000
     30 H9        -1.1252    1.3030    4.9485 H         1 RES1    0.0000
     31 H10        0.8869    2.3666   10.6206 H         1 RES1    0.0000
     32 H11        0.4246    5.6602    9.3177 H         1 RES1    0.0000
     33 H12        0.0857    7.5924   10.5336 H         1 RES1    0.0000
     34 H13        0.3931    5.5047   13.9543 H         1 RES1    0.0000
     35 H14        0.6684    3.5684   12.7235 H         1 RES1    0.0000
@<TRIPOS>BOND
     1    1   10 1
     2    2   11 1
     3    3    6 2
     4    4    6 2
     5    5    7 1
     6    6   19 1
     7    7    8 ar
     8    8    9 ar
     9    9   10 ar
    10   10   11 ar
    11   11   12 ar
    12   12    7 ar
    13   13    1 1
    14   14    2 1
    15   15    5 2
    16   16   15 1
    17   17   16 ar
    18   18   17 ar
    19   19   18 ar
    20   20   19 ar
    21   21   16 ar
    22   22    8 1
    23   23    9 1
    24   24   12 1
    25   25   13 1
    26   26   13 1
    27   27   13 1
    28   28   14 1
    29   29   14 1
    30   30   14 1
    31   31   15 1
    32   32   17 1
    33   33   18 1
    34   34   20 1
    35   35   21 1
    36   20   21 ar
@<TRIPOS>SUBSTRUCTURE
     1 RES1 1

@<TRIPOS>CRYSIN
   7.9536    8.2258   21.3418  90.0000  96.1250  90.0000  14 1

