# MOL2 file generated by ConQuest
# Please check atom types

@<TRIPOS>MOLECULE
WOJJUC
    39    41     1
SMALL
NO_CHARGES
****
Generated from CSD

@<TRIPOS>ATOM
      1 N1        -3.9624    3.1256    9.7375 N.2       1 RES1    0.0000
      2 N2        -2.8228    3.7207   10.1788 N.pl3     1 RES1    0.0000
      3 C1        -2.8274    5.1328   10.2084 C.ar      1 RES1    0.0000
      4 C2        -3.9834    5.8499    9.9005 C.ar      1 RES1    0.0000
      5 H1        -4.7910    5.3881    9.7069 H         1 RES1    0.0000
      6 C3        -3.9935    1.8511    9.5601 C.2       1 RES1    0.0000
      7 H2        -3.2296    1.3088    9.7195 H         1 RES1    0.0000
      8 C4        -3.9569    7.2342    9.8769 C.ar      1 RES1    0.0000
      9 H3        -4.7470    7.7136    9.6565 H         1 RES1    0.0000
     10 C5        -6.6967   -0.5694    8.3485 C.ar      1 RES1    0.0000
     11 H4        -6.7865   -1.4841    8.1088 H         1 RES1    0.0000
     12 C6        -5.2651    1.2719    9.0987 C.ar      1 RES1    0.0000
     13 C7        -2.7948    7.9294   10.1707 C.ar      1 RES1    0.0000
     14 H5        -2.7757    8.8782   10.1308 H         1 RES1    0.0000
     15 C8        -0.0396    1.8256   11.7387 C.ar      1 RES1    0.0000
     16 H6         0.2252    1.5213   12.5987 H         1 RES1    0.0000
     17 C9        -6.4224    2.0697    9.0954 C.ar      1 RES1    0.0000
     18 H7        -6.3519    2.9781    9.3627 H         1 RES1    0.0000
     19 C10       -0.8077    2.7131    9.2278 C.ar      1 RES1    0.0000
     20 H8        -1.0715    3.0178    8.3670 H         1 RES1    0.0000
     21 C11       -1.5963    2.9800   10.3340 C.ar      1 RES1    0.0000
     22 C12       -1.6702    5.8290   10.5492 C.ar      1 RES1    0.0000
     23 H9        -0.8865    5.3545   10.7992 H         1 RES1    0.0000
     24 C13       -1.2205    2.5332   11.5901 C.ar      1 RES1    0.0000
     25 H10       -1.7689    2.7108   12.3448 H         1 RES1    0.0000
     26 O1        -4.5899   -2.1986    8.6314 O.2       1 RES1    0.0000
     27 N3        -4.3294   -1.0012    8.5909 N.pl3     1 RES1    0.0000
     28 C14       -5.4500   -0.0595    8.6947 C.ar      1 RES1    0.0000
     29 C15       -7.6547    1.5826    8.7186 C.ar      1 RES1    0.0000
     30 H11       -8.4085    2.1602    8.7080 H         1 RES1    0.0000
     31 C16        0.7579    1.5585   10.6389 C.ar      1 RES1    0.0000
     32 H12        1.5690    1.0751   10.7436 H         1 RES1    0.0000
     33 C17        0.3686    1.9991    9.3855 C.ar      1 RES1    0.0000
     34 H13        0.9110    1.8109    8.6293 H         1 RES1    0.0000
     35 C18       -7.8002    0.2519    8.3537 C.ar      1 RES1    0.0000
     36 H14       -8.6528   -0.0882    8.1099 H         1 RES1    0.0000
     37 O2        -3.1927   -0.5649    8.4365 O.2       1 RES1    0.0000
     38 C19       -1.6638    7.2173   10.5229 C.ar      1 RES1    0.0000
     39 H15       -0.8697    7.6850   10.7509 H         1 RES1    0.0000
@<TRIPOS>BOND
     1    1    2 1
     2    2    3 1
     3    3    4 ar
     4    4    5 1
     5    6    1 2
     6    7    6 1
     7    8    4 ar
     8    9    8 1
     9   10   11 1
    10   12    6 1
    11   13    8 ar
    12   14   13 1
    13   15   16 1
    14   17   12 ar
    15   18   17 1
    16   19   20 1
    17   21    2 1
    18   22    3 ar
    19   23   22 1
    20   24   15 ar
    21   25   24 1
    22   26   27 2
    23   27   28 1
    24   28   10 ar
    25   29   17 ar
    26   30   29 1
    27   31   15 ar
    28   32   31 1
    29   33   19 ar
    30   34   33 1
    31   35   10 ar
    32   36   35 1
    33   37   27 2
    34   38   13 ar
    35   39   38 1
    36   12   28 ar
    37   19   21 ar
    38   21   24 ar
    39   22   38 ar
    40   29   35 ar
    41   31   33 ar
@<TRIPOS>SUBSTRUCTURE
     1 RES1 1

@<TRIPOS>CRYSIN
  11.8536   12.4293   11.9492  90.0000 118.5840  90.0000 231 1

