# MOL2 file generated by ConQuest
# Please check atom types

@<TRIPOS>MOLECULE
WOJPES
    56    58     1
SMALL
NO_CHARGES
****
Generated from CSD

@<TRIPOS>ATOM
      1 N1         4.3995    1.5250   12.2652 N.pl3     1 RES1    0.0000
      2 N2         8.0721    3.0667   10.2926 N.pl3     1 RES1    0.0000
      3 N3         9.7434   -1.2728    8.5515 N.pl3     1 RES1    0.0000
      4 C1         3.0257   -3.0282   13.5730 C.3       1 RES1    0.0000
      5 H1         2.3615   -2.4936   14.0142 H         1 RES1    0.0000
      6 H2         3.5233   -3.5242   14.2274 H         1 RES1    0.0000
      7 H3         2.5961   -3.6373   12.9675 H         1 RES1    0.0000
      8 C2         3.9630   -2.1308   12.8033 C.ar      1 RES1    0.0000
      9 C3         3.8196   -0.7583   12.8478 C.ar      1 RES1    0.0000
     10 H4         3.1484   -0.3863   13.3734 H         1 RES1    0.0000
     11 C4         4.6588    0.0762   12.1215 C.ar      1 RES1    0.0000
     12 C5         5.6990   -0.4106   11.3131 C.ar      1 RES1    0.0000
     13 C6         5.8177   -1.8090   11.2880 C.ar      1 RES1    0.0000
     14 H5         6.4832   -2.1919   10.7635 H         1 RES1    0.0000
     15 C7         4.9861   -2.6369   12.0132 C.ar      1 RES1    0.0000
     16 H6         5.1144   -3.5577   11.9721 H         1 RES1    0.0000
     17 C8         6.6215    0.4340   10.5127 C.2       1 RES1    0.0000
     18 H7         6.3207    1.2669   10.2299 H         1 RES1    0.0000
     19 C9         7.8530    0.0654   10.1786 C.2       1 RES1    0.0000
     20 H8         8.1416   -0.7642   10.4830 H         1 RES1    0.0000
     21 C10        8.7965    0.8446    9.3759 C.ar      1 RES1    0.0000
     22 C11        8.8918    2.2506    9.3622 C.ar      1 RES1    0.0000
     23 C12        9.7434    2.9502    8.5515 C.ar      1 RES1    0.0000
     24 H9         9.7434    3.8803    8.5515 H         1 RES1    0.0000
     25 C13        9.7434    0.2153    8.5515 C.ar      1 RES1    0.0000
     26 O1         3.9409    1.9180   13.3404 O.2       1 RES1    0.0000
     27 O2         4.6393    2.2648   11.3633 O.2       1 RES1    0.0000
     28 O3         8.2392    2.8908   11.4910 O.2       1 RES1    0.0000
     29 O4         7.3319    3.9013    9.8069 O.2       1 RES1    0.0000
     30 O5        10.7616   -1.8384    8.9027 O.2       1 RES1    0.0000
     31 N1A       15.0874    1.5250    4.8379 N.pl3     1 RES1    0.0000
     32 N2A       11.4148    3.0667    6.8104 N.pl3     1 RES1    0.0000
     33 C1A       16.4611   -3.0282    3.5301 C.3       1 RES1    0.0000
     34 H1A       17.1253   -2.4936    3.0888 H         1 RES1    0.0000
     35 H2A       15.9636   -3.5242    2.8756 H         1 RES1    0.0000
     36 H3A       16.8907   -3.6373    4.1355 H         1 RES1    0.0000
     37 C2A       15.5238   -2.1308    4.2997 C.ar      1 RES1    0.0000
     38 C3A       15.6673   -0.7583    4.2552 C.ar      1 RES1    0.0000
     39 H4A       16.3385   -0.3863    3.7296 H         1 RES1    0.0000
     40 C4A       14.8280    0.0762    4.9815 C.ar      1 RES1    0.0000
     41 C5A       13.7879   -0.4106    5.7899 C.ar      1 RES1    0.0000
     42 C6A       13.6692   -1.8090    5.8150 C.ar      1 RES1    0.0000
     43 H5A       13.0037   -2.1919    6.3395 H         1 RES1    0.0000
     44 C7A       14.5007   -2.6369    5.0899 C.ar      1 RES1    0.0000
     45 H6A       14.3724   -3.5577    5.1309 H         1 RES1    0.0000
     46 C8A       12.8653    0.4340    6.5904 C.2       1 RES1    0.0000
     47 H7A       13.1661    1.2669    6.8731 H         1 RES1    0.0000
     48 C9A       11.6339    0.0654    6.9244 C.2       1 RES1    0.0000
     49 H8A       11.3453   -0.7642    6.6200 H         1 RES1    0.0000
     50 C10A      10.6903    0.8446    7.7271 C.ar      1 RES1    0.0000
     51 C11A      10.5950    2.2506    7.7408 C.ar      1 RES1    0.0000
     52 O1A       15.5459    1.9180    3.7627 O.2       1 RES1    0.0000
     53 O2A       14.8476    2.2648    5.7398 O.2       1 RES1    0.0000
     54 O3A       11.2476    2.8908    5.6121 O.2       1 RES1    0.0000
     55 O4A       12.1550    3.9013    7.2962 O.2       1 RES1    0.0000
     56 O5A        8.7252   -1.8384    8.2003 O.2       1 RES1    0.0000
@<TRIPOS>BOND
     1    1   11 1
     2    2   22 1
     3    3   25 1
     4    4    5 1
     5    6    4 1
     6    7    4 1
     7    8    4 1
     8    9    8 ar
     9   10    9 1
    10   11    9 ar
    11   12   11 ar
    12   13   12 ar
    13   14   13 1
    14   15    8 ar
    15   16   15 1
    16   17   12 1
    17   18   17 1
    18   19   17 2
    19   20   19 1
    20   21   19 1
    21   22   21 ar
    22   23   22 ar
    23   24   23 1
    24   25   21 ar
    25   26    1 2
    26   27    1 2
    27   28    2 2
    28   29    2 2
    29   30    3 2
    30   31   40 1
    31   32   51 1
    32   33   34 1
    33   35   33 1
    34   36   33 1
    35   37   33 1
    36   38   37 ar
    37   39   38 1
    38   40   38 ar
    39   41   40 ar
    40   42   41 ar
    41   43   42 1
    42   44   37 ar
    43   45   44 1
    44   46   41 1
    45   47   46 1
    46   48   46 2
    47   49   48 1
    48   50   25 ar
    49   51   23 ar
    50   52   31 2
    51   53   31 2
    52   54   32 2
    53   55   32 2
    54   56    3 2
    55   13   15 ar
    56   42   44 ar
    57   48   50 1
    58   50   51 ar
@<TRIPOS>SUBSTRUCTURE
     1 RES1 1

@<TRIPOS>CRYSIN
  24.4800    8.3790   11.8780  90.0000 106.2750  90.0000  15 1

