# MOL2 file generated by ConQuest
# Please check atom types

@<TRIPOS>MOLECULE
WOKCUU
    69    74     1
SMALL
NO_CHARGES
****
Generated from CSD

@<TRIPOS>ATOM
      1 N1        -2.9438  -30.8301  -12.3225 N.3       1 RES1    0.0000
      2 O1        -3.6552  -33.5656   -6.9120 O.3       1 RES1    0.0000
      3 O2        -1.6253  -34.2260   -7.6865 O.3       1 RES1    0.0000
      4 O3        -2.6886  -36.8864   -9.8407 O.3       1 RES1    0.0000
      5 O4        -3.7540  -35.4818  -11.2487 O.3       1 RES1    0.0000
      6 O5        -4.3602  -33.7916   -9.1133 O.3       1 RES1    0.0000
      7 O6        -2.4952  -28.0077  -11.0732 O.3       1 RES1    0.0000
      8 O7        -4.0765  -26.9187  -12.3222 O.3       1 RES1    0.0000
      9 O8        -4.9090  -28.6549  -14.5844 O.3       1 RES1    0.0000
     10 O9        -3.4337  -29.1537  -16.2144 O.2       1 RES1    0.0000
     11 O10       -3.0095  -32.2580  -12.0914 O.3       1 RES1    0.0000
     12 C1        -3.9074  -34.4655   -7.9661 C.3       1 RES1    0.0000
     13 H1        -4.5912  -35.1084   -7.6812 H         1 RES1    0.0000
     14 C2        -2.5689  -35.1997   -8.1279 C.3       1 RES1    0.0000
     15 H2        -2.5429  -35.9811   -7.5384 H         1 RES1    0.0000
     16 C3        -2.1568  -35.6008   -9.5476 C.3       1 RES1    0.0000
     17 H3        -1.1795  -35.6235   -9.6150 H         1 RES1    0.0000
     18 C4        -2.7311  -34.6843  -10.6394 C.3       1 RES1    0.0000
     19 H4        -2.0396  -34.4533  -11.2936 H         1 RES1    0.0000
     20 C5        -3.3538  -33.4343  -10.0562 C.3       1 RES1    0.0000
     21 H5        -2.6595  -32.9129   -9.6016 H         1 RES1    0.0000
     22 C6        -4.0383  -32.5548  -11.0878 C.3       1 RES1    0.0000
     23 H6        -4.7999  -33.0204  -11.4931 H         1 RES1    0.0000
     24 C7        -4.4646  -31.1997  -10.5217 C.3       1 RES1    0.0000
     25 H7        -4.5163  -31.2200   -9.5530 H         1 RES1    0.0000
     26 H8        -5.3199  -30.9174  -10.8821 H         1 RES1    0.0000
     27 C8        -3.3265  -30.2908  -11.0025 C.3       1 RES1    0.0000
     28 H9        -2.5667  -30.4048  -10.3941 H         1 RES1    0.0000
     29 C9        -3.6847  -28.8124  -11.0465 C.3       1 RES1    0.0000
     30 H10       -4.2116  -28.5844  -10.2521 H         1 RES1    0.0000
     31 C10       -4.4108  -28.3100  -12.2947 C.3       1 RES1    0.0000
     32 H11       -5.3784  -28.4193  -12.1859 H         1 RES1    0.0000
     33 C11       -3.9468  -29.0175  -13.5563 C.3       1 RES1    0.0000
     34 H12       -3.0515  -28.7094  -13.8070 H         1 RES1    0.0000
     35 C12       -3.9445  -30.5243  -13.3550 C.3       1 RES1    0.0000
     36 H13       -4.8220  -30.8274  -13.0720 H         1 RES1    0.0000
     37 H14       -3.7177  -30.9724  -14.1853 H         1 RES1    0.0000
     38 C13       -3.3250  -36.8311  -11.1274 C.3       1 RES1    0.0000
     39 C14       -2.3441  -37.1794  -12.2372 C.3       1 RES1    0.0000
     40 H15       -2.0695  -38.0941  -12.1464 H         1 RES1    0.0000
     41 H16       -1.5752  -36.6063  -12.1761 H         1 RES1    0.0000
     42 H17       -2.7679  -37.0564  -13.0899 H         1 RES1    0.0000
     43 C15       -4.5151  -37.7453  -11.1139 C.3       1 RES1    0.0000
     44 H18       -4.2191  -38.6543  -11.0393 H         1 RES1    0.0000
     45 H19       -5.0118  -37.6365  -11.9280 H         1 RES1    0.0000
     46 H20       -5.0766  -37.5290  -10.3654 H         1 RES1    0.0000
     47 C16       -2.9272  -26.7102  -11.4706 C.3       1 RES1    0.0000
     48 C17       -1.8254  -26.0505  -12.2533 C.3       1 RES1    0.0000
     49 H21       -2.1085  -25.1760  -12.5292 H         1 RES1    0.0000
     50 H22       -1.6222  -26.5814  -13.0270 H         1 RES1    0.0000
     51 H23       -1.0429  -25.9737  -11.7025 H         1 RES1    0.0000
     52 C18       -3.3591  -25.8840  -10.2692 C.3       1 RES1    0.0000
     53 H24       -3.6464  -25.0160  -10.5640 H         1 RES1    0.0000
     54 H25       -2.6194  -25.7887   -9.6645 H         1 RES1    0.0000
     55 H26       -4.0837  -26.3263   -9.8208 H         1 RES1    0.0000
     56 C19       -4.5215  -28.7674  -15.8765 C.2       1 RES1    0.0000
     57 C20       -5.6100  -28.3125  -16.7958 C.3       1 RES1    0.0000
     58 H27       -6.3769  -28.0517  -16.2800 H         1 RES1    0.0000
     59 H28       -5.8503  -29.0295  -17.3870 H         1 RES1    0.0000
     60 H29       -5.3021  -27.5641  -17.3107 H         1 RES1    0.0000
     61 C21       -2.2480  -33.4393   -6.6775 C.3       1 RES1    0.0000
     62 C22       -1.9064  -33.9581   -5.3044 C.3       1 RES1    0.0000
     63 H30       -2.3325  -33.4105   -4.6404 H         1 RES1    0.0000
     64 H31       -0.9550  -33.9306   -5.1795 H         1 RES1    0.0000
     65 H32       -2.2146  -34.8634   -5.2191 H         1 RES1    0.0000
     66 C23       -1.8169  -31.9967   -6.8743 C.3       1 RES1    0.0000
     67 H33       -2.2276  -31.4450   -6.2039 H         1 RES1    0.0000
     68 H34       -2.0890  -31.6976   -7.7450 H         1 RES1    0.0000
     69 H35       -0.8623  -31.9352   -6.7988 H         1 RES1    0.0000
@<TRIPOS>BOND
     1    1   11 1
     2    2   12 1
     3    3   14 1
     4    4   16 1
     5    5   18 1
     6    6   12 1
     7    7   29 1
     8    8   31 1
     9    9   33 1
    10   10   56 2
    11   11   22 1
    12   12   13 1
    13   14   12 1
    14   15   14 1
    15   16   14 1
    16   17   16 1
    17   18   16 1
    18   19   18 1
    19   20    6 1
    20   21   20 1
    21   22   20 1
    22   23   22 1
    23   24   22 1
    24   25   24 1
    25   26   24 1
    26   27    1 1
    27   28   27 1
    28   29   27 1
    29   30   29 1
    30   31   29 1
    31   32   31 1
    32   33   31 1
    33   34   33 1
    34   35    1 1
    35   36   35 1
    36   37   35 1
    37   38    4 1
    38   39   38 1
    39   40   39 1
    40   41   39 1
    41   42   39 1
    42   43   38 1
    43   44   43 1
    44   45   43 1
    45   46   43 1
    46   47    7 1
    47   48   47 1
    48   49   48 1
    49   50   48 1
    50   51   48 1
    51   52   47 1
    52   53   52 1
    53   54   52 1
    54   55   52 1
    55   56    9 1
    56   57   56 1
    57   58   57 1
    58   59   57 1
    59   60   57 1
    60   61    2 1
    61   62   61 1
    62   63   62 1
    63   64   62 1
    64   65   62 1
    65   66   61 1
    66   67   66 1
    67   68   66 1
    68   69   66 1
    69    3   61 1
    70    5   38 1
    71    8   47 1
    72   18   20 1
    73   24   27 1
    74   33   35 1
@<TRIPOS>SUBSTRUCTURE
     1 RES1 1

@<TRIPOS>CRYSIN
   5.4170   25.0060    9.0510  90.0000  96.8700  90.0000   4 1

