# MOL2 file generated by ConQuest
# Please check atom types

@<TRIPOS>MOLECULE
WOKCAB
    41    44     1
SMALL
NO_CHARGES
****
Generated from CSD

@<TRIPOS>ATOM
      1 O1        -3.9323   -1.5689  -10.0125 O.3       1 RES1    0.0000
      2 O2        -9.0566   -2.2460   -5.7584 O.3       1 RES1    0.0000
      3 O3        -0.6387   -2.1875   -2.1010 O.3       1 RES1    0.0000
      4 N1        -2.7139   -1.4894   -9.3745 N.2       1 RES1    0.0000
      5 N2        -4.9625   -1.8872   -9.1314 N.2       1 RES1    0.0000
      6 N3        -6.3284   -2.5464   -6.5467 N.3       1 RES1    0.0000
      7 N4        -1.7157   -2.2830   -4.7176 N.3       1 RES1    0.0000
      8 N5        -0.6990   -1.6293   -7.2299 N.3       1 RES1    0.0000
      9 C1        -4.9460   -2.3004   -6.6690 C.2       1 RES1    0.0000
     10 C2        -4.0318   -2.3548   -5.6664 C.2       1 RES1    0.0000
     11 H1        -4.3472   -2.5282   -4.8088 H         1 RES1    0.0000
     12 C3        -2.6068   -2.1667   -5.8261 C.2       1 RES1    0.0000
     13 C4        -2.0579   -1.8517   -7.0375 C.2       1 RES1    0.0000
     14 C5        -2.9761   -1.7461   -8.1125 C.2       1 RES1    0.0000
     15 C6        -4.3821   -1.9875   -7.9575 C.2       1 RES1    0.0000
     16 C7        -7.1806   -1.4775   -7.0788 C.3       1 RES1    0.0000
     17 H2        -6.9079   -1.2649   -7.9847 H         1 RES1    0.0000
     18 H3        -7.0786   -0.6801   -6.5366 H         1 RES1    0.0000
     19 C8        -8.6160   -1.9059   -7.0749 C.3       1 RES1    0.0000
     20 H4        -9.1656   -1.1850   -7.4215 H         1 RES1    0.0000
     21 H5        -8.7241   -2.6727   -7.6583 H         1 RES1    0.0000
     22 C9        -8.2386   -3.2950   -5.2450 C.3       1 RES1    0.0000
     23 H6        -8.3410   -4.0822   -5.8020 H         1 RES1    0.0000
     24 H7        -8.5350   -3.5228   -4.3492 H         1 RES1    0.0000
     25 C10       -6.7806   -2.9022   -5.2014 C.3       1 RES1    0.0000
     26 H8        -6.6618   -2.1474   -4.6047 H         1 RES1    0.0000
     27 H9        -6.2516   -3.6418   -4.8633 H         1 RES1    0.0000
     28 C11       -2.0566   -3.2933   -3.7096 C.3       1 RES1    0.0000
     29 H10       -2.2245   -4.1468   -4.1396 H         1 RES1    0.0000
     30 H11       -2.8585   -3.0281   -3.2328 H         1 RES1    0.0000
     31 C12       -0.9130   -3.4191   -2.7538 C.3       1 RES1    0.0000
     32 H12       -1.1232   -4.0941   -2.0901 H         1 RES1    0.0000
     33 H13       -0.1223   -3.7098   -3.2360 H         1 RES1    0.0000
     34 C13       -0.2952   -1.2003   -3.0778 C.3       1 RES1    0.0000
     35 H14        0.5081   -1.4758   -3.5452 H         1 RES1    0.0000
     36 H15       -0.1072   -0.3587   -2.6315 H         1 RES1    0.0000
     37 C14       -1.4110   -0.9963   -4.0765 C.3       1 RES1    0.0000
     38 H16       -2.2006   -0.6580   -3.6262 H         1 RES1    0.0000
     39 H17       -1.1411   -0.3502   -4.7464 H         1 RES1    0.0000
     40 H18       -0.2147   -1.8753   -6.5514 H         1 RES1    0.0000
     41 H19       -0.5061   -1.6322   -8.0704 H         1 RES1    0.0000
@<TRIPOS>BOND
     1    1    4 1
     2    2   19 1
     3    3   31 1
     4    4   14 2
     5    5    1 1
     6    6    9 1
     7    7   12 1
     8    8   13 1
     9    9   10 2
    10   10   11 1
    11   12   10 1
    12   13   12 2
    13   14   13 1
    14   15    5 2
    15   16    6 1
    16   17   16 1
    17   18   16 1
    18   19   16 1
    19   20   19 1
    20   21   19 1
    21   22    2 1
    22   23   22 1
    23   24   22 1
    24   25    6 1
    25   26   25 1
    26   27   25 1
    27   28    7 1
    28   29   28 1
    29   30   28 1
    30   31   28 1
    31   32   31 1
    32   33   31 1
    33   34    3 1
    34   35   34 1
    35   36   34 1
    36   37    7 1
    37   38   37 1
    38   39   37 1
    39   40    8 1
    40   41    8 1
    41    9   15 1
    42   14   15 1
    43   22   25 1
    44   34   37 1
@<TRIPOS>SUBSTRUCTURE
     1 RES1 1

@<TRIPOS>CRYSIN
  11.2160   17.0020    7.9550  90.0000 101.6900  90.0000  14 1

