# MOL2 file generated by ConQuest
# Please check atom types

@<TRIPOS>MOLECULE
WOMREV
    45    45     1
SMALL
NO_CHARGES
****
Generated from CSD

@<TRIPOS>ATOM
      1 O1        -2.8142    5.8208    4.4941 O.3       1 RES1    0.0000
      2 H1        -3.5390    5.3934    4.1401 H         1 RES1    0.0000
      3 O2         1.2174    4.6790    3.2110 O.2       1 RES1    0.0000
      4 O3         0.8695    4.7557    6.1322 O.3       1 RES1    0.0000
      5 O4         1.5002    2.8077    7.1295 O.2       1 RES1    0.0000
      6 O5         0.9896   -2.6312   -0.1615 O.2       1 RES1    0.0000
      7 O6         1.6957   -0.9076   -1.2763 O.2       1 RES1    0.0000
      8 N1         1.3373   -1.4585   -0.2326 N.pl3     1 RES1    0.0000
      9 C1        -1.8712    6.0771    3.4519 C.3       1 RES1    0.0000
     10 H2        -1.0276    6.4065    3.8524 H         1 RES1    0.0000
     11 H3        -2.2254    6.7918    2.8639 H         1 RES1    0.0000
     12 C2        -1.5768    4.8468    2.6163 C.3       1 RES1    0.0000
     13 H4        -0.9534    5.0931    1.8882 H         1 RES1    0.0000
     14 H5        -2.4178    4.5319    2.2007 H         1 RES1    0.0000
     15 C3        -0.9682    3.7104    3.4239 C.3       1 RES1    0.0000
     16 H6        -1.4634    3.6340    4.2775 H         1 RES1    0.0000
     17 H7        -1.1007    2.8666    2.9254 H         1 RES1    0.0000
     18 C4         0.4991    3.8542    3.7354 C.2       1 RES1    0.0000
     19 C5         1.0165    2.8923    4.7795 C.2       1 RES1    0.0000
     20 C6         1.1637    3.4559    6.1651 C.2       1 RES1    0.0000
     21 C7         1.0284    5.6282    7.3277 C.3       1 RES1    0.0000
     22 C8         0.6810    6.9953    6.7620 C.3       1 RES1    0.0000
     23 H8         1.2804    7.2013    6.0147 H         1 RES1    0.0000
     24 H9         0.7850    7.6745    7.4607 H         1 RES1    0.0000
     25 H10       -0.2464    6.9920    6.4458 H         1 RES1    0.0000
     26 C9         0.0331    5.1962    8.3903 C.3       1 RES1    0.0000
     27 H11       -0.8697    5.1901    8.0088 H         1 RES1    0.0000
     28 H12        0.0658    5.8241    9.1424 H         1 RES1    0.0000
     29 H13        0.2611    4.2953    8.7045 H         1 RES1    0.0000
     30 C10        2.4691    5.5866    7.7943 C.3       1 RES1    0.0000
     31 H14        2.6619    4.7078    8.1812 H         1 RES1    0.0000
     32 H15        2.6133    6.2791    8.4714 H         1 RES1    0.0000
     33 H16        3.0640    5.7452    7.0322 H         1 RES1    0.0000
     34 C11        1.2754    1.5931    4.5931 C.2       1 RES1    0.0000
     35 H17        1.4894    1.0920    5.3711 H         1 RES1    0.0000
     36 C12        1.2667    0.8493    3.3208 C.ar      1 RES1    0.0000
     37 C13        1.6354    1.4342    2.1033 C.ar      1 RES1    0.0000
     38 H18        1.8686    2.3539    2.0769 H         1 RES1    0.0000
     39 C14        1.6642    0.6840    0.9312 C.ar      1 RES1    0.0000
     40 H19        1.9193    1.0769    0.1050 H         1 RES1    0.0000
     41 C15        1.3098   -0.6540    1.0034 C.ar      1 RES1    0.0000
     42 C16        0.9444   -1.2713    2.1885 C.ar      1 RES1    0.0000
     43 H20        0.7039   -2.1901    2.2049 H         1 RES1    0.0000
     44 C17        0.9381   -0.5151    3.3466 C.ar      1 RES1    0.0000
     45 H21        0.7080   -0.9252    4.1717 H         1 RES1    0.0000
@<TRIPOS>BOND
     1    1    2 1
     2    3   18 2
     3    4   20 1
     4    5   20 2
     5    6    8 2
     6    7    8 2
     7    8   41 1
     8    9    1 1
     9   10    9 1
    10   11    9 1
    11   12    9 1
    12   13   12 1
    13   14   12 1
    14   15   12 1
    15   16   15 1
    16   17   15 1
    17   18   15 1
    18   19   18 1
    19   20   19 1
    20   21    4 1
    21   22   21 1
    22   23   22 1
    23   24   22 1
    24   25   22 1
    25   26   21 1
    26   27   26 1
    27   28   26 1
    28   29   26 1
    29   30   21 1
    30   31   30 1
    31   32   30 1
    32   33   30 1
    33   34   19 2
    34   35   34 1
    35   36   34 1
    36   37   36 ar
    37   38   37 1
    38   39   37 ar
    39   40   39 1
    40   41   39 ar
    41   42   41 ar
    42   43   42 1
    43   44   36 ar
    44   45   44 1
    45   42   44 ar
@<TRIPOS>SUBSTRUCTURE
     1 RES1 1

@<TRIPOS>CRYSIN
   6.4430   30.3339    8.6077  90.0000  97.3840  90.0000  14 1

