# MOL2 file generated by ConQuest
# Please check atom types

@<TRIPOS>MOLECULE
WOMSAS
    62    66     1
SMALL
NO_CHARGES
****
Generated from CSD

@<TRIPOS>ATOM
      1 N1         2.6507    2.3924    7.5547 N.3       1 RES1    0.0000
      2 N2         1.1306    1.4773    8.9351 N.3       1 RES1    0.0000
      3 O1         2.7981    2.7552    6.1303 O.3       1 RES1    0.0000
      4 O2         1.3283    3.7716    3.6817 O.2       1 RES1    0.0000
      5 O3         2.7153    5.4054    4.3370 O.3       1 RES1    0.0000
      6 O4         0.2153    6.0756    6.0104 O.2       1 RES1    0.0000
      7 O5         0.3819    6.0104    8.2513 O.3       1 RES1    0.0000
      8 O6        -2.9382   -1.9231   10.7356 O.3       1 RES1    0.0000
      9 C1         2.0598    3.8720    5.9402 C.2       1 RES1    0.0000
     10 C2         1.5246    4.3983    7.0399 C.2       1 RES1    0.0000
     11 C3         1.9573    3.5731    8.2299 C.3       1 RES1    0.0000
     12 C4         0.7809    2.9066    8.9690 C.3       1 RES1    0.0000
     13 H1         0.7133    3.2288    9.8810 H         1 RES1    0.0000
     14 H2        -0.0583    3.0721    8.5119 H         1 RES1    0.0000
     15 C5         1.6627    1.2730    7.5928 C.3       1 RES1    0.0000
     16 H3         0.9647    1.4016    6.9176 H         1 RES1    0.0000
     17 C6         2.3619   -0.0493    7.3960 C.ar      1 RES1    0.0000
     18 C7         3.2743   -0.5146    8.3280 C.ar      1 RES1    0.0000
     19 H4         3.4250   -0.0325    9.1088 H         1 RES1    0.0000
     20 C8         3.9653   -1.6951    8.1034 C.ar      1 RES1    0.0000
     21 H5         4.5844   -1.9967    8.7283 H         1 RES1    0.0000
     22 C9         3.7366   -2.4217    6.9565 C.ar      1 RES1    0.0000
     23 H6         4.2051   -3.2106    6.8037 H         1 RES1    0.0000
     24 C10        2.8157   -1.9817    6.0376 C.ar      1 RES1    0.0000
     25 H7         2.6518   -2.4773    5.2680 H         1 RES1    0.0000
     26 C11        2.1344   -0.8005    6.2591 C.ar      1 RES1    0.0000
     27 H8         1.5128   -0.5062    5.6331 H         1 RES1    0.0000
     28 C12        2.9870    4.2686    9.1116 C.ar      1 RES1    0.0000
     29 C13        3.8735    5.1823    8.5570 C.ar      1 RES1    0.0000
     30 H9         3.7962    5.4088    7.6590 H         1 RES1    0.0000
     31 C14        4.8713    5.7610    9.3243 C.ar      1 RES1    0.0000
     32 H10        5.4516    6.3787    8.9413 H         1 RES1    0.0000
     33 C15        5.0016    5.4222   10.6552 C.ar      1 RES1    0.0000
     34 H11        5.6700    5.8093   11.1737 H         1 RES1    0.0000
     35 C16        4.1428    4.5140   11.2072 C.ar      1 RES1    0.0000
     36 H12        4.2330    4.2815   12.1030 H         1 RES1    0.0000
     37 C17        3.1454    3.9394   10.4504 C.ar      1 RES1    0.0000
     38 H13        2.5695    3.3231   10.8415 H         1 RES1    0.0000
     39 C18        0.0895    0.6020    9.3761 C.ar      1 RES1    0.0000
     40 C19       -0.6913   -0.1600    8.5118 C.ar      1 RES1    0.0000
     41 H14       -0.5480   -0.1081    7.5943 H         1 RES1    0.0000
     42 C20       -1.6788   -0.9931    9.0077 C.ar      1 RES1    0.0000
     43 H15       -2.1815   -1.5081    8.4184 H         1 RES1    0.0000
     44 C21       -1.9282   -1.0737   10.3637 C.ar      1 RES1    0.0000
     45 C22       -1.1721   -0.3040   11.2339 C.ar      1 RES1    0.0000
     46 H16       -1.3378   -0.3347   12.1493 H         1 RES1    0.0000
     47 C23       -0.1662    0.5135   10.7353 C.ar      1 RES1    0.0000
     48 H17        0.3478    1.0137   11.3274 H         1 RES1    0.0000
     49 C24       -3.1043   -2.1928   12.1041 C.3       1 RES1    0.0000
     50 H18       -2.3229   -2.6386   12.4398 H         1 RES1    0.0000
     51 H19       -3.8720   -2.7555   12.2291 H         1 RES1    0.0000
     52 H20       -3.2311   -1.3687   12.5798 H         1 RES1    0.0000
     53 C25        1.9735    4.3323    4.5168 C.2       1 RES1    0.0000
     54 C26        2.7249    5.9572    3.0009 C.3       1 RES1    0.0000
     55 H21        1.8314    6.1991    2.7474 H         1 RES1    0.0000
     56 H22        3.0659    5.3023    2.3875 H         1 RES1    0.0000
     57 H23        3.2851    6.7365    2.9812 H         1 RES1    0.0000
     58 C27        0.6438    5.5703    7.0167 C.2       1 RES1    0.0000
     59 C28       -0.5157    7.1361    8.3186 C.3       1 RES1    0.0000
     60 H24       -0.7792    7.2822    9.2306 H         1 RES1    0.0000
     61 H25       -1.2940    6.9579    7.7851 H         1 RES1    0.0000
     62 H26       -0.0717    7.9195    7.9842 H         1 RES1    0.0000
@<TRIPOS>BOND
     1    1    3 1
     2    2   12 1
     3    3    9 1
     4    4   53 2
     5    5   53 1
     6    6   58 2
     7    7   58 1
     8    8   44 1
     9    9   10 2
    10   10   11 1
    11   11    1 1
    12   12   11 1
    13   13   12 1
    14   14   12 1
    15   15    1 1
    16   16   15 1
    17   17   15 1
    18   18   17 ar
    19   19   18 1
    20   20   18 ar
    21   21   20 1
    22   22   20 ar
    23   23   22 1
    24   24   22 ar
    25   25   24 1
    26   26   17 ar
    27   27   26 1
    28   28   11 1
    29   29   28 ar
    30   30   29 1
    31   31   29 ar
    32   32   31 1
    33   33   31 ar
    34   34   33 1
    35   35   33 ar
    36   36   35 1
    37   37   28 ar
    38   38   37 1
    39   39    2 1
    40   40   39 ar
    41   41   40 1
    42   42   40 ar
    43   43   42 1
    44   44   42 ar
    45   45   44 ar
    46   46   45 1
    47   47   39 ar
    48   48   47 1
    49   49    8 1
    50   50   49 1
    51   51   49 1
    52   52   49 1
    53   53    9 1
    54   54    5 1
    55   55   54 1
    56   56   54 1
    57   57   54 1
    58   58   10 1
    59   59    7 1
    60   60   59 1
    61   61   59 1
    62   62   59 1
    63    2   15 1
    64   24   26 ar
    65   35   37 ar
    66   45   47 ar
@<TRIPOS>SUBSTRUCTURE
     1 RES1 1

@<TRIPOS>CRYSIN
   9.6286   10.8825   11.8879 103.0890  91.0580  93.3170   2 1

