# MOL2 file generated by ConQuest
# Please check atom types

@<TRIPOS>MOLECULE
WOMXUR
    18    18     1
SMALL
NO_CHARGES
****
Generated from CSD

@<TRIPOS>ATOM
      1 O1        -1.0772    3.2845    5.7382 O.3       1 RES1    0.0000
      2 H1        -1.4929    3.9807    6.3040 H         1 RES1    0.0000
      3 N1         3.8442    0.2363    7.1762 N.ar      1 RES1    0.0000
      4 N2        -0.0364    2.8816    6.5788 N.2       1 RES1    0.0000
      5 C1         2.8029    0.6784    6.4417 C.ar      1 RES1    0.0000
      6 H2         2.8839    0.3668    5.4730 H         1 RES1    0.0000
      7 C2         1.8077    1.5065    6.9291 C.ar      1 RES1    0.0000
      8 C3         1.9059    1.8970    8.2656 C.ar      1 RES1    0.0000
      9 H3         1.2555    2.4876    8.7066 H         1 RES1    0.0000
     10 C4         2.9824    1.4729    9.0206 C.ar      1 RES1    0.0000
     11 H4         3.1313    1.7819    9.9907 H         1 RES1    0.0000
     12 C5         3.9228    0.6344    8.4476 C.ar      1 RES1    0.0000
     13 H5         4.8203    0.3081    9.0056 H         1 RES1    0.0000
     14 C6         0.6960    1.9656    6.0631 C.2       1 RES1    0.0000
     15 C7         0.4974    1.3901    4.6908 C.3       1 RES1    0.0000
     16 H6         0.6127    0.3687    4.7083 H         1 RES1    0.0000
     17 H7         1.2775    1.6221    4.1068 H         1 RES1    0.0000
     18 H8        -0.4049    1.5461    4.3590 H         1 RES1    0.0000
@<TRIPOS>BOND
     1    1    2 1
     2    3    5 ar
     3    4    1 1
     4    5    6 1
     5    7    5 ar
     6    8    7 ar
     7    9    8 1
     8   10    8 ar
     9   11   10 1
    10   12    3 ar
    11   13   12 1
    12   14    4 2
    13   15   14 1
    14   16   15 1
    15   17   15 1
    16   18   15 1
    17    7   14 1
    18   10   12 ar
@<TRIPOS>SUBSTRUCTURE
     1 RES1 1

@<TRIPOS>CRYSIN
  12.8175    9.6268   11.4204  90.0000  91.9180  90.0000  15 1

