# MOL2 file generated by ConQuest
# Please check atom types

@<TRIPOS>MOLECULE
WOMYOM
    25    26     1
SMALL
NO_CHARGES
****
Generated from CSD

@<TRIPOS>ATOM
      1 O1        -0.4119   11.3387   12.6437 O.3       1 RES1    0.0000
      2 H1        -0.0472   11.1426   13.3733 H         1 RES1    0.0000
      3 N1        -0.7884    8.5187    7.4861 N.ar      1 RES1    0.0000
      4 N2        -0.0536   10.4318   11.6993 N.2       1 RES1    0.0000
      5 C1        -1.0523    9.4447    8.4190 C.ar      1 RES1    0.0000
      6 H2        -1.8618    9.9364    8.3484 H         1 RES1    0.0000
      7 C2        -0.2029    9.7211    9.4802 C.ar      1 RES1    0.0000
      8 C3         0.9954    9.0116    9.5437 C.ar      1 RES1    0.0000
      9 H3         1.6109    9.1734   10.2487 H         1 RES1    0.0000
     10 C4         1.2769    8.0844    8.5848 C.ar      1 RES1    0.0000
     11 H4         2.0925    7.5965    8.6108 H         1 RES1    0.0000
     12 C5         0.3689    7.8615    7.5784 C.ar      1 RES1    0.0000
     13 H5         0.5738    7.2093    6.9180 H         1 RES1    0.0000
     14 C6        -0.6015   10.6930   10.5227 C.2       1 RES1    0.0000
     15 C7        -1.5414   11.8011   10.1968 C.ar      1 RES1    0.0000
     16 C8        -2.7197   11.9692   10.9149 C.ar      1 RES1    0.0000
     17 H6        -2.9345   11.3757   11.6243 H         1 RES1    0.0000
     18 C9        -3.5641   12.9895   10.5991 C.ar      1 RES1    0.0000
     19 H7        -4.3695   13.0939   11.0922 H         1 RES1    0.0000
     20 C10       -3.2817   13.8607    9.5956 C.ar      1 RES1    0.0000
     21 H8        -3.8815   14.5702    9.3966 H         1 RES1    0.0000
     22 C11       -2.1033   13.7079    8.8559 C.ar      1 RES1    0.0000
     23 H9        -1.8986   14.3104    8.1508 H         1 RES1    0.0000
     24 C12       -1.2472   12.6800    9.1587 C.ar      1 RES1    0.0000
     25 H10       -0.4488   12.5679    8.6569 H         1 RES1    0.0000
@<TRIPOS>BOND
     1    1    2 1
     2    3    5 ar
     3    4    1 1
     4    5    6 1
     5    7    5 ar
     6    8    7 ar
     7    9    8 1
     8   10    8 ar
     9   11   10 1
    10   12    3 ar
    11   13   12 1
    12   14    4 2
    13   15   14 1
    14   16   15 ar
    15   17   16 1
    16   18   16 ar
    17   19   18 1
    18   20   18 ar
    19   21   20 1
    20   22   20 ar
    21   23   22 1
    22   24   15 ar
    23   25   24 1
    24    7   14 1
    25   10   12 ar
    26   22   24 ar
@<TRIPOS>SUBSTRUCTURE
     1 RES1 1

@<TRIPOS>CRYSIN
   5.6485   12.7373   14.5070  90.0000  96.3280  90.0000 231 1

