# MOL2 file generated by ConQuest
# Please check atom types

@<TRIPOS>MOLECULE
WOMYAY
    18    18     1
SMALL
NO_CHARGES
****
Generated from CSD

@<TRIPOS>ATOM
      1 N1        -3.1157   -4.5783   -3.8246 N.ar      1 RES1    0.0000
      2 N2         0.5556   -1.9350   -1.7939 N.2       1 RES1    0.0000
      3 O1         1.3556   -0.9284   -1.2499 O.3       1 RES1    0.0000
      4 H1         2.0180   -1.4253   -0.8269 H         1 RES1    0.0000
      5 C1        -3.4382   -3.2841   -3.9167 C.ar      1 RES1    0.0000
      6 H2        -4.2862   -3.1537   -4.3363 H         1 RES1    0.0000
      7 C2        -2.6353   -2.2686   -3.4553 C.ar      1 RES1    0.0000
      8 H3        -2.8730   -1.4353   -3.5383 H         1 RES1    0.0000
      9 C3        -1.4132   -2.5603   -2.8591 C.ar      1 RES1    0.0000
     10 C4        -1.0676   -3.9107   -2.7776 C.ar      1 RES1    0.0000
     11 H4        -0.2688   -4.3031   -2.3025 H         1 RES1    0.0000
     12 C5        -1.9360   -4.8634   -3.2573 C.ar      1 RES1    0.0000
     13 H5        -1.7139   -5.7113   -3.1401 H         1 RES1    0.0000
     14 C6        -0.5343   -1.5029   -2.3018 C.2       1 RES1    0.0000
     15 C7        -0.9733   -0.0722   -2.3162 C.3       1 RES1    0.0000
     16 H6        -0.4181    0.2588   -1.9180 H         1 RES1    0.0000
     17 H7        -1.2108    0.2759   -3.2124 H         1 RES1    0.0000
     18 H8        -1.9303   -0.0329   -1.9789 H         1 RES1    0.0000
@<TRIPOS>BOND
     1    1    5 ar
     2    2    3 1
     3    3    4 1
     4    5    6 1
     5    7    5 ar
     6    8    7 1
     7    9    7 ar
     8   10    9 ar
     9   11   10 1
    10   12    1 ar
    11   13   12 1
    12   14    2 2
    13   15   14 1
    14   16   15 1
    15   17   15 1
    16   18   15 1
    17    9   14 1
    18   10   12 ar
@<TRIPOS>SUBSTRUCTURE
     1 RES1 1

@<TRIPOS>CRYSIN
   6.3502   14.2960    7.6172  90.0000  91.6220  90.0000  14 1

