# MOL2 file generated by ConQuest
# Please check atom types

@<TRIPOS>MOLECULE
WOMYIG
    25    26     1
SMALL
NO_CHARGES
****
Generated from CSD

@<TRIPOS>ATOM
      1 O1        -0.8883   12.6913    8.9513 O.3       1 RES1    0.0000
      2 H1        -0.2396   13.1197    9.5373 H         1 RES1    0.0000
      3 N1        -3.9864   12.4498    5.4402 N.ar      1 RES1    0.0000
      4 N2        -0.6089   11.3206    9.0678 N.2       1 RES1    0.0000
      5 C1        -2.8361   11.9058    5.0429 C.ar      1 RES1    0.0000
      6 H2        -2.6152   11.9606    4.1245 H         1 RES1    0.0000
      7 C2        -1.9468   11.2850    5.9044 C.ar      1 RES1    0.0000
      8 H3        -1.1282   10.8984    5.5264 H         1 RES1    0.0000
      9 C3        -2.2460   11.2338    7.2587 C.ar      1 RES1    0.0000
     10 C4        -3.4444   11.7834    7.6743 C.ar      1 RES1    0.0000
     11 H4        -3.7213   11.7122    8.5804 H         1 RES1    0.0000
     12 C5        -4.2805   12.3730    6.7427 C.ar      1 RES1    0.0000
     13 H5        -5.1663   12.7533    7.0144 H         1 RES1    0.0000
     14 C6        -1.2859   10.6203    8.2257 C.2       1 RES1    0.0000
     15 C7        -1.0715    9.1603    8.2155 C.ar      1 RES1    0.0000
     16 C8        -2.0238    8.3030    7.6682 C.ar      1 RES1    0.0000
     17 H6        -2.8424    8.6490    7.3590 H         1 RES1    0.0000
     18 C9        -1.8356    6.9359    7.7077 C.ar      1 RES1    0.0000
     19 H7        -2.5373    6.3062    7.3641 H         1 RES1    0.0000
     20 C10       -0.6977    6.3923    8.2713 C.ar      1 RES1    0.0000
     21 H8        -0.6032    5.4395    8.2997 H         1 RES1    0.0000
     22 C11        0.2645    7.2299    8.7974 C.ar      1 RES1    0.0000
     23 H9         1.0651    6.8910    9.2130 H         1 RES1    0.0000
     24 C12        0.0853    8.6040    8.7629 C.ar      1 RES1    0.0000
     25 H10        0.7933    9.2215    9.1207 H         1 RES1    0.0000
@<TRIPOS>BOND
     1    1    2 1
     2    3    5 ar
     3    4    1 1
     4    5    6 1
     5    7    5 ar
     6    8    7 1
     7    9    7 ar
     8   10    9 ar
     9   11   10 1
    10   12    3 ar
    11   13   12 1
    12   14    4 2
    13   15   14 1
    14   16   15 ar
    15   17   16 1
    16   18   16 ar
    17   19   18 1
    18   20   18 ar
    19   21   20 1
    20   22   20 ar
    21   23   22 1
    22   24   15 ar
    23   25   24 1
    24    9   14 1
    25   10   12 ar
    26   22   24 ar
@<TRIPOS>SUBSTRUCTURE
     1 RES1 1

@<TRIPOS>CRYSIN
   5.7943   17.6150   10.2711  90.0000  99.2900  90.0000  14 1

