# MOL2 file generated by ConQuest
# Please check atom types

@<TRIPOS>MOLECULE
WOPTEC
    51    54     1
SMALL
NO_CHARGES
****
Generated from CSD

@<TRIPOS>ATOM
      1 C1        12.0812    2.7170   12.3232 C.ar      1 RES1    0.0000
      2 H1        12.0741    2.3343   13.1658 H         1 RES1    0.0000
      3 C2        13.1888    2.8074   11.5197 C.ar      1 RES1    0.0000
      4 H2        14.0594    2.4503   11.8169 H         1 RES1    0.0000
      5 C3        13.1282    3.4064   10.2620 C.ar      1 RES1    0.0000
      6 H3        13.9353    3.4474    9.7167 H         1 RES1    0.0000
      7 C4        11.9369    3.9096    9.7659 C.ar      1 RES1    0.0000
      8 H4        11.8750    4.3595    8.8333 H         1 RES1    0.0000
      9 C5        10.7939    3.8316   10.5612 C.ar      1 RES1    0.0000
     10 C6        10.8767    3.2387   11.8370 C.ar      1 RES1    0.0000
     11 C7         8.7346    3.8571   11.5657 C.ar      1 RES1    0.0000
     12 C8         9.4121    4.2188   10.3812 C.ar      1 RES1    0.0000
     13 C9         8.7010    4.7769    9.3295 C.ar      1 RES1    0.0000
     14 H5         9.1565    5.0552    8.4751 H         1 RES1    0.0000
     15 C10        7.3211    4.9995    9.4466 C.ar      1 RES1    0.0000
     16 C11        6.6840    4.6378   10.6545 C.ar      1 RES1    0.0000
     17 H6         5.7513    4.7537   10.7585 H         1 RES1    0.0000
     18 C12        7.3628    4.0720   11.7097 C.ar      1 RES1    0.0000
     19 H7         6.9295    3.8107   12.5334 H         1 RES1    0.0000
     20 C13        6.6711    5.5792    8.2886 C.2       1 RES1    0.0000
     21 H8         7.3032    5.7307    7.5967 H         1 RES1    0.0000
     22 C14        5.4049    5.9734    8.0202 C.2       1 RES1    0.0000
     23 C15        4.3598    5.8397    8.9958 C.1       1 RES1    0.0000
     24 C16        5.0026    6.5848    6.7285 C.ar      1 RES1    0.0000
     25 C17        5.9546    6.9783    5.7811 C.ar      1 RES1    0.0000
     26 H9         6.9433    6.8330    5.9786 H         1 RES1    0.0000
     27 C18        5.5861    7.5781    4.5966 C.ar      1 RES1    0.0000
     28 H10        6.2524    7.8919    3.9428 H         1 RES1    0.0000
     29 C19        4.2491    7.7829    4.3368 C.ar      1 RES1    0.0000
     30 C20        3.2821    7.4026    5.2364 C.ar      1 RES1    0.0000
     31 H11        2.3691    7.5364    5.0441 H         1 RES1    0.0000
     32 C21        3.6623    6.8229    6.4252 C.ar      1 RES1    0.0000
     33 H12        2.9976    6.5702    7.0336 H         1 RES1    0.0000
     34 C22        9.3226    2.7239   13.7526 C.3       1 RES1    0.0000
     35 H13        9.8579    1.9092   13.8692 H         1 RES1    0.0000
     36 H14        8.3721    2.3575   13.7503 H         1 RES1    0.0000
     37 C23        9.5195    3.7056   14.8890 C.3       1 RES1    0.0000
     38 H15       10.4373    4.1353   14.7888 H         1 RES1    0.0000
     39 H16        8.7726    4.4291   14.8532 H         1 RES1    0.0000
     40 C24        9.4201    3.0068   16.2241 C.3       1 RES1    0.0000
     41 H17        8.6181    2.3730   16.2847 H         1 RES1    0.0000
     42 H18       10.2342    2.2802   16.2814 H         1 RES1    0.0000
     43 C25        9.5160    3.9235   17.4167 C.3       1 RES1    0.0000
     44 H19       10.3680    4.4986   17.2539 H         1 RES1    0.0000
     45 H20        9.5218    3.4088   18.3089 H         1 RES1    0.0000
     46 H21        8.6992    4.5605   17.2787 H         1 RES1    0.0000
     47 N1         3.5050    5.7678    9.7505 N.1       1 RES1    0.0000
     48 N2         9.6238    3.2647   12.4367 N.3       1 RES1    0.0000
     49 N3         3.8669    8.4338    3.0821 N.pl3     1 RES1    0.0000
     50 O1         4.7360    8.9952    2.4326 O.2       1 RES1    0.0000
     51 O2         2.6976    8.4015    2.7380 O.2       1 RES1    0.0000
@<TRIPOS>BOND
     1    1    2 1
     2    3    1 ar
     3    4    3 1
     4    5    3 ar
     5    6    5 1
     6    7    5 ar
     7    8    7 1
     8    9    7 ar
     9   10    1 ar
    10   11   12 ar
    11   12    9 1
    12   13   12 ar
    13   14   13 1
    14   15   13 ar
    15   16   15 ar
    16   17   16 1
    17   18   11 ar
    18   19   18 1
    19   20   15 1
    20   21   20 1
    21   22   20 2
    22   23   22 1
    23   24   22 1
    24   25   24 ar
    25   26   25 1
    26   27   25 ar
    27   28   27 1
    28   29   27 ar
    29   30   29 ar
    30   31   30 1
    31   32   24 ar
    32   33   32 1
    33   34   35 1
    34   36   34 1
    35   37   34 1
    36   38   37 1
    37   39   37 1
    38   40   37 1
    39   41   40 1
    40   42   40 1
    41   43   40 1
    42   44   43 1
    43   45   43 1
    44   46   43 1
    45   47   23 3
    46   48   10 1
    47   49   29 1
    48   50   49 2
    49   51   49 2
    50    9   10 ar
    51   11   48 1
    52   16   18 ar
    53   30   32 ar
    54   34   48 1
@<TRIPOS>SUBSTRUCTURE
     1 RES1 1

@<TRIPOS>CRYSIN
  15.7738    7.7296   17.0325  90.0000 104.2160  90.0000  14 1

