# MOL2 file generated by ConQuest
# Please check atom types

@<TRIPOS>MOLECULE
WOQXOR
    19    19     1
SMALL
NO_CHARGES
****
Generated from CSD

@<TRIPOS>ATOM
      1 C1        -2.3583    4.7649   -1.0157 C.2       1 RES1    0.0000
      2 H1        -3.0684    4.5464   -0.4557 H         1 RES1    0.0000
      3 C2        -1.0842    5.1331   -0.4126 C.ar      1 RES1    0.0000
      4 C3        -0.0023    5.6233   -1.1608 C.ar      1 RES1    0.0000
      5 H2        -0.0911    5.7196   -2.0821 H         1 RES1    0.0000
      6 C4         1.1764    5.9609   -0.5638 C.ar      1 RES1    0.0000
      7 H3         1.8746    6.2895   -1.0838 H         1 RES1    0.0000
      8 C5         1.3527    5.8227    0.8117 C.ar      1 RES1    0.0000
      9 C6         0.2786    5.3205    1.5546 C.ar      1 RES1    0.0000
     10 C7        -0.9268    4.9845    0.9454 C.ar      1 RES1    0.0000
     11 H4        -1.6301    4.6585    1.4594 H         1 RES1    0.0000
     12 N1        -2.5421    4.7280   -2.2673 N.2       1 RES1    0.0000
     13 N2         0.3921    5.1076    2.9822 N.pl3     1 RES1    0.0000
     14 O1        -3.8468    4.2952   -2.5854 O.3       1 RES1    0.0000
     15 H5        -3.8794    4.3769   -3.4991 H         1 RES1    0.0000
     16 O2         2.5539    6.1701    1.3037 O.3       1 RES1    0.0000
     17 H6         2.5441    6.1019    2.1237 H         1 RES1    0.0000
     18 O3         1.3939    5.5218    3.5604 O.2       1 RES1    0.0000
     19 O4        -0.4944    4.5230    3.5687 O.2       1 RES1    0.0000
@<TRIPOS>BOND
     1    1    2 1
     2    3    1 1
     3    4    3 ar
     4    5    4 1
     5    6    4 ar
     6    7    6 1
     7    8    6 ar
     8    9    8 ar
     9   10    3 ar
    10   11   10 1
    11   12    1 2
    12   13    9 1
    13   14   12 1
    14   15   14 1
    15   16    8 1
    16   17   16 1
    17   18   13 2
    18   19   13 2
    19    9   10 ar
@<TRIPOS>SUBSTRUCTURE
     1 RES1 1

@<TRIPOS>CRYSIN
   7.0936    7.2149    8.0660 106.8210 100.9630  91.1160   2 1

