# MOL2 file generated by ConQuest
# Please check atom types

@<TRIPOS>MOLECULE
WOQXIL
    21    21     1
SMALL
NO_CHARGES
****
Generated from CSD

@<TRIPOS>ATOM
      1 O1         0.2617    5.7613    1.3665 O.3       1 RES1    0.0000
      2 H1        -0.4102    5.7779    0.8627 H         1 RES1    0.0000
      3 O2         3.6114    0.9244   -1.5862 O.2       1 RES1    0.0000
      4 O3         7.3541    2.0981    3.1413 O.2       1 RES1    0.0000
      5 O4         6.3226    3.6724    4.2125 O.2       1 RES1    0.0000
      6 O5         5.3080    0.0362   -0.6116 O.2       1 RES1    0.0000
      7 O6         2.2500    2.7645   -0.4099 O.3       1 RES1    0.0000
      8 H2         2.4089    2.2120   -1.0230 H         1 RES1    0.0000
      9 N1         1.1268    4.7459    0.9556 N.2       1 RES1    0.0000
     10 N2         4.4406    0.8856   -0.6672 N.pl3     1 RES1    0.0000
     11 N3         6.4114    2.8691    3.2881 N.pl3     1 RES1    0.0000
     12 C1         2.1389    4.6654    1.7261 C.2       1 RES1    0.0000
     13 H3         2.1960    5.2619    2.4635 H         1 RES1    0.0000
     14 C2         3.2220    3.6928    1.5278 C.ar      1 RES1    0.0000
     15 C3         3.2518    2.7569    0.4650 C.ar      1 RES1    0.0000
     16 C4         4.3492    1.8766    0.3934 C.ar      1 RES1    0.0000
     17 C5         5.3857    1.8946    1.3103 C.ar      1 RES1    0.0000
     18 H4         6.1114    1.2851    1.2470 H         1 RES1    0.0000
     19 C6         5.3244    2.8254    2.3133 C.ar      1 RES1    0.0000
     20 C7         4.2695    3.7213    2.4355 C.ar      1 RES1    0.0000
     21 H5         4.2663    4.3552    3.1433 H         1 RES1    0.0000
@<TRIPOS>BOND
     1    1    2 1
     2    3   10 2
     3    4   11 2
     4    5   11 2
     5    6   10 2
     6    7    8 1
     7    9    1 1
     8   10   16 1
     9   11   19 1
    10   12    9 2
    11   13   12 1
    12   14   12 1
    13   15    7 1
    14   16   15 ar
    15   17   16 ar
    16   18   17 1
    17   19   17 ar
    18   20   14 ar
    19   21   20 1
    20   14   15 ar
    21   19   20 ar
@<TRIPOS>SUBSTRUCTURE
     1 RES1 1

@<TRIPOS>CRYSIN
   6.6837    9.5550   13.4563  90.0000 100.0080  90.0000  14 1

