# MOL2 file generated by ConQuest
# Please check atom types

@<TRIPOS>MOLECULE
WORWEF
    40    38     2
SMALL
NO_CHARGES
****
Generated from CSD

@<TRIPOS>ATOM
      1 O1        -5.3631    3.5614   14.9347 O.2       1 RES1    0.0000
      2 O2        -6.1545    1.7219   15.7371 O.2       1 RES1    0.0000
      3 O3        -5.1851    3.3661   14.5193 Du        2 SUP2    0.0000
      4 O4        -6.1455    2.0063   15.9824 Du        2 SUP2    0.0000
      5 O5        -5.1433    1.0805   12.7676 O.2       1 RES1    0.0000
      6 O6        -0.5929   -1.4354   14.8196 O.2       1 RES1    0.0000
      7 O7        -1.1073    0.0584   13.2263 O.3       1 RES1    0.0000
      8 N1        -5.1942    2.4959   15.4685 N.pl3     1 RES1    0.0000
      9 N2        -2.1112   -0.6272   17.7424 N.1       1 RES1    0.0000
     10 C1        -3.7917    2.0497   15.8990 C.3       1 RES1    0.0000
     11 C2        -2.8818    3.2635   16.0858 C.3       1 RES1    0.0000
     12 C3        -1.4915    2.8152   16.5763 C.3       1 RES1    0.0000
     13 C4        -0.8681    1.8010   15.6320 C.3       1 RES1    0.0000
     14 C5        -1.8158    0.5666   15.4168 C.3       1 RES1    0.0000
     15 C6        -3.2295    1.0299   14.8813 C.3       1 RES1    0.0000
     16 C7        -4.1823   -0.1418   14.5893 C.3       1 RES1    0.0000
     17 C8        -5.2744    0.1725   13.5583 C.2       1 RES1    0.0000
     18 C9        -6.5083   -0.6984   13.5533 C.3       1 RES1    0.0000
     19 C10       -1.9773   -0.1347   16.7181 C.1       1 RES1    0.0000
     20 C11       -1.1053   -0.4098   14.4676 C.2       1 RES1    0.0000
     21 C12       -0.3632   -0.7056   12.2120 C.3       1 RES1    0.0000
     22 C13        0.9966   -0.1440   12.0402 C.3       1 RES1    0.0000
     23 H1        -3.9565    1.6093   16.7131 H         1 RES1    0.0000
     24 H2        -3.2917    3.8536   16.7131 H         1 RES1    0.0000
     25 H3        -2.8269    3.6825   15.2300 H         1 RES1    0.0000
     26 H4        -0.9013    3.5749   16.6614 H         1 RES1    0.0000
     27 H5        -1.5293    2.4324   17.4922 H         1 RES1    0.0000
     28 H6        -0.0143    1.4881   15.9774 H         1 RES1    0.0000
     29 H7        -0.7050    2.2051   14.7278 H         1 RES1    0.0000
     30 H8        -3.0639    1.4781   14.0438 H         1 RES1    0.0000
     31 H9        -3.7099   -0.8759   14.2290 H         1 RES1    0.0000
     32 H10       -4.6030   -0.4625   15.3851 H         1 RES1    0.0000
     33 H11       -7.0278   -0.5417   12.7075 H         1 RES1    0.0000
     34 H12       -7.0589   -0.4048   14.2557 H         1 RES1    0.0000
     35 H13       -6.2220   -1.6128   13.5683 H         1 RES1    0.0000
     36 H14       -0.8388   -0.6728   11.3662 H         1 RES1    0.0000
     37 H15       -0.2988   -1.6349   12.4873 H         1 RES1    0.0000
     38 H16        1.4723   -0.6543   11.3779 H         1 RES1    0.0000
     39 H17        1.4683   -0.1846   12.8760 H         1 RES1    0.0000
     40 H18        0.9313    0.7711   11.7532 H         1 RES1    0.0000
@<TRIPOS>BOND
     1    1    8 2
     2    2    8 2
     3    5   17 2
     4    6   20 2
     5    7   20 1
     6    8   10 1
     7    9   19 3
     8   10   11 1
     9   11   12 1
    10   12   13 1
    11   13   14 1
    12   14   15 1
    13   15   10 1
    14   16   15 1
    15   17   16 1
    16   18   17 1
    17   19   14 1
    18   20   14 1
    19   21    7 1
    20   22   21 1
    21   23   10 1
    22   24   11 1
    23   25   11 1
    24   26   12 1
    25   27   12 1
    26   28   13 1
    27   29   13 1
    28   30   15 1
    29   31   16 1
    30   32   16 1
    31   33   18 1
    32   34   18 1
    33   35   18 1
    34   36   21 1
    35   37   21 1
    36   38   22 1
    37   39   22 1
    38   40   22 1
@<TRIPOS>SUBSTRUCTURE
     1 RES1 1
     2 SUP2 3

@<TRIPOS>CRYSIN
  12.1980    7.1270   17.6550  90.0000 109.1000  90.0000  14 1

