# MOL2 file generated by ConQuest
# Please check atom types

@<TRIPOS>MOLECULE
WORWIJ
    46    38     2
SMALL
NO_CHARGES
****
Generated from CSD

@<TRIPOS>ATOM
      1 O1         2.7484   12.3352    4.5285 O.2       1 RES1    0.0000
      2 O2         2.9325   10.4308    5.4441 O.2       1 RES1    0.0000
      3 O3         0.3306   10.4696    3.0909 O.2       1 RES1    0.0000
      4 O4         0.1719   15.3935    4.2440 O.2       1 RES1    0.0000
      5 N1         2.3225   11.4473    5.2273 N.pl3     1 RES1    0.0000
      6 N2        -2.3585   13.0328    7.4072 N.1       1 RES1    0.0000
      7 C1         0.0360   12.4532    5.0356 C.3       1 RES1    0.0000
      8 C2         0.9870   11.6587    5.9742 C.3       1 RES1    0.0000
      9 C3         1.3117   12.6030    7.1490 C.3       1 RES1    0.0000
     10 C4         0.8950   13.9824    6.7085 C.3       1 RES1    0.0000
     11 C5        -0.3655   13.7164    5.8617 C.3       1 RES1    0.0000
     12 C6        -1.1587   11.7169    4.4494 C.3       1 RES1    0.0000
     13 C7        -0.8176   10.7286    3.3778 C.2       1 RES1    0.0000
     14 C8        -1.9779   10.1014    2.6698 C.3       1 RES1    0.0000
     15 C9         0.4801   10.3111    6.4480 C.3       1 RES1    0.0000
     16 C10       -1.5082   13.3764    6.7349 C.1       1 RES1    0.0000
     17 C11       -0.6698   14.8861    4.9267 C.2       1 RES1    0.0000
     18 O5        -1.8861   15.2931    4.9737 O.3       1 RES1    0.0000
     19 C12       -2.2480   16.4470    4.1212 C.3       1 RES1    0.0000
     20 C13       -3.5873   16.8292    4.4471 C.3       1 RES1    0.0000
     21 O6        -1.9878   15.1697    4.9358 Du        2 SUP2    0.0000
     22 C14       -2.3850   16.2215    3.9824 Du        2 SUP2    0.0000
     23 C15       -3.6609   16.7112    4.2279 Du        2 SUP2    0.0000
     24 H1         0.5768   12.7668    4.2796 H         1 RES1    0.0000
     25 H2         0.8208   12.3370    7.9441 H         1 RES1    0.0000
     26 H3         2.2623   12.5818    7.3487 H         1 RES1    0.0000
     27 H4         1.5904   14.4052    6.1784 H         1 RES1    0.0000
     28 H5         0.6905   14.5461    7.4726 H         1 RES1    0.0000
     29 H6        -1.6180   11.2518    5.1676 H         1 RES1    0.0000
     30 H7        -1.7757   12.3722    4.0822 H         1 RES1    0.0000
     31 H8        -2.2605   10.6704    1.9493 H         1 RES1    0.0000
     32 H9        -2.7044    9.9816    3.2871 H         1 RES1    0.0000
     33 H10       -1.7140    9.2452    2.3176 H         1 RES1    0.0000
     34 H11        0.3532    9.7315    5.6919 H         1 RES1    0.0000
     35 H12       -0.3566   10.4256    6.9070 H         1 RES1    0.0000
     36 H13        1.1222    9.9200    7.0469 H         1 RES1    0.0000
     37 H14       -1.6399   17.1869    4.2853 H         1 RES1    0.0000
     38 H15       -2.1889   16.2021    3.1839 H         1 RES1    0.0000
     39 H16       -3.8565   17.5638    3.8872 H         1 RES1    0.0000
     40 H17       -3.6291   17.0988    5.3684 H         1 RES1    0.0000
     41 H18       -4.1768   16.0840    4.3036 H         1 RES1    0.0000
     42 H19       -1.7493   16.9543    4.0352 Du        2 SUP2    0.0000
     43 H20       -2.3508   15.8621    3.0817 Du        2 SUP2    0.0000
     44 H21       -3.8753   17.3877    3.5785 Du        2 SUP2    0.0000
     45 H22       -3.6937   17.0935    5.1091 Du        2 SUP2    0.0000
     46 H23       -4.2972   15.9942    4.1648 Du        2 SUP2    0.0000
@<TRIPOS>BOND
     1    1    5 2
     2    2    5 2
     3    3   13 2
     4    4   17 2
     5    5    8 1
     6    6   16 3
     7    7    8 1
     8    8    9 1
     9    9   10 1
    10   10   11 1
    11   11    7 1
    12   12    7 1
    13   13   12 1
    14   14   13 1
    15   15    8 1
    16   16   11 1
    17   17   11 1
    18   18   17 1
    19   19   18 1
    20   20   19 1
    21   24    7 1
    22   25    9 1
    23   26    9 1
    24   27   10 1
    25   28   10 1
    26   29   12 1
    27   30   12 1
    28   31   14 1
    29   32   14 1
    30   33   14 1
    31   34   15 1
    32   35   15 1
    33   36   15 1
    34   37   19 1
    35   38   19 1
    36   39   20 1
    37   40   20 1
    38   41   20 1
@<TRIPOS>SUBSTRUCTURE
     1 RES1 1
     2 SUP2 21

@<TRIPOS>CRYSIN
   7.2426   17.6167   11.7551  90.0000 102.5700  90.0000  14 1

