# MOL2 file generated by ConQuest
# Please check atom types

@<TRIPOS>MOLECULE
WOTFUG
    68    70     1
SMALL
NO_CHARGES
****
Generated from CSD

@<TRIPOS>ATOM
      1 C1         9.2920    0.0603    7.2377 C.2       1 RES1    0.0000
      2 C2        10.1331    0.3626    8.2085 C.2       1 RES1    0.0000
      3 H1        11.0707    0.2740    8.0221 H         1 RES1    0.0000
      4 C3         9.7373    0.8604    9.5586 C.3       1 RES1    0.0000
      5 H2        10.2896    1.6085    9.7968 H         1 RES1    0.0000
      6 H3         9.8974    0.1635   10.1987 H         1 RES1    0.0000
      7 C4         8.2623    1.2788    9.6599 C.3       1 RES1    0.0000
      8 H4         8.1933    2.1319    9.2257 H         1 RES1    0.0000
      9 C5         7.3620    0.3142    8.8636 C.3       1 RES1    0.0000
     10 H5         7.4624   -0.5581    9.2515 H         1 RES1    0.0000
     11 C6         5.8853    0.7134    9.0033 C.3       1 RES1    0.0000
     12 H6         5.8093    1.6633    9.1200 H         1 RES1    0.0000
     13 O1         5.0668    0.2978    7.9143 O.3       1 RES1    0.0000
     14 C7         4.7694    1.2075    6.8379 C.3       1 RES1    0.0000
     15 C8         5.9623    1.1947    5.8628 C.3       1 RES1    0.0000
     16 H7         6.0020    0.3316    5.4447 H         1 RES1    0.0000
     17 C9         7.3108    1.4413    6.5394 C.3       1 RES1    0.0000
     18 H8         7.2193    2.1986    7.1224 H         1 RES1    0.0000
     19 H9         7.9707    1.6551    5.8757 H         1 RES1    0.0000
     20 C10        7.7917    0.2366    7.3788 C.3       1 RES1    0.0000
     21 H10        7.3711   -0.5426    7.0071 H         1 RES1    0.0000
     22 C11        9.7638   -0.4795    5.9102 C.3       1 RES1    0.0000
     23 H11       10.7202   -0.5608    5.9091 H         1 RES1    0.0000
     24 H12        9.3687   -1.3409    5.7593 H         1 RES1    0.0000
     25 H13        9.4936    0.1233    5.2130 H         1 RES1    0.0000
     26 C12        7.8407    1.4888   11.1383 C.3       1 RES1    0.0000
     27 H14        6.9157    1.7455   11.1286 H         1 RES1    0.0000
     28 C13        8.6244    2.6352   11.7740 C.3       1 RES1    0.0000
     29 H15        8.3447    2.7539   12.6845 H         1 RES1    0.0000
     30 H16        9.5624    2.4324   11.7514 H         1 RES1    0.0000
     31 H17        8.4594    3.4417   11.2805 H         1 RES1    0.0000
     32 C14        7.9471    0.2375   12.0024 C.3       1 RES1    0.0000
     33 H18        7.6620    0.4366   12.8978 H         1 RES1    0.0000
     34 H19        7.3912   -0.4540   11.6361 H         1 RES1    0.0000
     35 H20        8.8600   -0.0585   12.0164 H         1 RES1    0.0000
     36 O2         5.3836    0.0566   10.1342 O.3       1 RES1    0.0000
     37 C15        4.1454    0.5974   10.5963 C.3       1 RES1    0.0000
     38 H21        3.8465    0.1096   11.3678 H         1 RES1    0.0000
     39 H22        4.2681    1.5208   10.8301 H         1 RES1    0.0000
     40 H23        3.4886    0.5289    9.9002 H         1 RES1    0.0000
     41 C16        4.3982    2.6068    7.2991 C.3       1 RES1    0.0000
     42 H24        3.6574    2.5639    7.9079 H         1 RES1    0.0000
     43 H25        5.1495    3.0124    7.7376 H         1 RES1    0.0000
     44 H26        4.1531    3.1302    6.5330 H         1 RES1    0.0000
     45 C17        3.6247    0.5362    6.1009 C.3       1 RES1    0.0000
     46 H27        3.7951   -0.4046    6.0201 H         1 RES1    0.0000
     47 H28        3.5480    0.9097    5.2195 H         1 RES1    0.0000
     48 O3         2.3847    0.7499    6.8269 O.3       1 RES1    0.0000
     49 C18        1.4419   -0.1799    6.6720 C.2       1 RES1    0.0000
     50 O4         1.5810   -1.1929    6.0492 O.2       1 RES1    0.0000
     51 C19        0.1675    0.1946    7.3616 C.ar      1 RES1    0.0000
     52 C20        0.0694    1.3171    8.1632 C.ar      1 RES1    0.0000
     53 H29        0.8333    1.8834    8.2925 H         1 RES1    0.0000
     54 C21       -1.1463    1.6176    8.7753 C.ar      1 RES1    0.0000
     55 H30       -1.2437    2.3876    9.3410 H         1 RES1    0.0000
     56 C22       -2.2157    0.8065    8.5242 C.ar      1 RES1    0.0000
     57 C23       -2.1533   -0.3087    7.7409 C.ar      1 RES1    0.0000
     58 H31       -2.9329   -0.8513    7.5997 H         1 RES1    0.0000
     59 C24       -0.9284   -0.6302    7.1665 C.ar      1 RES1    0.0000
     60 H32       -0.8435   -1.4139    6.6192 H         1 RES1    0.0000
     61 N1        -3.5273    1.1600    9.1255 N.pl3     1 RES1    0.0000
     62 O5        -3.5369    1.9300   10.0812 O.2       1 RES1    0.0000
     63 O6        -4.5227    0.6458    8.6449 O.2       1 RES1    0.0000
     64 O7         5.7013    2.1657    4.8454 O.3       1 RES1    0.0000
     65 C25        6.2012    1.7665    3.5687 C.3       1 RES1    0.0000
     66 H33        6.0127    2.4497    2.9211 H         1 RES1    0.0000
     67 H34        7.1500    1.6295    3.6226 H         1 RES1    0.0000
     68 H35        5.7745    0.9481    3.3047 H         1 RES1    0.0000
@<TRIPOS>BOND
     1    1    2 2
     2    2    3 1
     3    4    2 1
     4    5    4 1
     5    6    4 1
     6    7    4 1
     7    8    7 1
     8    9    7 1
     9   10    9 1
    10   11    9 1
    11   12   11 1
    12   13   11 1
    13   14   13 1
    14   15   14 1
    15   16   15 1
    16   17   15 1
    17   18   17 1
    18   19   17 1
    19   20    1 1
    20   21   20 1
    21   22    1 1
    22   23   22 1
    23   24   22 1
    24   25   22 1
    25   26    7 1
    26   27   26 1
    27   28   26 1
    28   29   28 1
    29   30   28 1
    30   31   28 1
    31   32   26 1
    32   33   32 1
    33   34   32 1
    34   35   32 1
    35   36   11 1
    36   37   36 1
    37   38   37 1
    38   39   37 1
    39   40   37 1
    40   41   14 1
    41   42   41 1
    42   43   41 1
    43   44   41 1
    44   45   14 1
    45   46   45 1
    46   47   45 1
    47   48   45 1
    48   49   48 1
    49   50   49 2
    50   51   49 1
    51   52   51 ar
    52   53   52 1
    53   54   52 ar
    54   55   54 1
    55   56   54 ar
    56   57   56 ar
    57   58   57 1
    58   59   51 ar
    59   60   59 1
    60   61   56 1
    61   62   61 2
    62   63   61 2
    63   64   15 1
    64   65   64 1
    65   66   65 1
    66   67   65 1
    67   68   65 1
    68    9   20 1
    69   17   20 1
    70   57   59 ar
@<TRIPOS>SUBSTRUCTURE
     1 RES1 1

@<TRIPOS>CRYSIN
  25.0930    9.1340   10.8580  90.0000  97.0830  90.0000   5 1

