# MOL2 file generated by ConQuest
# Please check atom types

@<TRIPOS>MOLECULE
WOTKIB
    25    25     2
SMALL
NO_CHARGES
****
Generated from CSD

@<TRIPOS>ATOM
      1 O1         3.0092    0.2532   12.5966 O.2       1 RES1    0.0000
      2 O2         0.8533   -2.7938   15.1920 O.2       1 RES1    0.0000
      3 O3         7.3688   -4.5323   14.7622 O.2       1 RES1    0.0000
      4 O4         7.2988   -2.4762   14.0485 O.2       1 RES1    0.0000
      5 N1         4.2734   -1.4482   13.4212 N.am      1 RES1    0.0000
      6 N2         1.9623   -1.2129   13.9764 N.am      1 RES1    0.0000
      7 N3         3.4417   -4.1788   15.5273 N.pl3     1 RES1    0.0000
      8 H1         2.8658   -4.6302   15.9804 H         1 RES1    0.0000
      9 N4         6.7225   -3.5790   14.3687 N.pl3     1 RES1    0.0000
     10 C1         3.0896   -0.7487   13.2863 C.2       1 RES1    0.0000
     11 C2         1.9100   -2.3846   14.7006 C.2       1 RES1    0.0000
     12 C3         3.1701   -3.0285   14.8190 C.2       1 RES1    0.0000
     13 C4         4.7230   -4.4807   15.4035 C.2       1 RES1    0.0000
     14 H2         5.1463   -5.2120   15.7904 H         1 RES1    0.0000
     15 C5         5.3305   -3.5239   14.6001 C.2       1 RES1    0.0000
     16 C6         4.3245   -2.5834   14.2117 C.2       1 RES1    0.0000
     17 C7         0.7242   -0.4735   13.7419 C.3       1 RES1    0.0000
     18 H3         0.0158   -0.8658   14.2549 H         1 RES1    0.0000
     19 H4         0.5016   -0.5094   12.8094 H         1 RES1    0.0000
     20 H5         0.8421    0.4416   14.0070 H         1 RES1    0.0000
     21 C8         5.4044   -0.9892   12.6023 C.3       1 RES1    0.0000
     22 H6         5.8234   -1.7449   12.1817 H         1 RES1    0.0000
     23 H7         6.0420   -0.5401   13.1603 H         1 RES1    0.0000
     24 H8         5.0866   -0.3836   11.9289 H         1 RES1    0.0000
     25 O5         7.0434   -3.3344   13.0879 Du        2 SUP2    0.0000
@<TRIPOS>BOND
     1    1   10 2
     2    2   11 2
     3    3    9 2
     4    4    9 2
     5    5   10 1
     6    6   10 1
     7    7    8 1
     8    9   15 1
     9   11    6 1
    10   12    7 1
    11   13    7 1
    12   14   13 1
    13   15   13 2
    14   16    5 1
    15   17    6 1
    16   18   17 1
    17   19   17 1
    18   20   17 1
    19   21    5 1
    20   22   21 1
    21   23   21 1
    22   24   21 1
    23   11   12 1
    24   12   16 2
    25   15   16 1
@<TRIPOS>SUBSTRUCTURE
     1 RES1 1
     2 SUP2 25

@<TRIPOS>CRYSIN
  19.8250    5.7950   16.4890  90.0000 102.5300  90.0000  15 1

