# MOL2 file generated by ConQuest
# Please check atom types

@<TRIPOS>MOLECULE
WOYTOT
    34    36     1
SMALL
NO_CHARGES
****
Generated from CSD

@<TRIPOS>ATOM
      1 N1         1.1441    0.1777    9.6381 N.pl3     1 RES1    0.0000
      2 N2         2.3874    0.5420    9.2532 N.2       1 RES1    0.0000
      3 C1         0.1587   -0.2857    8.6510 C.3       1 RES1    0.0000
      4 C2         0.5052    0.2808    7.2794 C.3       1 RES1    0.0000
      5 C3        -0.5563   -0.0327    6.2515 C.2       1 RES1    0.0000
      6 O1        -1.6254   -0.5302    6.5447 O.2       1 RES1    0.0000
      7 N3         3.0579    0.9622   10.2991 N.2       1 RES1    0.0000
      8 C4         2.2171    0.8646   11.3978 C.ar      1 RES1    0.0000
      9 C5         2.4526    1.1886   12.7479 C.ar      1 RES1    0.0000
     10 C6         1.4196    0.9635   13.6225 C.ar      1 RES1    0.0000
     11 C7         0.1922    0.4375   13.2013 C.ar      1 RES1    0.0000
     12 C8        -0.0611    0.1212   11.8809 C.ar      1 RES1    0.0000
     13 C9         0.9925    0.3609   10.9886 C.ar      1 RES1    0.0000
     14 C10       -0.2572    0.3539    4.8236 C.ar      1 RES1    0.0000
     15 C11        0.9592    0.9266    4.4650 C.ar      1 RES1    0.0000
     16 C12        1.2238    1.2673    3.1404 C.ar      1 RES1    0.0000
     17 C13        0.2426    1.0263    2.2077 C.ar      1 RES1    0.0000
     18 N4         0.5174    1.3920    0.8035 N.pl3     1 RES1    0.0000
     19 O2        -0.4294    1.4986    0.0344 O.2       1 RES1    0.0000
     20 O3         1.6849    1.5711    0.4847 O.2       1 RES1    0.0000
     21 C14       -0.9882    0.4689    2.5227 C.ar      1 RES1    0.0000
     22 C15       -1.2239    0.1247    3.8444 C.ar      1 RES1    0.0000
     23 H1        -0.7469    0.0118    8.9167 H         1 RES1    0.0000
     24 H2         0.1614   -1.2750    8.6134 H         1 RES1    0.0000
     25 H3         0.6105    1.2631    7.3495 H         1 RES1    0.0000
     26 H4         1.3702   -0.0968    6.9798 H         1 RES1    0.0000
     27 H5         3.2844    1.5446   13.0370 H         1 RES1    0.0000
     28 H6         1.5408    1.1705   14.5410 H         1 RES1    0.0000
     29 H7        -0.4903    0.2940   13.8459 H         1 RES1    0.0000
     30 H8        -0.8946   -0.2355   11.5962 H         1 RES1    0.0000
     31 H9         1.6169    1.0883    5.1314 H         1 RES1    0.0000
     32 H10        2.0548    1.6533    2.8911 H         1 RES1    0.0000
     33 H11       -1.6481    0.3282    1.8548 H         1 RES1    0.0000
     34 H12       -2.0527   -0.2717    4.0855 H         1 RES1    0.0000
@<TRIPOS>BOND
     1    1    2 1
     2    2    7 2
     3    3    1 1
     4    4    3 1
     5    5    4 1
     6    6    5 2
     7    7    8 1
     8    8    9 ar
     9    9   10 ar
    10   10   11 ar
    11   11   12 ar
    12   12   13 ar
    13   13    1 1
    14   14    5 1
    15   15   14 ar
    16   16   15 ar
    17   17   16 ar
    18   18   17 1
    19   19   18 2
    20   20   18 2
    21   21   17 ar
    22   22   14 ar
    23   23    3 1
    24   24    3 1
    25   25    4 1
    26   26    4 1
    27   27    9 1
    28   28   10 1
    29   29   11 1
    30   30   12 1
    31   31   15 1
    32   32   16 1
    33   33   21 1
    34   34   22 1
    35    8   13 ar
    36   21   22 ar
@<TRIPOS>SUBSTRUCTURE
     1 RES1 1

@<TRIPOS>CRYSIN
   5.9554    6.9671   31.8248  90.0000  96.8560  90.0000  14 1

