# MOL2 file generated by ConQuest
# Please check atom types

@<TRIPOS>MOLECULE
WUBGOP
    32    32     1
SMALL
USER_CHARGES
****
Generated from CSD

@<TRIPOS>ATOM
      1 N1         0.9596    2.8241    8.5268 N.2       1 RES1    1.0000
      2 C1        -0.1177    2.3413    7.9168 C.2       1 RES1    0.0000
      3 N2         0.0521    1.5595    6.8559 N.pl3     1 RES1    0.0000
      4 O1         1.7947    1.6687    4.0508 O.2       1 RES1    0.0000
      5 C2         1.3709    1.1648    6.3640 C.3       1 RES1    0.0000
      6 C3         1.8312    2.0529    5.2230 C.2       1 RES1    0.0000
      7 C4         2.6709    4.1691    4.4652 C.3       1 RES1    0.0000
      8 N3         2.2564    3.2842    5.5272 N.am      1 RES1    0.0000
      9 C5         3.9217    3.6642    3.7712 C.2       1 RES1    0.0000
     10 O2         3.9946    4.0981    2.5204 O.3       1 RES1    0.0000
     11 O3         4.7642    2.9860    4.3065 O.2       1 RES1    0.0000
     12 N4        -1.4140    2.5789    8.3248 N.am      1 RES1    0.0000
     13 C6        -2.5558    2.0352    7.5631 C.3       1 RES1    0.0000
     14 C7        -1.6810    3.3997    9.4163 C.2       1 RES1    0.0000
     15 O4        -2.8368    3.5985    9.7760 O.2       1 RES1    0.0000
     16 C8        -0.5213    3.9687   10.0795 C.2       1 RES1    0.0000
     17 N5        -0.8150    4.8153   11.0752 N.2       1 RES1   -1.0000
     18 O5         0.1411    5.3701   11.7227 O.2       1 RES1    0.0000
     19 C9         0.7921    3.6072    9.6061 C.2       1 RES1    0.0000
     20 N6         1.8680    4.0398   10.2362 N.pl3     1 RES1    0.0000
     21 H1        -0.6608    1.2662    6.4312 H         1 RES1    0.0000
     22 H2         1.3365    0.2254    6.0538 H         1 RES1    0.0000
     23 H3         2.0258    1.2179    7.1047 H         1 RES1    0.0000
     24 H4         2.8450    5.0694    4.8387 H         1 RES1    0.0000
     25 H5         1.9396    4.2504    3.8031 H         1 RES1    0.0000
     26 H6         2.2828    3.5512    6.3653 H         1 RES1    0.0000
     27 H7         4.8667    3.6871    2.1103 H         1 RES1    0.0000
     28 H8        -2.5045    2.3434    6.6337 H         1 RES1    0.0000
     29 H9        -3.3939    2.3464    7.9645 H         1 RES1    0.0000
     30 H10       -2.5267    1.0558    7.5852 H         1 RES1    0.0000
     31 H11        2.6679    3.8139    9.9467 H         1 RES1    0.0000
     32 H12        1.7856    4.5537   10.9460 H         1 RES1    0.0000
@<TRIPOS>BOND
     1    1    2 un
     2    2    3 un
     3    3    5 1
     4    4    6 2
     5    5    6 1
     6    6    8 1
     7    7    8 1
     8    8   26 1
     9    9    7 1
    10   10    9 1
    11   11    9 2
    12   12    2 1
    13   13   12 1
    14   14   12 1
    15   15   14 2
    16   16   14 1
    17   17   16 un
    18   18   17 un
    19   19    1 un
    20   20   19 un
    21   21    3 1
    22   22    5 1
    23   23    5 1
    24   24    7 1
    25   25    7 1
    26   27   10 1
    27   28   13 1
    28   29   13 1
    29   30   13 1
    30   31   20 1
    31   32   20 1
    32   16   19 1
@<TRIPOS>SUBSTRUCTURE
     1 RES1 1

@<TRIPOS>CRYSIN
   7.4727    8.2356    9.6678  81.2080  88.7220  76.1690   2 1

