# MOL2 file generated by ConQuest
# Please check atom types

@<TRIPOS>MOLECULE
WUBJAG
    40    42     1
SMALL
NO_CHARGES
****
Generated from CSD

@<TRIPOS>ATOM
      1 C1        -0.6335    4.9118    5.9664 C.3       1 RES1    0.0000
      2 H1        -0.3238    4.1574    6.5094 H         1 RES1    0.0000
      3 N1        -2.6503    3.6077    5.7089 N.pl3     1 RES1    0.0000
      4 O1        -3.5793    3.4070    4.9937 O.2       1 RES1    0.0000
      5 C2        -1.1425    6.0544    6.8792 C.3       1 RES1    0.0000
      6 H2        -1.8786    5.7356    7.4428 H         1 RES1    0.0000
      7 N2         0.5311    5.4969    8.7404 N.pl3     1 RES1    0.0000
      8 O2        -2.4084    3.1853    6.7959 O.2       1 RES1    0.0000
      9 N3         1.0671    7.0305    3.1625 N.pl3     1 RES1    0.0000
     10 C3         0.0000    6.5595    7.7424 C.3       1 RES1    0.0000
     11 O3        -0.0614    4.4644    8.8330 O.2       1 RES1    0.0000
     12 C4         0.4946    5.4050    5.0480 C.3       1 RES1    0.0000
     13 H3         0.8190    4.6730    4.4825 H         1 RES1    0.0000
     14 O4         1.5139    5.8157    9.3742 O.2       1 RES1    0.0000
     15 C5         1.6163    5.8931    5.9945 C.3       1 RES1    0.0000
     16 H4         1.9004    5.1584    6.5600 H         1 RES1    0.0000
     17 H5         2.3790    6.1777    5.4674 H         1 RES1    0.0000
     18 O5         2.1137    6.4113    3.0923 O.2       1 RES1    0.0000
     19 C6         0.0000    6.5595    4.1876 C.3       1 RES1    0.0000
     20 O6         0.7550    7.9750    2.4716 O.2       1 RES1    0.0000
     21 O7        -1.7188    4.4954    5.1051 O.3       1 RES1    0.0000
     22 C1A        0.6335    8.2072    5.9664 C.3       1 RES1    0.0000
     23 H1A        0.3238    8.9616    6.5094 H         1 RES1    0.0000
     24 N1A        2.6503    9.5113    5.7089 N.pl3     1 RES1    0.0000
     25 O1A        3.5793    9.7120    4.9937 O.2       1 RES1    0.0000
     26 C2A        1.1425    7.0646    6.8792 C.3       1 RES1    0.0000
     27 H2A        1.8786    7.3834    7.4428 H         1 RES1    0.0000
     28 N2A       -0.5311    7.6221    8.7404 N.pl3     1 RES1    0.0000
     29 O2A        2.4084    9.9337    6.7959 O.2       1 RES1    0.0000
     30 N3A       -1.0671    6.0885    3.1625 N.pl3     1 RES1    0.0000
     31 O3A        0.0614    8.6546    8.8330 O.2       1 RES1    0.0000
     32 C4A       -0.4946    7.7140    5.0480 C.3       1 RES1    0.0000
     33 H3A       -0.8190    8.4460    4.4825 H         1 RES1    0.0000
     34 O4A       -1.5139    7.3033    9.3742 O.2       1 RES1    0.0000
     35 C5A       -1.6163    7.2259    5.9945 C.3       1 RES1    0.0000
     36 H4A       -1.9004    7.9606    6.5600 H         1 RES1    0.0000
     37 H5A       -2.3790    6.9413    5.4674 H         1 RES1    0.0000
     38 O5A       -2.1137    6.7077    3.0923 O.2       1 RES1    0.0000
     39 O6A       -0.7550    5.1440    2.4716 O.2       1 RES1    0.0000
     40 O7A        1.7188    8.6236    5.1051 O.3       1 RES1    0.0000
@<TRIPOS>BOND
     1    1    2 1
     2    3    4 2
     3    5    1 1
     4    6    5 1
     5    7   10 1
     6    8    3 2
     7    9   18 2
     8   10    5 1
     9   11    7 2
    10   12    1 1
    11   13   12 1
    12   14    7 2
    13   15   12 1
    14   16   15 1
    15   17   15 1
    16   19    9 1
    17   20    9 2
    18   21    1 1
    19   22   23 1
    20   24   25 2
    21   26   10 1
    22   27   26 1
    23   28   10 1
    24   29   24 2
    25   30   19 1
    26   31   28 2
    27   32   19 1
    28   33   32 1
    29   34   28 2
    30   35    5 1
    31   36   35 1
    32   37   35 1
    33   38   30 2
    34   39   30 2
    35   40   22 1
    36    3   21 1
    37   12   19 1
    38   15   26 1
    39   22   26 1
    40   22   32 1
    41   24   40 1
    42   32   35 1
@<TRIPOS>SUBSTRUCTURE
     1 RES1 1

@<TRIPOS>CRYSIN
  12.7970   13.1190    9.3620  90.0000  90.0000  90.0000  41 1

