# MOL2 file generated by ConQuest
# Please check atom types

@<TRIPOS>MOLECULE
WUDJUC
    46    48     1
SMALL
NO_CHARGES
****
Generated from CSD

@<TRIPOS>ATOM
      1 O1         1.3857    6.1633   16.1924 O.3       1 RES1    0.0000
      2 O2         1.0286    4.4432   17.5008 O.2       1 RES1    0.0000
      3 O3         4.6984    6.8779   20.4808 O.3       1 RES1    0.0000
      4 H1         5.0387    7.5977   20.2126 H         1 RES1    0.0000
      5 O4         4.6868    9.2312   19.1764 O.2       1 RES1    0.0000
      6 N1         3.3944    9.0367   18.9711 N.pl3     1 RES1    0.0000
      7 C1         2.2362    7.1685   15.7133 C.ar      1 RES1    0.0000
      8 C2         1.8929    7.7263   14.4958 C.ar      1 RES1    0.0000
      9 H2         1.1360    7.4086   14.0185 H         1 RES1    0.0000
     10 C3         2.6581    8.7437   13.9874 C.ar      1 RES1    0.0000
     11 H3         2.4311    9.1353   13.1516 H         1 RES1    0.0000
     12 C4         3.7678    9.2066   14.6923 C.ar      1 RES1    0.0000
     13 H4         4.2960    9.9132   14.3413 H         1 RES1    0.0000
     14 C5         4.0970    8.6282   15.9110 C.ar      1 RES1    0.0000
     15 H5         4.8575    8.9400   16.3877 H         1 RES1    0.0000
     16 C6         3.3275    7.5980   16.4439 C.ar      1 RES1    0.0000
     17 C7         3.6403    6.9209   17.7481 C.3       1 RES1    0.0000
     18 H6         4.6300    6.9540   17.8880 H         1 RES1    0.0000
     19 C8         3.2164    5.4513   17.6785 C.3       1 RES1    0.0000
     20 H7         3.8184    5.0092   17.0130 H         1 RES1    0.0000
     21 C9         1.8086    5.2923   17.1634 C.2       1 RES1    0.0000
     22 C10        2.9630    7.6180   18.9433 C.3       1 RES1    0.0000
     23 H8         1.9734    7.5931   18.8016 H         1 RES1    0.0000
     24 C11        3.2764    6.9177   20.2830 C.3       1 RES1    0.0000
     25 C12        2.7945    5.4830   20.1833 C.3       1 RES1    0.0000
     26 H9         1.8107    5.4790   20.0765 H         1 RES1    0.0000
     27 H10        3.0094    5.0107   21.0267 H         1 RES1    0.0000
     28 C13        3.4249    4.7269   19.0156 C.3       1 RES1    0.0000
     29 H11        3.0268    3.8225   18.9599 H         1 RES1    0.0000
     30 H12        4.3956    4.6233   19.1812 H         1 RES1    0.0000
     31 C14        2.6154    7.6250   21.4577 C.3       1 RES1    0.0000
     32 H13        2.8904    8.5648   21.4693 H         1 RES1    0.0000
     33 H14        2.8893    7.1935   22.2935 H         1 RES1    0.0000
     34 H15        1.6416    7.5703   21.3657 H         1 RES1    0.0000
     35 C15        2.5780   10.0004   18.7502 C.2       1 RES1    0.0000
     36 H16        1.6580    9.8003   18.6270 H         1 RES1    0.0000
     37 C16        3.0141   11.4156   18.6806 C.3       1 RES1    0.0000
     38 H17        3.8668   11.4690   18.1804 H         1 RES1    0.0000
     39 H18        3.1785   11.7512   19.5974 H         1 RES1    0.0000
     40 C17        1.9829   12.2965   18.0047 C.3       1 RES1    0.0000
     41 H19        1.1418   12.2515   18.5255 H         1 RES1    0.0000
     42 H20        2.3021   13.2338   18.0342 H         1 RES1    0.0000
     43 C18        1.6838   11.9455   16.5936 C.3       1 RES1    0.0000
     44 H21        1.2824   11.0526   16.5582 H         1 RES1    0.0000
     45 H22        2.5138   11.9526   16.0730 H         1 RES1    0.0000
     46 H23        1.0581   12.6008   16.2192 H         1 RES1    0.0000
@<TRIPOS>BOND
     1    1    7 1
     2    2   21 2
     3    3    4 1
     4    5    6 1
     5    6   22 1
     6    7    8 ar
     7    8    9 1
     8   10    8 ar
     9   11   10 1
    10   12   10 ar
    11   13   12 1
    12   14   12 ar
    13   15   14 1
    14   16    7 ar
    15   17   16 1
    16   18   17 1
    17   19   17 1
    18   20   19 1
    19   21    1 1
    20   22   17 1
    21   23   22 1
    22   24    3 1
    23   25   24 1
    24   26   25 1
    25   27   25 1
    26   28   19 1
    27   29   28 1
    28   30   28 1
    29   31   24 1
    30   32   31 1
    31   33   31 1
    32   34   31 1
    33   35    6 2
    34   36   35 1
    35   37   35 1
    36   38   37 1
    37   39   37 1
    38   40   37 1
    39   41   40 1
    40   42   40 1
    41   43   40 1
    42   44   43 1
    43   45   43 1
    44   46   43 1
    45   14   16 ar
    46   19   21 1
    47   22   24 1
    48   25   28 1
@<TRIPOS>SUBSTRUCTURE
     1 RES1 1

@<TRIPOS>CRYSIN
   5.2667   15.2534   20.3019  90.0000  90.0000  90.0000  19 1

