# MOL2 file generated by ConQuest
# Please check atom types

@<TRIPOS>MOLECULE
WUDNAM
    26    26     1
SMALL
NO_CHARGES
****
Generated from CSD

@<TRIPOS>ATOM
      1 C1         1.4946    5.6148   10.0205 C.ar      1 RES1    0.0000
      2 C2         1.9503    6.1941   11.1883 C.ar      1 RES1    0.0000
      3 H1         2.3550    7.0306   11.1574 H         1 RES1    0.0000
      4 C3         1.8128    5.5455   12.4055 C.ar      1 RES1    0.0000
      5 H2         2.1205    5.9535   13.1814 H         1 RES1    0.0000
      6 C4         1.2325    4.3179   12.4759 C.ar      1 RES1    0.0000
      7 H3         1.1410    3.8873   13.2950 H         1 RES1    0.0000
      8 C5         0.7847    3.7226   11.3263 C.ar      1 RES1    0.0000
      9 H4         0.3911    2.8811   11.3652 H         1 RES1    0.0000
     10 C6         0.9136    4.3617   10.1163 C.ar      1 RES1    0.0000
     11 H5         0.6053    3.9431    9.3449 H         1 RES1    0.0000
     12 C7         1.5865    6.2883    8.6942 C.2       1 RES1    0.0000
     13 C8         2.1810    7.6256    8.6171 C.2       1 RES1    0.0000
     14 H6         2.5242    8.0112    9.3911 H         1 RES1    0.0000
     15 C9         0.6435    5.4267    5.4194 C.2       1 RES1    0.0000
     16 C10        0.2991    3.9992    5.6647 C.3       1 RES1    0.0000
     17 H7        -0.0205    3.6033    4.8504 H         1 RES1    0.0000
     18 H8        -0.3844    3.9460    6.3377 H         1 RES1    0.0000
     19 H9         1.0799    3.5286    5.9644 H         1 RES1    0.0000
     20 N1         2.2412    8.2705    7.5308 N.2       1 RES1    0.0000
     21 N2         1.1077    5.6048    7.7118 N.2       1 RES1    0.0000
     22 N3         1.0892    6.1530    6.4618 N.am      1 RES1    0.0000
     23 H10        1.3619    6.9596    6.3396 H         1 RES1    0.0000
     24 O1         2.8526    9.4995    7.6574 O.3       1 RES1    0.0000
     25 H11        2.8282    9.8919    6.9380 H         1 RES1    0.0000
     26 O2         0.5615    5.9653    4.3136 O.2       1 RES1    0.0000
@<TRIPOS>BOND
     1    1    2 ar
     2    2    3 1
     3    4    2 ar
     4    5    4 1
     5    6    4 ar
     6    7    6 1
     7    8    6 ar
     8    9    8 1
     9   10    1 ar
    10   11   10 1
    11   12    1 1
    12   13   12 1
    13   14   13 1
    14   15   16 1
    15   16   17 1
    16   18   16 1
    17   19   16 1
    18   20   13 2
    19   21   12 2
    20   22   15 1
    21   23   22 1
    22   24   20 1
    23   25   24 1
    24   26   15 2
    25    8   10 ar
    26   21   22 1
@<TRIPOS>SUBSTRUCTURE
     1 RES1 1

@<TRIPOS>CRYSIN
  11.2627    9.4650   19.9543  90.0000 105.3750  90.0000  15 1

