# MOL2 file generated by ConQuest
# Please check atom types

@<TRIPOS>MOLECULE
WUFMEP
    51    53     1
SMALL
NO_CHARGES
****
Generated from CSD

@<TRIPOS>ATOM
      1 C1         7.0433   -0.7513    1.0521 C.3       1 RES1    0.0000
      2 C2         6.7652    0.3602    2.1213 C.3       1 RES1    0.0000
      3 H1         7.5128    0.3268    2.7550 H         1 RES1    0.0000
      4 C3         6.9332    1.6751    1.3196 C.3       1 RES1    0.0000
      5 H2         6.0817    2.1230    1.1947 H         1 RES1    0.0000
      6 H3         7.5495    2.2798    1.7608 H         1 RES1    0.0000
      7 C4         7.5014    1.1728   -0.0173 C.3       1 RES1    0.0000
      8 H4         7.4769    1.8386   -0.7352 H         1 RES1    0.0000
      9 C5         8.8966    0.6021    0.2536 C.3       1 RES1    0.0000
     10 H5         9.4098    1.1900    0.8292 H         1 RES1    0.0000
     11 H6         9.3844    0.4614   -0.5723 H         1 RES1    0.0000
     12 C6         8.5819   -0.7458    0.9593 C.3       1 RES1    0.0000
     13 H7         8.9028   -1.4966    0.4365 H         1 RES1    0.0000
     14 H8         8.9849   -0.7792    1.8401 H         1 RES1    0.0000
     15 C7         6.6535   -0.0803   -0.2962 C.3       1 RES1    0.0000
     16 C8         5.1534    0.1882   -0.4739 C.3       1 RES1    0.0000
     17 H9         4.6970   -0.6395   -0.6412 H         1 RES1    0.0000
     18 H10        5.0205    0.7822   -1.2156 H         1 RES1    0.0000
     19 H11        4.8037    0.5909    0.3237 H         1 RES1    0.0000
     20 C9         7.1002   -0.8500   -1.5502 C.3       1 RES1    0.0000
     21 H12        6.5337   -1.6150   -1.6751 H         1 RES1    0.0000
     22 H13        8.0093   -1.1394   -1.4412 H         1 RES1    0.0000
     23 H14        7.0364   -0.2762   -2.3164 H         1 RES1    0.0000
     24 C10        6.4603   -2.1256    1.3270 C.3       1 RES1    0.0000
     25 H15        5.5030   -2.0643    1.3723 H         1 RES1    0.0000
     26 H16        6.8003   -2.4559    2.1618 H         1 RES1    0.0000
     27 H17        6.7085   -2.7261    0.6203 H         1 RES1    0.0000
     28 N1         5.5366    0.2230    2.9248 N.3       1 RES1    0.0000
     29 N2         5.5212   -0.5651    3.9792 N.2       1 RES1    0.0000
     30 O1         6.5662   -1.2203    4.1818 O.2       1 RES1    0.0000
     31 C11        4.3036    1.0493    2.8776 C.3       1 RES1    0.0000
     32 H18        4.3552    1.6079    2.0741 H         1 RES1    0.0000
     33 C12        3.0693    0.1710    2.7418 C.3       1 RES1    0.0000
     34 H19        3.1663   -0.4007    1.9759 H         1 RES1    0.0000
     35 H20        2.2930    0.7245    2.6318 H         1 RES1    0.0000
     36 H21        2.9705   -0.3653    3.5320 H         1 RES1    0.0000
     37 O2         3.1117    2.8356    3.7950 O.3       1 RES1    0.0000
     38 H22        2.7825    3.1116    4.4928 H         1 RES1    0.0000
     39 C13        4.2180    1.9965    4.0920 C.3       1 RES1    0.0000
     40 H23        4.0134    1.4713    4.8938 H         1 RES1    0.0000
     41 C14        5.4969    2.7784    4.3257 C.ar      1 RES1    0.0000
     42 C15        6.5145    2.2818    5.1213 C.ar      1 RES1    0.0000
     43 H24        6.3930    1.4764    5.5685 H         1 RES1    0.0000
     44 C16        7.7121    2.9669    5.2614 C.ar      1 RES1    0.0000
     45 H25        8.3905    2.6026    5.7836 H         1 RES1    0.0000
     46 C17        7.9097    4.1721    4.6415 C.ar      1 RES1    0.0000
     47 H26        8.7131    4.6294    4.7393 H         1 RES1    0.0000
     48 C18        6.9017    4.6881    3.8781 C.ar      1 RES1    0.0000
     49 H27        7.0206    5.5088    3.4568 H         1 RES1    0.0000
     50 C19        5.7067    4.0081    3.7212 C.ar      1 RES1    0.0000
     51 H28        5.0327    4.3825    3.2020 H         1 RES1    0.0000
@<TRIPOS>BOND
     1    1    2 1
     2    2    3 1
     3    4    2 1
     4    5    4 1
     5    6    4 1
     6    7    4 1
     7    8    7 1
     8    9    7 1
     9   10    9 1
    10   11    9 1
    11   12    1 1
    12   13   12 1
    13   14   12 1
    14   15    1 1
    15   16   15 1
    16   17   16 1
    17   18   16 1
    18   19   16 1
    19   20   15 1
    20   21   20 1
    21   22   20 1
    22   23   20 1
    23   24    1 1
    24   25   24 1
    25   26   24 1
    26   27   24 1
    27   28    2 1
    28   29   28 1
    29   30   29 2
    30   31   28 1
    31   32   31 1
    32   33   31 1
    33   34   33 1
    34   35   33 1
    35   36   33 1
    36   37   38 1
    37   39   31 1
    38   40   39 1
    39   41   39 1
    40   42   41 ar
    41   43   42 1
    42   44   42 ar
    43   45   44 1
    44   46   44 ar
    45   47   46 1
    46   48   46 ar
    47   49   48 1
    48   50   41 ar
    49   51   50 1
    50    7   15 1
    51    9   12 1
    52   37   39 1
    53   48   50 ar
@<TRIPOS>SUBSTRUCTURE
     1 RES1 1

@<TRIPOS>CRYSIN
   8.7419   10.1190   20.8870  90.0000  90.0000  90.0000  19 1

