# MOL2 file generated by ConQuest
# Please check atom types

@<TRIPOS>MOLECULE
WUGHOX
    37    38     2
SMALL
NO_CHARGES
****
Generated from CSD

@<TRIPOS>ATOM
      1 C1         0.6199    3.5323    2.0820 C.ar      1 RES1    0.0000
      2 C2         0.1309    2.4054    1.4525 C.ar      1 RES1    0.0000
      3 H1        -0.7049    2.4132    1.0463 H         1 RES1    0.0000
      4 C3         0.9091    1.2698    1.4410 C.ar      1 RES1    0.0000
      5 H2         0.5948    0.5023    1.0197 H         1 RES1    0.0000
      6 C4         2.1625    1.2575    2.0545 C.ar      1 RES1    0.0000
      7 C5         2.6042    2.3986    2.7136 C.ar      1 RES1    0.0000
      8 H3         3.4241    2.3889    3.1523 H         1 RES1    0.0000
      9 C6         1.8366    3.5464    2.7236 C.ar      1 RES1    0.0000
     10 H4         2.1362    4.3139    3.1556 H         1 RES1    0.0000
     11 C7         2.9902    0.0433    2.0765 C.2       1 RES1    0.0000
     12 C8         3.3518   -0.8416    1.0706 C.2       1 RES1    0.0000
     13 C9         3.1983   -0.9566   -0.3565 C.ar      1 RES1    0.0000
     14 C10        2.6432    0.0628   -1.1483 C.ar      1 RES1    0.0000
     15 H5         2.3634    0.8562   -0.7531 H         1 RES1    0.0000
     16 C11        2.5128   -0.1091   -2.5060 C.ar      1 RES1    0.0000
     17 H6         2.1500    0.5690   -3.0290 H         1 RES1    0.0000
     18 C12        2.9250   -1.3012   -3.0970 C.ar      1 RES1    0.0000
     19 H7         2.8075   -1.4244   -4.0120 H         1 RES1    0.0000
     20 C13        3.5012   -2.2947   -2.3489 C.ar      1 RES1    0.0000
     21 H8         3.7798   -3.0795   -2.7624 H         1 RES1    0.0000
     22 C14        3.6754   -2.1392   -0.9672 C.ar      1 RES1    0.0000
     23 C15        4.3611   -3.1363   -0.1676 C.2       1 RES1    0.0000
     24 C16        4.6129   -2.9600    1.1773 C.2       1 RES1    0.0000
     25 C17        4.8578   -4.3092   -0.8049 C.1       1 RES1    0.0000
     26 N1        -0.2034    4.7566    2.0770 N.pl3     1 RES1    0.0000
     27 N2         3.5241   -0.3979    3.2519 N.2       1 RES1    0.0000
     28 N3         4.1814   -1.5144    3.0643 N.2       1 RES1    0.0000
     29 N4         4.0777   -1.7975    1.7371 N.pl3     1 RES1    0.0000
     30 N5         5.2586   -5.2376   -1.3412 N.1       1 RES1    0.0000
     31 O1         0.3665    5.8160    2.3342 O.2       1 RES1    0.0000
     32 O2        -1.3903    4.6796    1.7411 O.2       1 RES1    0.0000
     33 N6         5.2944   -3.7530    1.9983 N.3       1 RES1    0.0000
     34 H9         5.3565   -3.5707    2.8474 H         1 RES1    0.0000
     35 H10        5.6436   -4.4905    1.6861 H         1 RES1    0.0000
     36 O3         0.1230    5.6190    2.9090 Du        2 SUP2    0.0000
     37 O4        -1.2167    4.7189    1.4045 Du        2 SUP2    0.0000
@<TRIPOS>BOND
     1    1    2 ar
     2    2    3 1
     3    4    2 ar
     4    5    4 1
     5    6    4 ar
     6    7    6 ar
     7    8    7 1
     8    9    1 ar
     9   10    9 1
    10   11    6 1
    11   12   11 2
    12   13   12 1
    13   14   13 ar
    14   15   14 1
    15   16   14 ar
    16   17   16 1
    17   18   16 ar
    18   19   18 1
    19   20   18 ar
    20   21   20 1
    21   22   13 ar
    22   23   22 1
    23   24   23 2
    24   25   23 1
    25   26    1 1
    26   27   11 1
    27   28   27 2
    28   29   12 1
    29   30   25 3
    30   31   26 2
    31   32   26 2
    32   33   24 1
    33   34   33 1
    34   35   33 1
    35    7    9 ar
    36   20   22 ar
    37   24   29 1
    38   28   29 1
@<TRIPOS>SUBSTRUCTURE
     1 RES1 1
     2 SUP2 36

@<TRIPOS>CRYSIN
  23.1440    7.8478   17.4480  90.0000 107.2740  90.0000  15 1

