# MOL2 file generated by ConQuest
# Please check atom types

@<TRIPOS>MOLECULE
WUHGIP
    55    60     1
SMALL
NO_CHARGES
****
Generated from CSD

@<TRIPOS>ATOM
      1 O1         3.1091    2.4310    8.8066 O.2       1 RES1    0.0000
      2 O2        -1.6044    4.2447    5.9922 O.2       1 RES1    0.0000
      3 O3        -4.6701   -0.7738   11.9046 O.2       1 RES1    0.0000
      4 O4        -4.0134   -2.1921   13.3906 O.2       1 RES1    0.0000
      5 O5        -3.1480   -0.6901    2.9447 O.2       1 RES1    0.0000
      6 O6        -2.7147   -2.0881    1.3700 O.2       1 RES1    0.0000
      7 N1        -3.8180   -1.2211   12.6520 N.pl3     1 RES1    0.0000
      8 N2        -2.4024   -1.1503    2.0942 N.pl3     1 RES1    0.0000
      9 C1        -0.1851    3.9208    8.7053 C.ar      1 RES1    0.0000
     10 C2        -1.4318    3.7823    9.2850 C.ar      1 RES1    0.0000
     11 H1        -2.1447    4.3435    9.0042 H         1 RES1    0.0000
     12 C3        -1.6556    2.8402   10.2662 C.ar      1 RES1    0.0000
     13 H2        -2.5142    2.7754   10.6665 H         1 RES1    0.0000
     14 C4        -0.6364    1.9810   10.6776 C.ar      1 RES1    0.0000
     15 C5         0.6193    2.1071   10.1011 C.ar      1 RES1    0.0000
     16 H3         1.3247    1.5356   10.3787 H         1 RES1    0.0000
     17 C6         0.8534    3.0706    9.1138 C.ar      1 RES1    0.0000
     18 C7         2.1901    3.1409    8.4665 C.2       1 RES1    0.0000
     19 C8         2.3387    4.1249    7.2985 C.3       1 RES1    0.0000
     20 H4         3.2977    4.3977    7.2128 H         1 RES1    0.0000
     21 C9         1.9076    3.3903    6.0469 C.ar      1 RES1    0.0000
     22 C10        2.8212    2.6061    5.3476 C.ar      1 RES1    0.0000
     23 H5         3.7341    2.5990    5.6093 H         1 RES1    0.0000
     24 C11        2.4056    1.8366    4.2751 C.ar      1 RES1    0.0000
     25 H6         3.0390    1.2970    3.8149 H         1 RES1    0.0000
     26 C12        1.0735    1.8368    3.8531 C.ar      1 RES1    0.0000
     27 C13        0.1784    2.6722    4.5086 C.ar      1 RES1    0.0000
     28 H7        -0.7196    2.7291    4.2055 H         1 RES1    0.0000
     29 C14        0.5821    3.4289    5.6078 C.ar      1 RES1    0.0000
     30 C15       -0.4460    4.2234    6.3329 C.2       1 RES1    0.0000
     31 C16        0.0223    4.9347    7.6001 C.3       1 RES1    0.0000
     32 H8        -0.5531    5.7352    7.7678 H         1 RES1    0.0000
     33 C17        1.4756    5.3631    7.5117 C.3       1 RES1    0.0000
     34 H9         1.7440    5.8219    8.3464 H         1 RES1    0.0000
     35 H10        1.5968    5.9934    6.7576 H         1 RES1    0.0000
     36 C18       -0.9486    0.9368   11.6946 C.ar      1 RES1    0.0000
     37 C19       -2.2168    0.3735   11.7269 C.ar      1 RES1    0.0000
     38 H11       -2.8866    0.6525   11.1129 H         1 RES1    0.0000
     39 C20       -2.4859   -0.6020   12.6711 C.ar      1 RES1    0.0000
     40 C21       -1.5604   -1.0458   13.5839 C.ar      1 RES1    0.0000
     41 H12       -1.7804   -1.7110   14.2259 H         1 RES1    0.0000
     42 C22       -0.3048   -0.4905   13.5337 C.ar      1 RES1    0.0000
     43 H13        0.3620   -0.7826   14.1436 H         1 RES1    0.0000
     44 C23        0.0022    0.4913   12.6015 C.ar      1 RES1    0.0000
     45 H14        0.8765    0.8634   12.5842 H         1 RES1    0.0000
     46 C24        0.6088    0.9019    2.8011 C.ar      1 RES1    0.0000
     47 C25       -0.6802    0.3822    2.8654 C.ar      1 RES1    0.0000
     48 H15       -1.2861    0.6820    3.5330 H         1 RES1    0.0000
     49 C26       -1.0690   -0.5735    1.9494 C.ar      1 RES1    0.0000
     50 C27       -0.2409   -1.0398    0.9512 C.ar      1 RES1    0.0000
     51 H16       -0.5345   -1.7002    0.3348 H         1 RES1    0.0000
     52 C28        1.0318   -0.5099    0.8834 C.ar      1 RES1    0.0000
     53 H17        1.6266   -0.8052    0.2056 H         1 RES1    0.0000
     54 C29        1.4533    0.4474    1.7920 C.ar      1 RES1    0.0000
     55 H18        2.3335    0.7993    1.7268 H         1 RES1    0.0000
@<TRIPOS>BOND
     1    1   18 2
     2    2   30 2
     3    3    7 2
     4    4    7 2
     5    5    8 2
     6    6    8 2
     7    7   39 1
     8    8   49 1
     9    9   10 ar
    10   10   11 1
    11   12   10 ar
    12   13   12 1
    13   14   12 ar
    14   15   14 ar
    15   16   15 1
    16   17    9 ar
    17   18   17 1
    18   19   18 1
    19   20   19 1
    20   21   19 1
    21   22   21 ar
    22   23   22 1
    23   24   22 ar
    24   25   24 1
    25   26   24 ar
    26   27   26 ar
    27   28   27 1
    28   29   21 ar
    29   30   29 1
    30   31    9 1
    31   32   31 1
    32   33   19 1
    33   34   33 1
    34   35   33 1
    35   36   14 1
    36   37   36 ar
    37   38   37 1
    38   39   37 ar
    39   40   39 ar
    40   41   40 1
    41   42   40 ar
    42   43   42 1
    43   44   36 ar
    44   45   44 1
    45   46   26 1
    46   47   46 ar
    47   48   47 1
    48   49   47 ar
    49   50   49 ar
    50   51   50 1
    51   52   50 ar
    52   53   52 1
    53   54   46 ar
    54   55   54 1
    55   15   17 ar
    56   27   29 ar
    57   30   31 1
    58   31   33 1
    59   42   44 ar
    60   52   54 ar
@<TRIPOS>SUBSTRUCTURE
     1 RES1 1

@<TRIPOS>CRYSIN
   7.4340    9.8560   29.3680  90.0000  90.0000  90.0000  19 1

