# MOL2 file generated by ConQuest
# Please check atom types

@<TRIPOS>MOLECULE
WUHYIH
    22    22     1
SMALL
USER_CHARGES
****
Generated from CSD

@<TRIPOS>ATOM
      1 O1         5.6404    3.1292    5.7622 O.co2     1 RES1    0.0000
      2 O2         5.7385   -0.0264    8.9080 O.3       1 RES1    0.0000
      3 O3         6.3762    3.8988    7.7447 O.co2     1 RES1   -1.0000
      4 O4         3.9042   -1.8396    4.6552 O.2       1 RES1    0.0000
      5 O5         6.0566   -2.4391    4.9374 O.3       1 RES1    0.0000
      6 H1         5.7966   -3.4549    5.2358 H         1 RES1    0.0000
      7 N1         4.4704    0.7715    4.6305 N.4       1 RES1    1.0000
      8 H2         4.7649    1.6013    4.8862 H         1 RES1    0.0000
      9 H3         3.8961    0.4654    5.2668 H         1 RES1    0.0000
     10 H4         3.9640    0.8125    3.8387 H         1 RES1    0.0000
     11 C1         5.0962   -1.5915    4.7027 C.2       1 RES1    0.0000
     12 C2         6.0173    1.5721    7.4876 C.2       1 RES1    0.0000
     13 C3         5.6135   -0.1810    4.4631 C.3       1 RES1    0.0000
     14 H5         5.8916   -0.1499    3.5599 H         1 RES1    0.0000
     15 N2         5.6662    1.3598    8.7379 N.2       1 RES1    0.0000
     16 C4         6.3387    0.3626    6.8056 C.2       1 RES1    0.0000
     17 C5         6.7749    0.2112    5.3784 C.3       1 RES1    0.0000
     18 H6         7.4256   -0.5285    5.3140 H         1 RES1    0.0000
     19 H7         7.1541    1.0491    5.0736 H         1 RES1    0.0000
     20 C6         6.0224    2.9942    6.9791 C.2       1 RES1    0.0000
     21 C7         6.1502   -0.5869    7.7474 C.2       1 RES1    0.0000
     22 H8         6.1835   -1.5460    7.7143 H         1 RES1    0.0000
@<TRIPOS>BOND
     1    1   20 2
     2    2   15 1
     3    3   20 1
     4    4   11 2
     5    5    6 1
     6    7    8 1
     7    9    7 1
     8   10    7 1
     9   11    5 1
    10   12   15 2
    11   13    7 1
    12   14   13 1
    13   16   12 1
    14   17   13 1
    15   18   17 1
    16   19   17 1
    17   20   12 1
    18   21    2 1
    19   22   21 1
    20   11   13 1
    21   16   21 2
    22   16   17 1
@<TRIPOS>SUBSTRUCTURE
     1 RES1 1

@<TRIPOS>CRYSIN
   6.7876    7.8880   14.7530  90.0000  90.0000  90.0000  19 1

