# MOL2 file generated by ConQuest
# Please check atom types

@<TRIPOS>MOLECULE
WUHYED
    25    25     1
SMALL
USER_CHARGES
****
Generated from CSD

@<TRIPOS>ATOM
      1 O1         0.9487    0.9390    5.4626 O.3       1 RES1    0.0000
      2 O2        -0.2006    5.2068    0.4987 O.co2     1 RES1    0.0000
      3 O3        -2.3955    0.0194    3.2925 O.3       1 RES1    0.0000
      4 H1        -3.1193   -0.0123    2.6074 H         1 RES1    0.0000
      5 O4        -1.7736    1.7122    1.9625 O.2       1 RES1    0.0000
      6 O5         1.4273    6.1918    1.6544 O.co2     1 RES1   -1.0000
      7 N1         0.7948    2.7524    0.9302 N.4       1 RES1    1.0000
      8 H2         1.3360    2.9419    0.2045 H         1 RES1    0.0000
      9 H3         0.9518    1.8996    1.2807 H         1 RES1    0.0000
     10 H4        -0.0917    2.8186    0.6365 H         1 RES1    0.0000
     11 N2        -0.1438    0.3780    4.7931 N.2       1 RES1    0.0000
     12 C1         0.7546    5.1843    1.2761 C.2       1 RES1    0.0000
     13 C2         1.2059    2.1673    4.9390 C.2       1 RES1    0.0000
     14 C3        -0.4862    1.2700    3.8915 C.2       1 RES1    0.0000
     15 C4         0.3343    2.4352    3.9380 C.2       1 RES1    0.0000
     16 C5        -1.6199    1.0152    2.9505 C.2       1 RES1    0.0000
     17 C6         1.0849    3.8297    1.9254 C.3       1 RES1    0.0000
     18 H5         2.0528    3.7746    2.1703 H         1 RES1    0.0000
     19 C7         0.2001    3.7104    3.1724 C.3       1 RES1    0.0000
     20 H6         0.4014    4.4222    3.7782 H         1 RES1    0.0000
     21 H7        -0.7454    3.8054    2.9372 H         1 RES1    0.0000
     22 C8         2.3292    2.9259    5.5385 C.3       1 RES1    0.0000
     23 H8         2.2133    2.9296    6.5390 H         1 RES1    0.0000
     24 H9         3.2282    2.5719    5.3503 H         1 RES1    0.0000
     25 H10        2.3280    3.8301    5.1765 H         1 RES1    0.0000
@<TRIPOS>BOND
     1    1   11 1
     2    2   12 2
     3    3    4 1
     4    5   16 2
     5    6   12 1
     6    7    8 1
     7    9    7 1
     8   10    7 1
     9   11   14 2
    10   12   17 1
    11   13    1 1
    12   14   15 1
    13   15   13 2
    14   16    3 1
    15   17    7 1
    16   18   17 1
    17   19   15 1
    18   20   19 1
    19   21   19 1
    20   22   13 1
    21   23   22 1
    22   24   22 1
    23   25   22 1
    24   14   16 1
    25   17   19 1
@<TRIPOS>SUBSTRUCTURE
     1 RES1 1

@<TRIPOS>CRYSIN
   5.7340    6.1676   25.5630  90.0000  90.0000  90.0000  19 1

