# MOL2 file generated by ConQuest
# Please check atom types

@<TRIPOS>MOLECULE
WUKNUL
    31    32     1
SMALL
NO_CHARGES
****
Generated from CSD

@<TRIPOS>ATOM
      1 O1        -0.0099   10.9170    7.3925 O.3       1 RES1    0.0000
      2 O2        -2.3933   10.1908    6.6734 O.2       1 RES1    0.0000
      3 N1        -0.7131    9.9983    8.1577 N.am      1 RES1    0.0000
      4 C1        -1.9568    9.6599    7.7130 C.2       1 RES1    0.0000
      5 C2        -2.6506    8.6816    8.5221 C.ar      1 RES1    0.0000
      6 C3        -3.9309    8.2435    8.1626 C.ar      1 RES1    0.0000
      7 H1        -4.3384    8.5797    7.3976 H         1 RES1    0.0000
      8 C4        -4.5828    7.3222    8.9330 C.ar      1 RES1    0.0000
      9 H2        -5.4328    7.0343    8.6902 H         1 RES1    0.0000
     10 C5        -3.9780    6.8121   10.0818 C.ar      1 RES1    0.0000
     11 H3        -4.4294    6.1874   10.6020 H         1 RES1    0.0000
     12 C6        -2.7283    7.2233   10.4489 C.ar      1 RES1    0.0000
     13 H4        -2.3368    6.8714   11.2154 H         1 RES1    0.0000
     14 C7        -2.0248    8.1717    9.6830 C.ar      1 RES1    0.0000
     15 C8        -0.7220    8.6242   10.0365 C.2       1 RES1    0.0000
     16 H5        -0.3155    8.2832   10.8010 H         1 RES1    0.0000
     17 C9        -0.0645    9.5325    9.2923 C.2       1 RES1    0.0000
     18 C10        1.3040   10.0862    9.5645 C.3       1 RES1    0.0000
     19 H6         1.2494   11.0552    9.5790 H         1 RES1    0.0000
     20 H7         1.8906    9.8365    8.8338 H         1 RES1    0.0000
     21 C11        1.9250    9.6147   10.8685 C.3       1 RES1    0.0000
     22 H8         2.0387    8.6516   10.8375 H         1 RES1    0.0000
     23 H9         1.3218    9.8197   11.6003 H         1 RES1    0.0000
     24 C12        3.2763   10.2703   11.1352 C.3       1 RES1    0.0000
     25 H10        3.8771   10.0623   10.4031 H         1 RES1    0.0000
     26 H11        3.1603   11.2326   11.1589 H         1 RES1    0.0000
     27 C13        3.9113    9.8181   12.4374 C.3       1 RES1    0.0000
     28 H12        4.7650   10.2443   12.5421 H         1 RES1    0.0000
     29 H13        4.0282    8.8650   12.4220 H         1 RES1    0.0000
     30 H14        3.3420   10.0589   13.1719 H         1 RES1    0.0000
     31 H15       -0.5898   11.1102    6.6407 H         1 RES1    0.0000
@<TRIPOS>BOND
     1    1    3 1
     2    2    4 2
     3    3    4 1
     4    4    5 1
     5    5    6 ar
     6    6    7 1
     7    8    6 ar
     8    9    8 1
     9   10    8 ar
    10   11   10 1
    11   12   10 ar
    12   13   12 1
    13   14    5 ar
    14   15   14 1
    15   16   15 1
    16   17    3 1
    17   18   17 1
    18   19   18 1
    19   20   18 1
    20   21   18 1
    21   22   21 1
    22   23   21 1
    23   24   21 1
    24   25   24 1
    25   26   24 1
    26   27   24 1
    27   28   27 1
    28   29   27 1
    29   30   27 1
    30   31    1 1
    31   12   14 ar
    32   15   17 2
@<TRIPOS>SUBSTRUCTURE
     1 RES1 1

@<TRIPOS>CRYSIN
   8.5853   11.2315   12.1506  90.0000 104.3370  90.0000 231 1

