# MOL2 file generated by ConQuest
# Please check atom types

@<TRIPOS>MOLECULE
WUKPAT
    29    31     1
SMALL
NO_CHARGES
****
Generated from CSD

@<TRIPOS>ATOM
      1 O1         1.7046    1.8154    3.5464 O.3       1 RES1    0.0000
      2 H1         0.7957    2.3813    3.5190 H         1 RES1    0.0000
      3 O2        -0.1394   -0.2674    3.5910 O.2       1 RES1    0.0000
      4 N1         1.4430    1.0247    4.6461 N.am      1 RES1    0.0000
      5 C1         0.5753   -0.0294    4.5695 C.2       1 RES1    0.0000
      6 C2         0.6925   -0.7278    5.8603 C.ar      1 RES1    0.0000
      7 C3        -0.0091   -1.8144    6.3504 C.ar      1 RES1    0.0000
      8 H2        -0.6535   -2.2436    5.8341 H         1 RES1    0.0000
      9 C4         0.2789   -2.2390    7.6282 C.ar      1 RES1    0.0000
     10 H3        -0.1806   -2.9652    7.9837 H         1 RES1    0.0000
     11 C5         1.2422   -1.6025    8.3906 C.ar      1 RES1    0.0000
     12 H4         1.4186   -1.9088    9.2504 H         1 RES1    0.0000
     13 C6         1.9474   -0.5213    7.9004 C.ar      1 RES1    0.0000
     14 H5         2.5886   -0.0928    8.4202 H         1 RES1    0.0000
     15 C7         1.6715   -0.0913    6.6078 C.ar      1 RES1    0.0000
     16 C8         2.1989    1.0456    5.8331 C.2       1 RES1    0.0000
     17 C9         3.1887    1.8500    6.1921 C.2       1 RES1    0.0000
     18 H6         3.5751    1.6164    7.0052 H         1 RES1    0.0000
     19 C10        3.8013    3.0294    5.5779 C.ar      1 RES1    0.0000
     20 C11        5.1806    3.1539    5.6245 C.ar      1 RES1    0.0000
     21 H7         5.6805    2.4772    6.0209 H         1 RES1    0.0000
     22 C12        5.8289    4.2406    5.1053 C.ar      1 RES1    0.0000
     23 H8         6.7579    4.2823    5.1209 H         1 RES1    0.0000
     24 C13        5.1017    5.2699    4.5616 C.ar      1 RES1    0.0000
     25 H9         5.5366    6.0124    4.2094 H         1 RES1    0.0000
     26 C14        3.7251    5.1996    4.5394 C.ar      1 RES1    0.0000
     27 H10        3.2312    5.9057    4.1880 H         1 RES1    0.0000
     28 C15        3.0753    4.0890    5.0348 C.ar      1 RES1    0.0000
     29 H11        2.1468    4.0457    5.0067 H         1 RES1    0.0000
@<TRIPOS>BOND
     1    1    2 1
     2    3    5 2
     3    4    1 1
     4    5    4 1
     5    6    5 1
     6    7    6 ar
     7    8    7 1
     8    9    7 ar
     9   10    9 1
    10   11    9 ar
    11   12   11 1
    12   13   11 ar
    13   14   13 1
    14   15    6 ar
    15   16    4 1
    16   17   16 2
    17   18   17 1
    18   19   17 1
    19   20   19 ar
    20   21   20 1
    21   22   20 ar
    22   23   22 1
    23   24   22 ar
    24   25   24 1
    25   26   24 ar
    26   27   26 1
    27   28   19 ar
    28   29   28 1
    29   13   15 ar
    30   15   16 1
    31   26   28 ar
@<TRIPOS>SUBSTRUCTURE
     1 RES1 1

@<TRIPOS>CRYSIN
  10.6150    7.7340   14.2870  90.0000  93.2350  90.0000  14 1

