# MOL2 file generated by ConQuest
# Please check atom types

@<TRIPOS>MOLECULE
WUKVOO
    44    45     1
SMALL
NO_CHARGES
****
Generated from CSD

@<TRIPOS>ATOM
      1 O1         1.1864    7.2873   -0.7231 O.2       1 RES1    0.0000
      2 O2         2.2159    8.2186    0.9171 O.2       1 RES1    0.0000
      3 O3         4.7951    7.9334    3.8011 O.2       1 RES1    0.0000
      4 O4         7.0048    7.9442    3.5406 O.3       1 RES1    0.0000
      5 N1         1.8136    7.2353    0.3257 N.pl3     1 RES1    0.0000
      6 C1         2.1090    5.9085    0.8761 C.ar      1 RES1    0.0000
      7 C2         1.5936    4.8007    0.2493 C.ar      1 RES1    0.0000
      8 H1         1.0761    4.8834   -0.5177 H         1 RES1    0.0000
      9 C3         1.8650    3.5652    0.7903 C.ar      1 RES1    0.0000
     10 H2         1.5134    2.8002    0.3965 H         1 RES1    0.0000
     11 C4         2.6525    3.4565    1.9086 C.ar      1 RES1    0.0000
     12 H3         2.8252    2.6135    2.2608 H         1 RES1    0.0000
     13 C5         3.1967    4.5722    2.5278 C.ar      1 RES1    0.0000
     14 C6         2.8842    5.8218    2.0124 C.ar      1 RES1    0.0000
     15 H4         3.1946    6.5931    2.4279 H         1 RES1    0.0000
     16 C7         4.0747    4.4004    3.6952 C.2       1 RES1    0.0000
     17 H5         3.7752    3.8040    4.3414 H         1 RES1    0.0000
     18 C8         5.2481    4.9913    3.9459 C.2       1 RES1    0.0000
     19 C9         5.9657    4.7053    5.1801 C.2       1 RES1    0.0000
     20 H6         5.5463    4.1388    5.7863 H         1 RES1    0.0000
     21 C10        7.1597    5.1726    5.5252 C.2       1 RES1    0.0000
     22 H7         7.6018    5.6815    4.8853 H         1 RES1    0.0000
     23 C11        7.8609    4.9811    6.7922 C.ar      1 RES1    0.0000
     24 C12        7.3626    4.2113    7.8308 C.ar      1 RES1    0.0000
     25 H8         6.5648    3.7473    7.7162 H         1 RES1    0.0000
     26 C13        8.0315    4.1223    9.0300 C.ar      1 RES1    0.0000
     27 H9         7.6826    3.5960    9.7115 H         1 RES1    0.0000
     28 C14        9.1946    4.7952    9.2296 C.ar      1 RES1    0.0000
     29 H10        9.6292    4.7463   10.0490 H         1 RES1    0.0000
     30 C15        9.7231    5.5452    8.2139 C.ar      1 RES1    0.0000
     31 H11       10.5277    5.9943    8.3387 H         1 RES1    0.0000
     32 C16        9.0624    5.6358    7.0061 C.ar      1 RES1    0.0000
     33 H12        9.4318    6.1464    6.3236 H         1 RES1    0.0000
     34 C17        5.8896    5.9620    2.9892 C.3       1 RES1    0.0000
     35 H13        6.8204    5.7202    2.8637 H         1 RES1    0.0000
     36 H14        5.4482    5.8990    2.1264 H         1 RES1    0.0000
     37 C18        5.8081    7.3810    3.4855 C.2       1 RES1    0.0000
     38 C19        7.1055    9.3122    4.0029 C.3       1 RES1    0.0000
     39 H15        6.3173    9.5517    4.5150 H         1 RES1    0.0000
     40 H16        7.1775    9.9165    3.2470 H         1 RES1    0.0000
     41 C20        8.3208    9.4123    4.8568 C.3       1 RES1    0.0000
     42 H17        8.2063    8.8686    5.6389 H         1 RES1    0.0000
     43 H18        8.4537   10.3262    5.1179 H         1 RES1    0.0000
     44 H19        9.0850    9.1058    4.3643 H         1 RES1    0.0000
@<TRIPOS>BOND
     1    1    5 2
     2    2    5 2
     3    3   37 2
     4    4   37 1
     5    5    6 1
     6    6    7 ar
     7    7    8 1
     8    9    7 ar
     9   10    9 1
    10   11    9 ar
    11   12   11 1
    12   13   11 ar
    13   14    6 ar
    14   15   14 1
    15   16   13 1
    16   17   16 1
    17   18   16 2
    18   19   18 1
    19   20   19 1
    20   21   19 2
    21   22   21 1
    22   23   21 1
    23   24   23 ar
    24   25   24 1
    25   26   24 ar
    26   27   26 1
    27   28   26 ar
    28   29   28 1
    29   30   28 ar
    30   31   30 1
    31   32   23 ar
    32   33   32 1
    33   34   18 1
    34   35   34 1
    35   36   34 1
    36   37   34 1
    37   38    4 1
    38   39   38 1
    39   40   38 1
    40   41   38 1
    41   42   41 1
    42   43   41 1
    43   44   41 1
    44   13   14 ar
    45   30   32 ar
@<TRIPOS>SUBSTRUCTURE
     1 RES1 1

@<TRIPOS>CRYSIN
   6.8540    7.8790   32.7650  90.0000  90.0000  90.0000  14 1

