# MOL2 file generated by ConQuest
# Please check atom types

@<TRIPOS>MOLECULE
WULTUU
    27    27     1
SMALL
NO_CHARGES
****
Generated from CSD

@<TRIPOS>ATOM
      1 O1         0.0273   -1.4449    3.4096 O.2       1 RES1    0.0000
      2 O2         3.5660    6.2290   11.0234 O.2       1 RES1    0.0000
      3 O3         2.4836    5.1020   12.5207 O.2       1 RES1    0.0000
      4 N1         2.8492    5.2867   11.3625 N.pl3     1 RES1    0.0000
      5 C1         2.4155    4.3352   10.3296 C.ar      1 RES1    0.0000
      6 C2         2.7156    4.6088    9.0062 C.ar      1 RES1    0.0000
      7 H1         3.1829    5.4008    8.7684 H         1 RES1    0.0000
      8 C3         2.3197    3.7024    8.0373 C.ar      1 RES1    0.0000
      9 H2         2.5186    3.8772    7.1248 H         1 RES1    0.0000
     10 C4         1.6290    2.5292    8.3806 C.ar      1 RES1    0.0000
     11 C5         1.3250    2.3034    9.7337 C.ar      1 RES1    0.0000
     12 H3         0.8385    1.5259    9.9808 H         1 RES1    0.0000
     13 C6         1.7248    3.1988   10.7139 C.ar      1 RES1    0.0000
     14 H4         1.5290    3.0363   11.6296 H         1 RES1    0.0000
     15 C7         1.1885    1.5424    7.3877 C.2       1 RES1    0.0000
     16 H5         0.5964    0.8642    7.6914 H         1 RES1    0.0000
     17 C8         1.5394    1.5041    6.0953 C.2       1 RES1    0.0000
     18 H6         2.1374    2.1664    5.7695 H         1 RES1    0.0000
     19 C9         1.0527    0.5038    5.1726 C.2       1 RES1    0.0000
     20 H7         0.4573   -0.1538    5.5130 H         1 RES1    0.0000
     21 C10        1.3750    0.4315    3.8768 C.2       1 RES1    0.0000
     22 H8         1.9798    1.0697    3.5158 H         1 RES1    0.0000
     23 C11        0.8163   -0.6152    2.9854 C.2       1 RES1    0.0000
     24 C12        1.2453   -0.5967    1.5455 C.3       1 RES1    0.0000
     25 H9         0.7897   -1.3161    1.0592 H         1 RES1    0.0000
     26 H10        2.2145   -0.7293    1.4918 H         1 RES1    0.0000
     27 H11        1.0110    0.2668    1.1460 H         1 RES1    0.0000
@<TRIPOS>BOND
     1    1   23 2
     2    2    4 2
     3    3    4 2
     4    4    5 1
     5    5    6 ar
     6    6    7 1
     7    8    6 ar
     8    9    8 1
     9   10    8 ar
    10   11   10 ar
    11   12   11 1
    12   13    5 ar
    13   14   13 1
    14   15   10 1
    15   16   15 1
    16   17   15 2
    17   18   17 1
    18   19   17 1
    19   20   19 1
    20   21   19 2
    21   22   21 1
    22   23   21 1
    23   24   23 1
    24   25   24 1
    25   26   24 1
    26   27   24 1
    27   11   13 ar
@<TRIPOS>SUBSTRUCTURE
     1 RES1 1

@<TRIPOS>CRYSIN
   3.9250   10.3870   12.9080  97.9800  93.1400  91.0700   2 1

