# MOL2 file generated by ConQuest
# Please check atom types

@<TRIPOS>MOLECULE
WULYUZ
    80    85     1
SMALL
USER_CHARGES
****
Generated from CSD

@<TRIPOS>ATOM
      1 O1        10.4377    7.8456    1.6340 O.2       1 RES1   -1.0000
      2 O2         9.9551   13.9068    5.5629 O.3       1 RES1    0.0000
      3 O3         8.1616   14.8669    3.9553 O.3       1 RES1    0.0000
      4 O4         7.5457    9.2609   -0.9983 O.2       1 RES1    0.0000
      5 N1         9.9878    9.1537    1.7080 N.4       1 RES1    1.0000
      6 N2         9.1144    7.6786   -0.5591 N.am      1 RES1    0.0000
      7 H1         9.5840    7.3022    0.0822 H         1 RES1    0.0000
      8 C1        10.0036    9.5764    3.1845 C.3       1 RES1    0.0000
      9 H2        10.9584    9.5664    3.4843 H         1 RES1    0.0000
     10 C2         9.5111   10.9971    3.3184 C.ar      1 RES1    0.0000
     11 C3         9.9938   11.7758    4.3831 C.ar      1 RES1    0.0000
     12 H3        10.6426   11.4140    4.9766 H         1 RES1    0.0000
     13 C4         9.5330   13.0624    4.5750 C.ar      1 RES1    0.0000
     14 C5         8.5618   13.5883    3.6897 C.ar      1 RES1    0.0000
     15 C6         8.0865   12.8141    2.6518 C.ar      1 RES1    0.0000
     16 H4         7.4319   13.1699    2.0611 H         1 RES1    0.0000
     17 C7         8.5586   11.5049    2.4569 C.ar      1 RES1    0.0000
     18 C8         8.0576   10.7259    1.2637 C.3       1 RES1    0.0000
     19 H5         8.3325   11.2001    0.4390 H         1 RES1    0.0000
     20 H6         7.0676   10.7153    1.2869 H         1 RES1    0.0000
     21 C9         8.5596    9.2807    1.1850 C.3       1 RES1    0.0000
     22 H7         7.9767    8.7332    1.7843 H         1 RES1    0.0000
     23 C10        8.3715    8.7378   -0.2585 C.2       1 RES1    0.0000
     24 C11        9.1919    7.1078   -1.8987 C.3       1 RES1    0.0000
     25 H8         8.7698    7.7512   -2.5370 H         1 RES1    0.0000
     26 C12        8.4642    5.7764   -2.0159 C.ar      1 RES1    0.0000
     27 C13        7.8414    5.1608   -0.9438 C.ar      1 RES1    0.0000
     28 H9         7.8358    5.5866   -0.0952 H         1 RES1    0.0000
     29 C14        7.2238    3.9235   -1.1006 C.ar      1 RES1    0.0000
     30 H10        6.7987    3.5083   -0.3612 H         1 RES1    0.0000
     31 C15        7.2300    3.2999   -2.3339 C.ar      1 RES1    0.0000
     32 H11        6.8170    2.4512   -2.4396 H         1 RES1    0.0000
     33 C16        7.8374    3.9117   -3.4131 C.ar      1 RES1    0.0000
     34 H12        7.8365    3.4870   -4.2629 H         1 RES1    0.0000
     35 C17        8.4439    5.1369   -3.2574 C.ar      1 RES1    0.0000
     36 H13        8.8552    5.5542   -4.0055 H         1 RES1    0.0000
     37 C18       10.6620    6.9582   -2.2746 C.ar      1 RES1    0.0000
     38 C19       11.2215    7.7634   -3.2392 C.ar      1 RES1    0.0000
     39 H14       10.6819    8.3984   -3.6962 H         1 RES1    0.0000
     40 C20       12.5717    7.6515   -3.5491 C.ar      1 RES1    0.0000
     41 H15       12.9503    8.2170   -4.2131 H         1 RES1    0.0000
     42 C21       13.3655    6.7294   -2.9038 C.ar      1 RES1    0.0000
     43 H16       14.2907    6.6650   -3.1123 H         1 RES1    0.0000
     44 C22       12.8104    5.9040   -1.9575 C.ar      1 RES1    0.0000
     45 H17       13.3475    5.2552   -1.5183 H         1 RES1    0.0000
     46 C23       11.4637    6.0174   -1.6411 C.ar      1 RES1    0.0000
     47 H18       11.0858    5.4444   -0.9841 H         1 RES1    0.0000
     48 C24       10.9075   10.0407    0.8681 C.3       1 RES1    0.0000
     49 H19       10.8064    9.7881   -0.0843 H         1 RES1    0.0000
     50 H20       10.6113   10.9807    0.9603 H         1 RES1    0.0000
     51 C25       12.3672    9.9594    1.2332 C.ar      1 RES1    0.0000
     52 C26       13.1843    8.9886    0.6666 C.ar      1 RES1    0.0000
     53 H21       12.8096    8.3223    0.1038 H         1 RES1    0.0000
     54 C27       14.5501    8.9921    0.9242 C.ar      1 RES1    0.0000
     55 H22       15.1068    8.3256    0.5385 H         1 RES1    0.0000
     56 C28       15.1015    9.9602    1.7382 C.ar      1 RES1    0.0000
     57 H23       16.0348    9.9583    1.9119 H         1 RES1    0.0000
     58 C29       14.3025   10.9278    2.2995 C.ar      1 RES1    0.0000
     59 H24       14.6841   11.5932    2.8592 H         1 RES1    0.0000
     60 C30       12.9384   10.9319    2.0477 C.ar      1 RES1    0.0000
     61 H25       12.3901   11.6044    2.4353 H         1 RES1    0.0000
     62 C31        9.2426    8.5891    4.0719 C.ar      1 RES1    0.0000
     63 C32        9.7865    7.3335    4.3511 C.ar      1 RES1    0.0000
     64 H26       10.6124    7.0804    3.9557 H         1 RES1    0.0000
     65 C33        9.1314    6.4522    5.2007 C.ar      1 RES1    0.0000
     66 H27        9.5038    5.5945    5.3702 H         1 RES1    0.0000
     67 C34        7.9399    6.8176    5.7997 C.ar      1 RES1    0.0000
     68 H28        7.4961    6.2148    6.3846 H         1 RES1    0.0000
     69 C35        7.3977    8.0654    5.5430 C.ar      1 RES1    0.0000
     70 H29        6.5832    8.3212    5.9585 H         1 RES1    0.0000
     71 C36        8.0404    8.9447    4.6798 C.ar      1 RES1    0.0000
     72 H30        7.6563    9.7959    4.5029 H         1 RES1    0.0000
     73 C37       10.8692   13.3678    6.5241 C.3       1 RES1    0.0000
     74 H31       10.4477   12.6156    6.9901 H         1 RES1    0.0000
     75 H32       11.1077   14.0623    7.1740 H         1 RES1    0.0000
     76 H33       11.6788   13.0568    6.0666 H         1 RES1    0.0000
     77 C38        7.3981   15.5195    2.9457 C.3       1 RES1    0.0000
     78 H34        7.9115   15.5427    2.1109 H         1 RES1    0.0000
     79 H35        7.1949   16.4352    3.2312 H         1 RES1    0.0000
     80 H36        6.5618   15.0298    2.8008 H         1 RES1    0.0000
@<TRIPOS>BOND
     1    1    5 1
     2    2   13 1
     3    3   14 1
     4    4   23 2
     5    5    8 1
     6    6    7 1
     7    8    9 1
     8   10    8 1
     9   11   10 ar
    10   12   11 1
    11   13   11 ar
    12   14   13 ar
    13   15   14 ar
    14   16   15 1
    15   17   10 ar
    16   18   17 1
    17   19   18 1
    18   20   18 1
    19   21    5 1
    20   22   21 1
    21   23    6 1
    22   24    6 1
    23   25   24 1
    24   26   24 1
    25   27   26 ar
    26   28   27 1
    27   29   27 ar
    28   30   29 1
    29   31   29 ar
    30   32   31 1
    31   33   31 ar
    32   34   33 1
    33   35   26 ar
    34   36   35 1
    35   37   24 1
    36   38   37 ar
    37   39   38 1
    38   40   38 ar
    39   41   40 1
    40   42   40 ar
    41   43   42 1
    42   44   42 ar
    43   45   44 1
    44   46   37 ar
    45   47   46 1
    46   48    5 1
    47   49   48 1
    48   50   48 1
    49   51   48 1
    50   52   51 ar
    51   53   52 1
    52   54   52 ar
    53   55   54 1
    54   56   54 ar
    55   57   56 1
    56   58   56 ar
    57   59   58 1
    58   60   51 ar
    59   61   60 1
    60   62    8 1
    61   63   62 ar
    62   64   63 1
    63   65   63 ar
    64   66   65 1
    65   67   65 ar
    66   68   67 1
    67   69   67 ar
    68   70   69 1
    69   71   62 ar
    70   72   71 1
    71   73    2 1
    72   74   73 1
    73   75   73 1
    74   76   73 1
    75   77    3 1
    76   78   77 1
    77   79   77 1
    78   80   77 1
    79   15   17 ar
    80   18   21 1
    81   21   23 1
    82   33   35 ar
    83   44   46 ar
    84   58   60 ar
    85   69   71 ar
@<TRIPOS>SUBSTRUCTURE
     1 RES1 1

@<TRIPOS>CRYSIN
  12.5897   11.1979   21.6583  90.0000  93.0350  90.0000  14 1

