# MOL2 file generated by ConQuest
# Please check atom types

@<TRIPOS>MOLECULE
WUMHUI
    32    34     1
SMALL
NO_CHARGES
****
Generated from CSD

@<TRIPOS>ATOM
      1 O1         3.4527   -1.0398    6.0857 O.3       1 RES1    0.0000
      2 O2         1.0488   -0.4995    9.5445 O.2       1 RES1    0.0000
      3 O3         2.5023   -1.7942   10.4157 O.2       1 RES1    0.0000
      4 N1         1.9873   -1.2576    9.4566 N.pl3     1 RES1    0.0000
      5 C1         2.2653   -2.9969    7.6747 C.3       1 RES1    0.0000
      6 C2         2.4864   -1.5774    8.1081 C.3       1 RES1    0.0000
      7 C3         3.6392   -2.4925    7.9194 C.3       1 RES1    0.0000
      8 C4         4.3619   -1.9481    6.7245 C.3       1 RES1    0.0000
      9 C5         4.2305    1.0163    8.1745 C.3       1 RES1    0.0000
     10 C6         2.8787    0.9020    7.4906 C.3       1 RES1    0.0000
     11 C7         2.8192    1.8757    6.3176 C.3       1 RES1    0.0000
     12 C8         4.4409    3.4060    7.4516 C.3       1 RES1    0.0000
     13 C9         4.5276    2.4440    8.6093 C.3       1 RES1    0.0000
     14 C10        2.5124   -0.5099    7.0394 C.3       1 RES1    0.0000
     15 C11        3.1195    3.3030    6.7503 C.3       1 RES1    0.0000
     16 H1         1.8584   -3.6174    8.2685 H         1 RES1    0.0000
     17 H2         1.9916   -3.1841    6.7844 H         1 RES1    0.0000
     18 H3         4.5844   -2.6539    6.1296 H         1 RES1    0.0000
     19 H4         5.1535   -1.4940    6.9879 H         1 RES1    0.0000
     20 H5         4.2520    0.4345    8.9264 H         1 RES1    0.0000
     21 H6         4.9005    0.7547    7.5538 H         1 RES1    0.0000
     22 H7         3.4684    1.6102    5.6762 H         1 RES1    0.0000
     23 H8         1.9546    1.8403    5.9262 H         1 RES1    0.0000
     24 H9         4.5814    4.2952    7.7542 H         1 RES1    0.0000
     25 H10        5.1223    3.1703    6.8329 H         1 RES1    0.0000
     26 H11        3.8637    2.6974    9.2394 H         1 RES1    0.0000
     27 H12        5.3846    2.4934    9.0152 H         1 RES1    0.0000
     28 H13        3.1151    3.8784    5.9943 H         1 RES1    0.0000
     29 H14        2.4450    3.5768    7.3607 H         1 RES1    0.0000
     30 H15        4.1233   -2.7994    8.6775 H         1 RES1    0.0000
     31 H16        1.6581   -0.4844    6.6254 H         1 RES1    0.0000
     32 H17        2.2250    1.1831    8.1198 H         1 RES1    0.0000
@<TRIPOS>BOND
     1    1    8 1
     2    2    4 2
     3    3    4 2
     4    4    6 1
     5    5    6 1
     6    6    7 1
     7    7    5 1
     8    8    7 1
     9    9   10 1
    10   10   11 1
    11   11   15 1
    12   12   13 1
    13   13    9 1
    14   14    1 1
    15   15   12 1
    16   16    5 1
    17   17    5 1
    18   18    8 1
    19   19    8 1
    20   20    9 1
    21   21    9 1
    22   22   11 1
    23   23   11 1
    24   24   12 1
    25   25   12 1
    26   26   13 1
    27   27   13 1
    28   28   15 1
    29   29   15 1
    30   30    7 1
    31   31   14 1
    32   32   10 1
    33    6   14 1
    34   10   14 1
@<TRIPOS>SUBSTRUCTURE
     1 RES1 1

@<TRIPOS>CRYSIN
   5.7937    9.4889   10.8160 103.9330  98.5700  95.7220   2 1

