# MOL2 file generated by ConQuest
# Please check atom types

@<TRIPOS>MOLECULE
WUNJUM
    76    78     1
SMALL
NO_CHARGES
****
Generated from CSD

@<TRIPOS>ATOM
      1 C1         9.8565    1.7454    2.0217 C.3       1 RES1    0.0000
      2 C2        10.8763    1.6976    0.8542 C.3       1 RES1    0.0000
      3 H1        10.4408    1.2693    0.0626 H         1 RES1    0.0000
      4 C3        11.1023    3.1777    0.5510 C.3       1 RES1    0.0000
      5 H2        11.3358    3.2992   -0.4040 H         1 RES1    0.0000
      6 H3        11.8446    3.5294    1.1032 H         1 RES1    0.0000
      7 C4         9.7890    3.9313    0.8800 C.3       1 RES1    0.0000
      8 H4         9.3519    4.1982    0.0213 H         1 RES1    0.0000
      9 C5         8.8534    2.9087    1.6215 C.3       1 RES1    0.0000
     10 C6         7.8156    2.3680    0.6145 C.3       1 RES1    0.0000
     11 H5         8.2793    2.1108   -0.2209 H         1 RES1    0.0000
     12 H6         7.3939    1.5539    0.9898 H         1 RES1    0.0000
     13 C7         6.7227    3.3915    0.2854 C.3       1 RES1    0.0000
     14 H7         7.1285    4.1687   -0.1736 H         1 RES1    0.0000
     15 H8         6.0636    2.9818   -0.3296 H         1 RES1    0.0000
     16 C8         6.0110    3.8643    1.5454 C.3       1 RES1    0.0000
     17 H9         5.3424    4.5560    1.3099 H         1 RES1    0.0000
     18 H10        5.5341    3.1032    1.9631 H         1 RES1    0.0000
     19 C9         7.0104    4.4378    2.5278 C.3       1 RES1    0.0000
     20 H11        6.5398    4.6960    3.3593 H         1 RES1    0.0000
     21 H12        7.4168    5.2528    2.1415 H         1 RES1    0.0000
     22 C10        8.1157    3.4331    2.8649 C.3       1 RES1    0.0000
     23 H13        7.7178    2.6676    3.3499 H         1 RES1    0.0000
     24 H14        8.7699    3.8653    3.4692 H         1 RES1    0.0000
     25 C11       10.1106    5.1841    1.6688 C.2       1 RES1    0.0000
     26 O1        10.7945    5.1943    2.6616 O.2       1 RES1    0.0000
     27 O2         9.5455    6.2605    1.1200 O.3       1 RES1    0.0000
     28 C12        9.7898    7.6134    1.6707 C.3       1 RES1    0.0000
     29 C13        8.9509    8.4902    0.7725 C.3       1 RES1    0.0000
     30 H15        9.2528    8.3918   -0.1547 H         1 RES1    0.0000
     31 H16        9.0449    9.4261    1.0477 H         1 RES1    0.0000
     32 H17        8.0112    8.2222    0.8398 H         1 RES1    0.0000
     33 C14        9.2934    7.6951    3.1025 C.3       1 RES1    0.0000
     34 H18        8.3623    7.3947    3.1432 H         1 RES1    0.0000
     35 H19        9.3510    8.6220    3.4160 H         1 RES1    0.0000
     36 H20        9.8471    7.1225    3.6735 H         1 RES1    0.0000
     37 C15       11.2572    7.9486    1.5502 C.3       1 RES1    0.0000
     38 H21       11.7695    7.4025    2.1828 H         1 RES1    0.0000
     39 H22       11.3926    8.8973    1.7529 H         1 RES1    0.0000
     40 H23       11.5605    7.7618    0.6367 H         1 RES1    0.0000
     41 C16       12.1724    0.9703    1.1508 C.3       1 RES1    0.0000
     42 H24       12.7202    0.8960    0.3296 H         1 RES1    0.0000
     43 H25       12.6938    1.4621    1.8344 H         1 RES1    0.0000
     44 O3        11.8253   -0.3231    1.6304 O.3       1 RES1    0.0000
     45 N1        13.0021   -1.1823    1.6635 N.3       1 RES1    0.0000
     46 C17       13.2639   -1.5099    3.0951 C.3       1 RES1    0.0000
     47 C18       14.4421   -2.4986    3.0935 C.3       1 RES1    0.0000
     48 H26       15.2548   -2.0268    2.7817 H         1 RES1    0.0000
     49 H27       14.6068   -2.7998    4.0220 H         1 RES1    0.0000
     50 C19       14.2194   -3.7140    2.2201 C.3       1 RES1    0.0000
     51 H28       13.4605   -4.2449    2.5691 H         1 RES1    0.0000
     52 H29       15.0269   -4.2853    2.2254 H         1 RES1    0.0000
     53 C20       13.9214   -3.2547    0.8088 C.3       1 RES1    0.0000
     54 H30       13.7411   -4.0489    0.2457 H         1 RES1    0.0000
     55 H31       14.7231   -2.8014    0.4429 H         1 RES1    0.0000
     56 C21       12.7235   -2.2959    0.7159 C.3       1 RES1    0.0000
     57 C22       11.3986   -3.0444    0.9526 C.3       1 RES1    0.0000
     58 H32       11.4922   -3.6367    1.7269 H         1 RES1    0.0000
     59 H33       11.1771   -3.5760    0.1595 H         1 RES1    0.0000
     60 H34       10.6835   -2.3970    1.1221 H         1 RES1    0.0000
     61 C23       12.6938   -1.6846   -0.6775 C.3       1 RES1    0.0000
     62 H35       11.8936   -1.1262   -0.7725 H         1 RES1    0.0000
     63 H36       12.6749   -2.4001   -1.3477 H         1 RES1    0.0000
     64 H37       13.4939   -1.1339   -0.8103 H         1 RES1    0.0000
     65 C24       12.0599   -2.0535    3.8766 C.3       1 RES1    0.0000
     66 H38       11.2716   -1.5041    3.6841 H         1 RES1    0.0000
     67 H39       12.2522   -2.0237    4.8370 H         1 RES1    0.0000
     68 H40       11.8871   -2.9803    3.6074 H         1 RES1    0.0000
     69 C25       13.7273   -0.2181    3.7723 C.3       1 RES1    0.0000
     70 H41       14.4118    0.2131    3.2187 H         1 RES1    0.0000
     71 H42       14.1022   -0.4278    4.6527 H         1 RES1    0.0000
     72 H43       12.9641    0.3873    3.8779 H         1 RES1    0.0000
     73 C26        9.1594    0.4598    2.2242 C.1       1 RES1    0.0000
     74 N2         8.5905   -0.5113    2.3738 N.1       1 RES1    0.0000
     75 C27       10.5583    2.0378    3.2936 C.1       1 RES1    0.0000
     76 N3        11.1145    2.2165    4.2767 N.1       1 RES1    0.0000
@<TRIPOS>BOND
     1    1    2 1
     2    2    3 1
     3    4    2 1
     4    5    4 1
     5    6    4 1
     6    7    4 1
     7    8    7 1
     8    9    1 1
     9   10    9 1
    10   11   10 1
    11   12   10 1
    12   13   10 1
    13   14   13 1
    14   15   13 1
    15   16   13 1
    16   17   16 1
    17   18   16 1
    18   19   16 1
    19   20   19 1
    20   21   19 1
    21   22    9 1
    22   23   22 1
    23   24   22 1
    24   25    7 1
    25   26   25 2
    26   27   25 1
    27   28   27 1
    28   29   28 1
    29   30   29 1
    30   31   29 1
    31   32   29 1
    32   33   28 1
    33   34   33 1
    34   35   33 1
    35   36   33 1
    36   37   28 1
    37   38   37 1
    38   39   37 1
    39   40   37 1
    40   41    2 1
    41   42   41 1
    42   43   41 1
    43   44   41 1
    44   45   44 1
    45   46   45 1
    46   47   46 1
    47   48   47 1
    48   49   47 1
    49   50   47 1
    50   51   50 1
    51   52   50 1
    52   53   50 1
    53   54   53 1
    54   55   53 1
    55   56   45 1
    56   57   56 1
    57   58   57 1
    58   59   57 1
    59   60   57 1
    60   61   56 1
    61   62   61 1
    62   63   61 1
    63   64   61 1
    64   65   46 1
    65   66   65 1
    66   67   65 1
    67   68   65 1
    68   69   46 1
    69   70   69 1
    70   71   69 1
    71   72   69 1
    72   73    1 1
    73   74   73 3
    74   75    1 1
    75   76   75 3
    76    7    9 1
    77   19   22 1
    78   53   56 1
@<TRIPOS>SUBSTRUCTURE
     1 RES1 1

@<TRIPOS>CRYSIN
  14.4669   15.5547   11.8241  90.0000  92.6010  90.0000  14 1

