# MOL2 file generated by ConQuest
# Please check atom types

@<TRIPOS>MOLECULE
WUNJOG
    92    94     1
SMALL
NO_CHARGES
****
Generated from CSD

@<TRIPOS>ATOM
      1 C1        11.5436   10.9068    1.1642 C.3       1 RES1    0.0000
      2 C2        12.8300   10.4789    1.9643 C.3       1 RES1    0.0000
      3 H1        12.8782    9.4808    1.9165 H         1 RES1    0.0000
      4 C3        14.0371   11.0326    1.0947 C.3       1 RES1    0.0000
      5 C4        13.3959   11.7840   -0.0911 C.3       1 RES1    0.0000
      6 H2        13.9170   12.5963   -0.3111 H         1 RES1    0.0000
      7 H3        13.3603   11.2037   -0.8921 H         1 RES1    0.0000
      8 C5        11.9859   12.1582    0.3644 C.3       1 RES1    0.0000
      9 H4        12.0651   12.9197    1.0073 H         1 RES1    0.0000
     10 C6        11.1015   12.6133   -0.7903 C.3       1 RES1    0.0000
     11 H5        11.0189   11.9040   -1.4748 H         1 RES1    0.0000
     12 H6        10.1980   12.8582   -0.4693 H         1 RES1    0.0000
     13 C7        10.7461   15.7040   -2.1326 C.3       1 RES1    0.0000
     14 C8        10.1617   16.3460   -3.4004 C.3       1 RES1    0.0000
     15 H7         9.3073   15.8985   -3.6251 H         1 RES1    0.0000
     16 H8         9.9668   17.2991   -3.2194 H         1 RES1    0.0000
     17 C9        11.0994   16.2498   -4.5930 C.3       1 RES1    0.0000
     18 H9        10.6748   16.6546   -5.3904 H         1 RES1    0.0000
     19 H10       11.9365   16.7423   -4.4037 H         1 RES1    0.0000
     20 C10       11.4058   14.7948   -4.8568 C.3       1 RES1    0.0000
     21 H11       12.0325   14.7325   -5.6207 H         1 RES1    0.0000
     22 H12       10.5693   14.3328   -5.1153 H         1 RES1    0.0000
     23 C11       12.0174   14.0742   -3.6533 C.3       1 RES1    0.0000
     24 C12       13.4805   14.4953   -3.4420 C.3       1 RES1    0.0000
     25 H13       13.5519   15.4715   -3.4996 H         1 RES1    0.0000
     26 H14       14.0410   14.0869   -4.1339 H         1 RES1    0.0000
     27 H15       13.7823   14.1973   -2.5594 H         1 RES1    0.0000
     28 C13       11.9977   12.5664   -3.9431 C.3       1 RES1    0.0000
     29 H16       12.4743   12.0907   -3.2315 H         1 RES1    0.0000
     30 H17       12.4361   12.3925   -4.8025 H         1 RES1    0.0000
     31 H18       11.0694   12.2536   -3.9809 H         1 RES1    0.0000
     32 C14       11.8880   16.5595   -1.5580 C.3       1 RES1    0.0000
     33 H19       12.3427   16.0614   -0.8474 H         1 RES1    0.0000
     34 H20       11.5215   17.3902   -1.1912 H         1 RES1    0.0000
     35 H21       12.5279   16.7708   -2.2706 H         1 RES1    0.0000
     36 C15        9.6366   15.6088   -1.0813 C.3       1 RES1    0.0000
     37 H22        8.9223   15.0240   -1.4112 H         1 RES1    0.0000
     38 H23        9.2731   16.5020   -0.9093 H         1 RES1    0.0000
     39 H24       10.0041   15.2392   -0.2510 H         1 RES1    0.0000
     40 C16       14.8926    9.8921    0.5619 C.2       1 RES1    0.0000
     41 C17       15.9761    7.8107    1.2192 C.3       1 RES1    0.0000
     42 C18       15.1907    6.9392    0.2974 C.3       1 RES1    0.0000
     43 H25       14.2813    6.8333    0.6446 H         1 RES1    0.0000
     44 H26       15.6197    6.0602    0.2338 H         1 RES1    0.0000
     45 H27       15.1549    7.3503   -0.5913 H         1 RES1    0.0000
     46 C19       17.3386    8.1837    0.6839 C.3       1 RES1    0.0000
     47 H28       17.2611    8.4355   -0.2595 H         1 RES1    0.0000
     48 H29       17.9434    7.4175    0.7701 H         1 RES1    0.0000
     49 H30       17.6939    8.9399    1.1946 H         1 RES1    0.0000
     50 C20       16.1471    7.1989    2.5933 C.3       1 RES1    0.0000
     51 H31       16.5893    7.8422    3.1851 H         1 RES1    0.0000
     52 H32       16.6937    6.3881    2.5250 H         1 RES1    0.0000
     53 H33       15.2672    6.9688    2.9599 H         1 RES1    0.0000
     54 C21       12.8600   10.8450    3.4376 C.ar      1 RES1    0.0000
     55 C22       12.5552   12.1108    3.9391 C.ar      1 RES1    0.0000
     56 H34       12.2989   12.8024    3.3398 H         1 RES1    0.0000
     57 C23       12.6205   12.3740    5.3027 C.ar      1 RES1    0.0000
     58 H35       12.4104   13.2419    5.6276 H         1 RES1    0.0000
     59 C24       12.9894   11.3780    6.1898 C.ar      1 RES1    0.0000
     60 H36       13.0303   11.5578    7.1213 H         1 RES1    0.0000
     61 C25       13.2971   10.1179    5.7089 C.ar      1 RES1    0.0000
     62 H37       13.5515    9.4296    6.3117 H         1 RES1    0.0000
     63 C26       13.2353    9.8551    4.3463 C.ar      1 RES1    0.0000
     64 H38       13.4529    8.9866    4.0273 H         1 RES1    0.0000
     65 C27       11.1832    9.7480    0.2253 C.2       1 RES1    0.0000
     66 C28        9.5004    8.8499   -1.1807 C.3       1 RES1    0.0000
     67 H39        8.5125    8.8693   -1.2324 H         1 RES1    0.0000
     68 H40        9.7687    7.9686   -0.8199 H         1 RES1    0.0000
     69 C29       10.0693    9.0166   -2.5491 C.3       1 RES1    0.0000
     70 H41        9.8817    9.9226   -2.8739 H         1 RES1    0.0000
     71 H42        9.6631    8.3615   -3.1541 H         1 RES1    0.0000
     72 H43       11.0380    8.8750   -2.5199 H         1 RES1    0.0000
     73 C30       10.3548   11.1774    2.0755 C.2       1 RES1    0.0000
     74 C31        8.8810   10.1254    3.6333 C.3       1 RES1    0.0000
     75 H44        8.1492    9.5104    3.3759 H         1 RES1    0.0000
     76 H45        8.5193   11.0465    3.6560 H         1 RES1    0.0000
     77 C32        9.3967    9.7587    4.9612 C.3       1 RES1    0.0000
     78 H46        9.7471    8.8443    4.9331 H         1 RES1    0.0000
     79 H47        8.6720    9.8110    5.6190 H         1 RES1    0.0000
     80 H48       10.1137   10.3758    5.2150 H         1 RES1    0.0000
     81 C33       14.9927   11.9429    1.8734 C.3       1 RES1    0.0000
     82 H49       15.2804   11.4895    2.6935 H         1 RES1    0.0000
     83 H50       14.5328   12.7774    2.1056 H         1 RES1    0.0000
     84 H51       15.7757   12.1442    1.3201 H         1 RES1    0.0000
     85 N1        11.1114   14.2971   -2.4820 N.3       1 RES1    0.0000
     86 O1        11.7895   13.7572   -1.3146 O.3       1 RES1    0.0000
     87 O2        15.3030    9.8246   -0.5636 O.2       1 RES1    0.0000
     88 O3        15.1831    9.0173    1.5219 O.3       1 RES1    0.0000
     89 O4         9.8610   12.2559    2.2634 O.2       1 RES1    0.0000
     90 O5         9.9661   10.0415    2.6594 O.3       1 RES1    0.0000
     91 O6        11.9060    8.8264   -0.0363 O.2       1 RES1    0.0000
     92 O7         9.9558    9.8989   -0.2778 O.3       1 RES1    0.0000
@<TRIPOS>BOND
     1    1    2 1
     2    2    3 1
     3    4    2 1
     4    5    4 1
     5    6    5 1
     6    7    5 1
     7    8    1 1
     8    9    8 1
     9   10    8 1
    10   11   10 1
    11   12   10 1
    12   13   14 1
    13   14   15 1
    14   16   14 1
    15   17   14 1
    16   18   17 1
    17   19   17 1
    18   20   17 1
    19   21   20 1
    20   22   20 1
    21   23   20 1
    22   24   23 1
    23   25   24 1
    24   26   24 1
    25   27   24 1
    26   28   23 1
    27   29   28 1
    28   30   28 1
    29   31   28 1
    30   32   13 1
    31   33   32 1
    32   34   32 1
    33   35   32 1
    34   36   13 1
    35   37   36 1
    36   38   36 1
    37   39   36 1
    38   40    4 1
    39   41   42 1
    40   42   43 1
    41   44   42 1
    42   45   42 1
    43   46   41 1
    44   47   46 1
    45   48   46 1
    46   49   46 1
    47   50   41 1
    48   51   50 1
    49   52   50 1
    50   53   50 1
    51   54    2 1
    52   55   54 ar
    53   56   55 1
    54   57   55 ar
    55   58   57 1
    56   59   57 ar
    57   60   59 1
    58   61   59 ar
    59   62   61 1
    60   63   54 ar
    61   64   63 1
    62   65    1 1
    63   66   67 1
    64   68   66 1
    65   69   66 1
    66   70   69 1
    67   71   69 1
    68   72   69 1
    69   73    1 1
    70   74   75 1
    71   76   74 1
    72   77   74 1
    73   78   77 1
    74   79   77 1
    75   80   77 1
    76   81    4 1
    77   82   81 1
    78   83   81 1
    79   84   81 1
    80   85   13 1
    81   86   10 1
    82   87   40 2
    83   88   40 1
    84   89   73 2
    85   90   73 1
    86   91   65 2
    87   92   65 1
    88    5    8 1
    89   23   85 1
    90   41   88 1
    91   61   63 ar
    92   66   92 1
    93   74   90 1
    94   85   86 1
@<TRIPOS>SUBSTRUCTURE
     1 RES1 1

@<TRIPOS>CRYSIN
  16.8382   11.3870   17.4162  90.0000  99.2720  90.0000 231 1

