# MOL2 file generated by ConQuest
# Please check atom types

@<TRIPOS>MOLECULE
WUNKEX
    85    86     1
SMALL
NO_CHARGES
****
Generated from CSD

@<TRIPOS>ATOM
      1 N1         1.6842    2.6067    2.7922 N.3       1 RES1    0.0000
      2 C1         5.2459    2.9657    6.1829 C.3       1 RES1    0.0000
      3 C2         5.5986    2.0583    7.4321 C.3       1 RES1    0.0000
      4 C3         4.1767    1.7461    8.0232 C.3       1 RES1    0.0000
      5 H1         3.9755    2.4216    8.7331 H         1 RES1    0.0000
      6 C4         3.1569    1.9297    6.8760 C.3       1 RES1    0.0000
      7 H2         2.6436    1.0945    6.7352 H         1 RES1    0.0000
      8 H3         2.5221    2.6569    7.0927 H         1 RES1    0.0000
      9 C5         3.9650    2.2814    5.6158 C.3       1 RES1    0.0000
     10 H4         4.2506    1.4203    5.1958 H         1 RES1    0.0000
     11 C6         3.2051    3.0668    4.5637 C.3       1 RES1    0.0000
     12 H5         2.8740    3.9194    4.9433 H         1 RES1    0.0000
     13 H6         3.7952    3.2715    3.7959 H         1 RES1    0.0000
     14 C7         0.3275    3.2264    2.8827 C.3       1 RES1    0.0000
     15 C8        -0.1205    3.5133    1.4420 C.3       1 RES1    0.0000
     16 H7        -1.0439    3.8686    1.4585 H         1 RES1    0.0000
     17 H8         0.4643    4.2129    1.0565 H         1 RES1    0.0000
     18 C9        -0.0787    2.2905    0.5469 C.3       1 RES1    0.0000
     19 H9        -0.3426    2.5369   -0.3757 H         1 RES1    0.0000
     20 H10       -0.7117    1.6058    0.8808 H         1 RES1    0.0000
     21 C10        1.3377    1.7331    0.5501 C.3       1 RES1    0.0000
     22 H11        1.9447    2.3994    0.1394 H         1 RES1    0.0000
     23 H12        1.3612    0.9182   -0.0121 H         1 RES1    0.0000
     24 C11        1.8618    1.3824    1.9571 C.3       1 RES1    0.0000
     25 C12        3.3737    1.1453    1.8587 C.3       1 RES1    0.0000
     26 H13        3.8149    1.9703    1.5656 H         1 RES1    0.0000
     27 H14        3.5514    0.4319    1.2101 H         1 RES1    0.0000
     28 H15        3.7207    0.8832    2.7373 H         1 RES1    0.0000
     29 C13        1.1966    0.1071    2.5015 C.3       1 RES1    0.0000
     30 H16        1.3797    0.0277    3.4605 H         1 RES1    0.0000
     31 H17        1.5583   -0.6746    2.0343 H         1 RES1    0.0000
     32 H18        0.2281    0.1560    2.3555 H         1 RES1    0.0000
     33 C14       -0.7378    2.4160    3.6451 C.3       1 RES1    0.0000
     34 H19       -0.9992    1.6362    3.1110 H         1 RES1    0.0000
     35 H20       -1.5225    2.9790    3.8060 H         1 RES1    0.0000
     36 H21       -0.3694    2.1161    4.5029 H         1 RES1    0.0000
     37 C15        0.4989    4.5589    3.6144 C.3       1 RES1    0.0000
     38 H22        0.6886    4.3900    4.5615 H         1 RES1    0.0000
     39 H23       -0.3258    5.0831    3.5353 H         1 RES1    0.0000
     40 H24        1.2421    5.0573    3.2161 H         1 RES1    0.0000
     41 C16        4.1113    0.3667    8.6482 C.2       1 RES1    0.0000
     42 C17        4.8761   -0.8645   10.6443 C.3       1 RES1    0.0000
     43 C18        5.5731   -1.9768    9.8971 C.3       1 RES1    0.0000
     44 H25        4.9991   -2.2896    9.1674 H         1 RES1    0.0000
     45 H26        5.7544   -2.7197   10.5108 H         1 RES1    0.0000
     46 H27        6.4177   -1.6436    9.5290 H         1 RES1    0.0000
     47 C19        3.4807   -1.2422   11.1191 C.3       1 RES1    0.0000
     48 H28        3.0516   -0.4605   11.5249 H         1 RES1    0.0000
     49 H29        3.5441   -1.9620   11.7815 H         1 RES1    0.0000
     50 H30        2.9478   -1.5476   10.3553 H         1 RES1    0.0000
     51 C20        5.7345   -0.3913   11.8166 C.3       1 RES1    0.0000
     52 H31        6.6091   -0.1006   11.4845 H         1 RES1    0.0000
     53 H32        5.8540   -1.1287   12.4522 H         1 RES1    0.0000
     54 H33        5.2898    0.3581   12.2663 H         1 RES1    0.0000
     55 C21        6.2969    0.7668    6.9408 C.3       1 RES1    0.0000
     56 H34        7.1577    0.9958    6.5331 H         1 RES1    0.0000
     57 H35        5.7304    0.3202    6.2786 H         1 RES1    0.0000
     58 H36        6.4455    0.1661    7.7008 H         1 RES1    0.0000
     59 C22        6.5317    2.7114    8.4531 C.3       1 RES1    0.0000
     60 H37        6.7086    2.0829    9.1836 H         1 RES1    0.0000
     61 H38        6.1077    3.5189    8.8139 H         1 RES1    0.0000
     62 H39        7.3764    2.9522    8.0180 H         1 RES1    0.0000
     63 C23        4.8710    4.3899    6.5996 C.2       1 RES1    0.0000
     64 C24        4.5437    6.6119    5.8831 C.3       1 RES1    0.0000
     65 H40        3.6373    6.5560    6.2786 H         1 RES1    0.0000
     66 H41        5.1376    7.0765    6.5251 H         1 RES1    0.0000
     67 C25        4.4941    7.3524    4.6243 C.3       1 RES1    0.0000
     68 H42        5.3969    7.4244    4.2524 H         1 RES1    0.0000
     69 H43        4.1348    8.2504    4.7877 H         1 RES1    0.0000
     70 H44        3.9157    6.8799    3.9898 H         1 RES1    0.0000
     71 C26        6.4476    2.9958    5.2455 C.2       1 RES1    0.0000
     72 C27        7.4588    2.0211    3.3403 C.3       1 RES1    0.0000
     73 H45        8.1584    1.5504    3.8585 H         1 RES1    0.0000
     74 H46        7.8239    2.8886    3.0343 H         1 RES1    0.0000
     75 C28        7.0376    1.1923    2.1672 C.3       1 RES1    0.0000
     76 H47        6.6586    0.3461    2.4848 H         1 RES1    0.0000
     77 H48        7.8155    1.0087    1.6000 H         1 RES1    0.0000
     78 H49        6.3638    1.6787    1.6484 H         1 RES1    0.0000
     79 O1         2.1049    2.2464    4.1435 O.3       1 RES1    0.0000
     80 O2         3.5492   -0.5882    8.1715 O.2       1 RES1    0.0000
     81 O3         4.7825    0.3609    9.8195 O.3       1 RES1    0.0000
     82 O4         4.3604    4.6713    7.6529 O.2       1 RES1    0.0000
     83 O5         5.0569    5.2615    5.6114 O.3       1 RES1    0.0000
     84 O6         7.4785    3.5821    5.5029 O.2       1 RES1    0.0000
     85 O7         6.2771    2.2337    4.1639 O.3       1 RES1    0.0000
@<TRIPOS>BOND
     1    1   14 1
     2    2    3 1
     3    3    4 1
     4    4    5 1
     5    6    4 1
     6    7    6 1
     7    8    6 1
     8    9    2 1
     9   10    9 1
    10   11    9 1
    11   12   11 1
    12   13   11 1
    13   14   15 1
    14   15   16 1
    15   17   15 1
    16   18   15 1
    17   19   18 1
    18   20   18 1
    19   21   18 1
    20   22   21 1
    21   23   21 1
    22   24    1 1
    23   25   24 1
    24   26   25 1
    25   27   25 1
    26   28   25 1
    27   29   24 1
    28   30   29 1
    29   31   29 1
    30   32   29 1
    31   33   14 1
    32   34   33 1
    33   35   33 1
    34   36   33 1
    35   37   14 1
    36   38   37 1
    37   39   37 1
    38   40   37 1
    39   41    4 1
    40   42   43 1
    41   43   44 1
    42   45   43 1
    43   46   43 1
    44   47   42 1
    45   48   47 1
    46   49   47 1
    47   50   47 1
    48   51   42 1
    49   52   51 1
    50   53   51 1
    51   54   51 1
    52   55    3 1
    53   56   55 1
    54   57   55 1
    55   58   55 1
    56   59    3 1
    57   60   59 1
    58   61   59 1
    59   62   59 1
    60   63    2 1
    61   64   65 1
    62   66   64 1
    63   67   64 1
    64   68   67 1
    65   69   67 1
    66   70   67 1
    67   71    2 1
    68   72   73 1
    69   74   72 1
    70   75   72 1
    71   76   75 1
    72   77   75 1
    73   78   75 1
    74   79    1 1
    75   80   41 2
    76   81   41 1
    77   82   63 2
    78   83   63 1
    79   84   71 2
    80   85   71 1
    81    6    9 1
    82   11   79 1
    83   21   24 1
    84   42   81 1
    85   64   83 1
    86   72   85 1
@<TRIPOS>SUBSTRUCTURE
     1 RES1 1

@<TRIPOS>CRYSIN
  15.8450    9.2286   20.2020  90.0000  90.4260  90.0000  14 1

