# MOL2 file generated by ConQuest
# Please check atom types

@<TRIPOS>MOLECULE
WUQQIJ
    45    45     1
SMALL
NO_CHARGES
****
Generated from CSD

@<TRIPOS>ATOM
      1 O1        -2.6967    3.7224    4.9753 O.2       1 RES1    0.0000
      2 O2        -0.0508    1.3017    2.0315 O.3       1 RES1    0.0000
      3 O3         2.4739   -0.5008    3.6193 O.2       1 RES1    0.0000
      4 O4         2.9629    0.8574    2.0067 O.2       1 RES1    0.0000
      5 N1        -1.5158    3.4505    3.0630 N.am      1 RES1    0.0000
      6 N2         2.4118    0.5810    3.0602 N.pl3     1 RES1    0.0000
      7 N3         3.3934    1.8010    5.3551 N.3       1 RES1    0.0000
      8 C1        -0.2867    3.0760    3.6585 C.ar      1 RES1    0.0000
      9 C2         0.2662    3.7819    4.7253 C.ar      1 RES1    0.0000
     10 C3         1.4629    3.3970    5.2921 C.ar      1 RES1    0.0000
     11 C4         2.1775    2.3033    4.8054 C.ar      1 RES1    0.0000
     12 C5         1.6299    1.6495    3.6985 C.ar      1 RES1    0.0000
     13 C6         0.4068    1.9838    3.1289 C.ar      1 RES1    0.0000
     14 C7        -2.6451    3.7343    3.7510 C.2       1 RES1    0.0000
     15 C8        -3.8441    4.0464    2.9113 C.3       1 RES1    0.0000
     16 C9        -1.2058    0.4161    2.2758 C.3       1 RES1    0.0000
     17 C10       -1.8567    0.2288    0.9304 C.3       1 RES1    0.0000
     18 C11       -0.7347   -0.8619    2.9104 C.3       1 RES1    0.0000
     19 C12        3.1063    0.8024    6.4171 C.3       1 RES1    0.0000
     20 C13        4.2681   -0.1308    6.6700 C.3       1 RES1    0.0000
     21 C14        4.3226    2.8368    5.8236 C.3       1 RES1    0.0000
     22 C15        4.7670    3.7447    4.7081 C.3       1 RES1    0.0000
     23 H1        -1.5685    3.4282    2.2520 H         1 RES1    0.0000
     24 H2        -0.2316    4.5397    5.0593 H         1 RES1    0.0000
     25 H3         1.8381    3.8918    6.0307 H         1 RES1    0.0000
     26 H4        -4.1538    4.8979    3.1012 H         1 RES1    0.0000
     27 H5        -3.6621    4.0716    1.9752 H         1 RES1    0.0000
     28 H6        -4.5443    3.4282    3.0630 H         1 RES1    0.0000
     29 H7        -1.8171    0.8975    2.8674 H         1 RES1    0.0000
     30 H8        -2.6234   -0.3537    1.0019 H         1 RES1    0.0000
     31 H9        -1.2274   -0.1456    0.3149 H         1 RES1    0.0000
     32 H10       -2.2075    1.1071    0.5916 H         1 RES1    0.0000
     33 H11       -1.5366   -1.4429    3.0630 H         1 RES1    0.0000
     34 H12       -0.2836   -0.6925    3.8264 H         1 RES1    0.0000
     35 H13       -0.1118   -1.3225    2.2901 H         1 RES1    0.0000
     36 H14        2.8312    1.2586    7.2902 H         1 RES1    0.0000
     37 H15        2.3509    0.2392    6.1261 H         1 RES1    0.0000
     38 H16        4.0228   -0.8024    7.3761 H         1 RES1    0.0000
     39 H17        5.0054    0.4161    7.0421 H         1 RES1    0.0000
     40 H18        4.4634   -0.5350    5.7921 H         1 RES1    0.0000
     41 H19        3.9658    3.3658    6.5936 H         1 RES1    0.0000
     42 H20        5.0739    2.3092    6.2310 H         1 RES1    0.0000
     43 H21        4.0439    4.2663    4.3512 H         1 RES1    0.0000
     44 H22        5.4714    4.3837    5.0096 H         1 RES1    0.0000
     45 H23        5.1403    3.1696    3.9982 H         1 RES1    0.0000
@<TRIPOS>BOND
     1    1   14 2
     2    2   13 1
     3    3    6 2
     4    4    6 2
     5    5    8 1
     6    6   12 1
     7    7   11 1
     8    8    9 ar
     9    9   10 ar
    10   10   11 ar
    11   11   12 ar
    12   12   13 ar
    13   13    8 ar
    14   14    5 1
    15   15   14 1
    16   16    2 1
    17   17   16 1
    18   18   16 1
    19   19    7 1
    20   20   19 1
    21   21    7 1
    22   22   21 1
    23   23    5 1
    24   24    9 1
    25   25   10 1
    26   26   15 1
    27   27   15 1
    28   28   15 1
    29   29   16 1
    30   30   17 1
    31   31   17 1
    32   32   17 1
    33   33   18 1
    34   34   18 1
    35   35   18 1
    36   36   19 1
    37   37   19 1
    38   38   20 1
    39   39   20 1
    40   40   20 1
    41   41   21 1
    42   42   21 1
    43   43   22 1
    44   44   22 1
    45   45   22 1
@<TRIPOS>SUBSTRUCTURE
     1 RES1 1

@<TRIPOS>CRYSIN
  12.2412   14.8600    9.7185  90.0000 100.9310  90.0000  14 1

