# MOL2 file generated by ConQuest
# Please check atom types

@<TRIPOS>MOLECULE
WUSPEF
    28    30     1
SMALL
NO_CHARGES
****
Generated from CSD

@<TRIPOS>ATOM
      1 N1         4.3481    1.6183    2.8526 N.pl3     1 RES1    0.0000
      2 O1         4.7183    1.2375    1.7392 O.2       1 RES1    0.0000
      3 O2         3.2749    2.1401    3.0726 O.2       1 RES1    0.0000
      4 C1         5.2670    1.3894    3.9821 C.3       1 RES1    0.0000
      5 C2         6.7184    1.4264    3.6441 C.3       1 RES1    0.0000
      6 H1         7.0059    1.6454    2.7331 H         1 RES1    0.0000
      7 C3         7.6235    1.6809    4.7959 C.ar      1 RES1    0.0000
      8 C4         8.4580    2.7475    5.0063 C.ar      1 RES1    0.0000
      9 H2         8.5134    3.4386    4.3870 H         1 RES1    0.0000
     10 C5         9.2187    2.7688    6.1684 C.ar      1 RES1    0.0000
     11 H3         9.7967    3.4785    6.3326 H         1 RES1    0.0000
     12 C6         9.1173    1.7392    7.0778 C.ar      1 RES1    0.0000
     13 H4         9.6380    1.7620    7.8486 H         1 RES1    0.0000
     14 C7         8.2696    0.6840    6.8754 C.ar      1 RES1    0.0000
     15 H5         8.1986    0.0071    7.5090 H         1 RES1    0.0000
     16 C8         7.5217    0.6428    5.7141 C.ar      1 RES1    0.0000
     17 C9         6.5787   -0.4352    5.2366 C.3       1 RES1    0.0000
     18 H6         5.8645   -0.5788    5.8767 H         1 RES1    0.0000
     19 H7         7.0507   -1.2714    5.0971 H         1 RES1    0.0000
     20 C10        6.0352    0.1067    3.9279 C.3       1 RES1    0.0000
     21 H8         5.8729   -0.5134    3.1866 H         1 RES1    0.0000
     22 C11        4.7113    2.0308    5.2406 C.2       1 RES1    0.0000
     23 O3         4.9411    3.1468    5.5738 O.2       1 RES1    0.0000
     24 O4         3.9331    1.1788    5.8854 O.3       1 RES1    0.0000
     25 C12        3.2570    1.7193    7.0627 C.3       1 RES1    0.0000
     26 H9         3.8970    2.1659    7.6222 H         1 RES1    0.0000
     27 H10        2.8465    1.0040    7.5529 H         1 RES1    0.0000
     28 H11        2.5832    2.3450    6.7853 H         1 RES1    0.0000
@<TRIPOS>BOND
     1    1    2 2
     2    3    1 2
     3    4    1 1
     4    5    4 1
     5    6    5 1
     6    7    5 1
     7    8    7 ar
     8    9    8 1
     9   10    8 ar
    10   11   10 1
    11   12   10 ar
    12   13   12 1
    13   14   12 ar
    14   15   14 1
    15   16    7 ar
    16   17   16 1
    17   18   17 1
    18   19   17 1
    19   20    4 1
    20   21   20 1
    21   22    4 1
    22   23   22 2
    23   24   22 1
    24   25   24 1
    25   26   25 1
    26   27   25 1
    27   28   25 1
    28    5   20 1
    29   14   16 ar
    30   17   20 1
@<TRIPOS>SUBSTRUCTURE
     1 RES1 1

@<TRIPOS>CRYSIN
  10.0260   14.2210    8.5660  90.0000 111.4900  90.0000  14 1

