# MOL2 file generated by ConQuest
# Please check atom types

@<TRIPOS>MOLECULE
WUSVIQ
    43    44     1
SMALL
NO_CHARGES
****
Generated from CSD

@<TRIPOS>ATOM
      1 C1         7.8996    1.4860    6.9369 C.ar      1 RES1    0.0000
      2 C2         7.2428    1.8486    5.7586 C.ar      1 RES1    0.0000
      3 H1         7.5499    2.5897    5.2505 H         1 RES1    0.0000
      4 C3         6.1385    1.1207    5.3327 C.ar      1 RES1    0.0000
      5 H2         5.6915    1.3671    4.5315 H         1 RES1    0.0000
      6 C4         5.6845    0.0371    6.0708 C.ar      1 RES1    0.0000
      7 H3         4.9195   -0.4487    5.7864 H         1 RES1    0.0000
      8 C5         6.3543   -0.3293    7.2254 C.ar      1 RES1    0.0000
      9 H4         6.0482   -1.0743    7.7280 H         1 RES1    0.0000
     10 C6         7.4692    0.3791    7.6589 C.ar      1 RES1    0.0000
     11 H5         7.9337    0.1084    8.4432 H         1 RES1    0.0000
     12 C7         9.2076    2.8263    9.5434 C.3       1 RES1    0.0000
     13 H6         9.8435    2.8293   10.3141 H         1 RES1    0.0000
     14 C8         7.7978    2.5355   10.0244 C.2       1 RES1    0.0000
     15 C9         6.4944    1.0810   11.3372 C.3       1 RES1    0.0000
     16 H7         5.9744    1.8330   11.6892 H         1 RES1    0.0000
     17 H8         6.6032    0.4031   12.0363 H         1 RES1    0.0000
     18 H9         6.0248    0.6883   10.5716 H         1 RES1    0.0000
     19 C10        9.3336    4.1181    8.7499 C.3       1 RES1    0.0000
     20 H10       10.3083    4.3371    8.6987 H         1 RES1    0.0000
     21 C11        8.6300    5.3523    9.2513 C.2       1 RES1    0.0000
     22 C12        8.4395    6.7826   11.1140 C.3       1 RES1    0.0000
     23 H11        9.0760    7.4555   10.7928 H         1 RES1    0.0000
     24 H12        8.4733    6.7424   12.0936 H         1 RES1    0.0000
     25 H13        7.5346    7.0257   10.8291 H         1 RES1    0.0000
     26 C13        8.8917    3.7154    7.3467 C.3       1 RES1    0.0000
     27 H14        7.9319    3.9569    7.2035 H         1 RES1    0.0000
     28 C14        9.7698    4.3864    6.2888 C.2       1 RES1    0.0000
     29 C15        9.8165    5.2082    4.0637 C.3       1 RES1    0.0000
     30 H15        9.4958    4.8733    3.1888 H         1 RES1    0.0000
     31 H16       10.7894    5.0350    4.1215 H         1 RES1    0.0000
     32 C16        9.5642    6.6523    4.1634 C.3       1 RES1    0.0000
     33 H17        8.5994    6.8185    4.1196 H         1 RES1    0.0000
     34 H18       10.0101    7.1132    3.4234 H         1 RES1    0.0000
     35 H19        9.9146    6.9877    5.0159 H         1 RES1    0.0000
     36 N1         9.0629    2.2393    7.2966 N.3       1 RES1    0.0000
     37 O1         9.5973    1.8294    8.5776 O.3       1 RES1    0.0000
     38 O2         6.8171    3.0889    9.6008 O.2       1 RES1    0.0000
     39 O3         7.7958    1.5504   10.9145 O.3       1 RES1    0.0000
     40 O4         8.0629    6.1412    8.5387 O.2       1 RES1    0.0000
     41 O5         8.7869    5.4869   10.5649 O.3       1 RES1    0.0000
     42 O6        10.8806    4.7676    6.4809 O.2       1 RES1    0.0000
     43 O7         9.1268    4.5047    5.1420 O.3       1 RES1    0.0000
@<TRIPOS>BOND
     1    1    2 ar
     2    2    3 1
     3    4    2 ar
     4    5    4 1
     5    6    4 ar
     6    7    6 1
     7    8    6 ar
     8    9    8 1
     9   10    1 ar
    10   11   10 1
    11   12   13 1
    12   14   12 1
    13   15   16 1
    14   17   15 1
    15   18   15 1
    16   19   12 1
    17   20   19 1
    18   21   19 1
    19   22   23 1
    20   24   22 1
    21   25   22 1
    22   26   19 1
    23   27   26 1
    24   28   26 1
    25   29   30 1
    26   31   29 1
    27   32   29 1
    28   33   32 1
    29   34   32 1
    30   35   32 1
    31   36    1 1
    32   37   12 1
    33   38   14 2
    34   39   14 1
    35   40   21 2
    36   41   21 1
    37   42   28 2
    38   43   28 1
    39    8   10 ar
    40   15   39 1
    41   22   41 1
    42   26   36 1
    43   29   43 1
    44   36   37 1
@<TRIPOS>SUBSTRUCTURE
     1 RES1 1

@<TRIPOS>CRYSIN
   9.0084   19.0142   19.0720  90.0000  90.0000  90.0000  61 1

