# MOL2 file generated by ConQuest
# Please check atom types

@<TRIPOS>MOLECULE
WUTWOZ
    44    34     2
SMALL
NO_CHARGES
****
Generated from CSD

@<TRIPOS>ATOM
      1 O1        10.6703    2.3878    4.3434 O.2       1 RES1    0.0000
      2 O2        10.1431    1.5220    1.0527 O.3       1 RES1    0.0000
      3 N1        10.7378    1.6092    2.3445 N.am      1 RES1    0.0000
      4 C1        10.1323    2.2000    3.2639 C.2       1 RES1    0.0000
      5 C2        10.9823    0.6434    0.1796 C.3       1 RES1    0.0000
      6 H1        10.5895    0.5265   -0.7319 H         1 RES1    0.0000
      7 C3        11.2024   -0.6528    0.8704 C.2       1 RES1    0.0000
      8 H2        10.9874   -1.4852    0.4666 H         1 RES1    0.0000
      9 C4        11.7322   -0.5861    2.1272 C.2       1 RES1    0.0000
     10 H3        11.8898   -1.3208    2.7090 H         1 RES1    0.0000
     11 C5        12.0296    0.8131    2.4356 C.3       1 RES1    0.0000
     12 H4        12.4685    0.9213    3.3272 H         1 RES1    0.0000
     13 C6        13.0134    1.4782    1.4988 C.3       1 RES1    0.0000
     14 H5        13.8810    1.0003    1.5163 H         1 RES1    0.0000
     15 H6        13.1662    2.4199    1.7642 H         1 RES1    0.0000
     16 C7        12.3511    1.3893    0.1429 C.3       1 RES1    0.0000
     17 H7        12.9670    0.9137   -0.4695 H         1 RES1    0.0000
     18 H8        12.2205    2.3065   -0.2056 H         1 RES1    0.0000
     19 C8         8.8181    2.8399    2.8577 C.3       1 RES1    0.0000
     20 H9         8.9958    3.5419    2.1826 H         1 RES1    0.0000
     21 H10        8.2415    2.1544    2.4363 H         1 RES1    0.0000
     22 C9         8.0835    3.4506    4.0177 C.ar      1 RES1    0.0000
     23 C10        8.4584    4.6720    4.5647 C.ar      1 RES1    0.0000
     24 H11        9.1955    5.1505    4.2049 H         1 RES1    0.0000
     25 C11        7.7427    5.1961    5.6534 C.ar      1 RES1    0.0000
     26 H12        7.9997    6.0291    6.0303 H         1 RES1    0.0000
     27 C12        6.6753    4.5117    6.1774 C.ar      1 RES1    0.0000
     28 H13        6.2012    4.8662    6.9211 H         1 RES1    0.0000
     29 C13        6.2974    3.3266    5.6307 C.ar      1 RES1    0.0000
     30 H14        5.5490    2.8604    5.9866 H         1 RES1    0.0000
     31 C14        6.9928    2.7943    4.5622 C.ar      1 RES1    0.0000
     32 H15        6.7181    1.9625    4.1947 H         1 RES1    0.0000
     33 O3         9.9541    0.9786    1.1708 Du        2 SUP2    0.0000
     34 N2        10.6191    1.1026    2.4378 Du        2 SUP2    0.0000
     35 C15       12.0688    1.6115    0.1268 Du        2 SUP2    0.0000
     36 H16       12.3232    2.1163   -0.6371 Du        2 SUP2    0.0000
     37 C16       12.6519    1.6478    1.3545 Du        2 SUP2    0.0000
     38 H17       13.4199    2.1860    1.5105 Du        2 SUP2    0.0000
     39 C17       12.1194   -0.6376    1.8487 Du        2 SUP2    0.0000
     40 H18       13.0704   -0.8985    1.7627 Du        2 SUP2    0.0000
     41 H19       11.6837   -1.2711    2.4728 Du        2 SUP2    0.0000
     42 C18       11.4658   -0.7745    0.4899 Du        2 SUP2    0.0000
     43 H20       10.7051   -1.4086    0.5176 Du        2 SUP2    0.0000
     44 H21       12.1094   -1.0781   -0.1983 Du        2 SUP2    0.0000
@<TRIPOS>BOND
     1    1    4 2
     2    2    3 1
     3    3    4 1
     4    4   19 1
     5    5    2 1
     6    6    5 1
     7    7    5 1
     8    8    7 1
     9    9    7 2
    10   10    9 1
    11   11    3 1
    12   12   11 1
    13   13   11 1
    14   14   13 1
    15   15   13 1
    16   16    5 1
    17   17   16 1
    18   18   16 1
    19   19   20 1
    20   21   19 1
    21   22   19 1
    22   23   22 ar
    23   24   23 1
    24   25   23 ar
    25   26   25 1
    26   27   25 ar
    27   28   27 1
    28   29   27 ar
    29   30   29 1
    30   31   22 ar
    31   32   31 1
    32    9   11 1
    33   13   16 1
    34   29   31 ar
@<TRIPOS>SUBSTRUCTURE
     1 RES1 1
     2 SUP2 33

@<TRIPOS>CRYSIN
  13.7130    5.8495   14.8249  90.0000 100.4280  90.0000  14 1

