# MOL2 file generated by ConQuest
# Please check atom types

@<TRIPOS>MOLECULE
WUTXEQ
    31    33     1
SMALL
NO_CHARGES
****
Generated from CSD

@<TRIPOS>ATOM
      1 O1         5.9750    0.5996    2.1889 O.3       1 RES1    0.0000
      2 O2         2.8934    1.8427    3.2600 O.2       1 RES1    0.0000
      3 N1         4.5571    0.8427    2.0965 N.am      1 RES1    0.0000
      4 N2         5.0523    2.5327    3.6347 N.am      1 RES1    0.0000
      5 H1         5.9147    2.3549    3.4585 H         1 RES1    0.0000
      6 C1         4.0996    1.7516    3.0661 C.2       1 RES1    0.0000
      7 C2         6.2441   -0.8416    2.3123 C.3       1 RES1    0.0000
      8 H2         7.2167   -0.9995    2.4805 H         1 RES1    0.0000
      9 C3         5.8242   -1.4812    0.9948 C.3       1 RES1    0.0000
     10 H3         5.9742   -2.4592    1.0263 H         1 RES1    0.0000
     11 H4         6.3537   -1.1056    0.2470 H         1 RES1    0.0000
     12 C4         4.3309   -1.1784    0.7918 C.3       1 RES1    0.0000
     13 H5         4.2079   -0.6238   -0.0191 H         1 RES1    0.0000
     14 H6         3.8304   -2.0242    0.6685 H         1 RES1    0.0000
     15 C5         3.7975   -0.4343    2.0159 C.3       1 RES1    0.0000
     16 H7         2.8150   -0.2643    1.9342 H         1 RES1    0.0000
     17 C6         4.1095   -1.2121    3.2650 C.2       1 RES1    0.0000
     18 H8         3.4489   -1.5334    3.8672 H         1 RES1    0.0000
     19 C7         5.4272   -1.4007    3.4315 C.2       1 RES1    0.0000
     20 H9         5.8026   -1.8444    4.1830 H         1 RES1    0.0000
     21 C8         4.8210    3.5881    4.5478 C.ar      1 RES1    0.0000
     22 C9         3.5598    4.1373    4.7925 C.ar      1 RES1    0.0000
     23 H10        2.7969    3.8119    4.3295 H         1 RES1    0.0000
     24 C10        3.4338    5.1677    5.7223 C.ar      1 RES1    0.0000
     25 H11        2.5778    5.5467    5.8830 H         1 RES1    0.0000
     26 C11        4.5288    5.6522    6.4180 C.ar      1 RES1    0.0000
     27 H12        4.4249    6.3493    7.0557 H         1 RES1    0.0000
     28 C12        5.7826    5.1032    6.1704 C.ar      1 RES1    0.0000
     29 H13        6.5405    5.4280    6.6419 H         1 RES1    0.0000
     30 C13        5.9351    4.0846    5.2393 C.ar      1 RES1    0.0000
     31 H14        6.7968    3.7230    5.0706 H         1 RES1    0.0000
@<TRIPOS>BOND
     1    1    3 1
     2    2    6 2
     3    3    6 1
     4    4    5 1
     5    6    4 1
     6    7    1 1
     7    8    7 1
     8    9    7 1
     9   10    9 1
    10   11    9 1
    11   12    9 1
    12   13   12 1
    13   14   12 1
    14   15    3 1
    15   16   15 1
    16   17   15 1
    17   18   17 1
    18   19    7 1
    19   20   19 1
    20   21    4 1
    21   22   21 ar
    22   23   22 1
    23   24   22 ar
    24   25   24 1
    25   26   24 ar
    26   27   26 1
    27   28   26 ar
    28   29   28 1
    29   30   21 ar
    30   31   30 1
    31   12   15 1
    32   17   19 2
    33   28   30 ar
@<TRIPOS>SUBSTRUCTURE
     1 RES1 1

@<TRIPOS>CRYSIN
  10.0933    8.9883   12.7337  90.0000  90.0000  90.0000  33 1

