# MOL2 file generated by ConQuest
# Please check atom types

@<TRIPOS>MOLECULE
WUTXUG
    30    31     1
SMALL
NO_CHARGES
****
Generated from CSD

@<TRIPOS>ATOM
      1 O1         5.9413    4.4294    2.8272 O.3       1 RES1    0.0000
      2 O2         4.5324    7.5805    3.2084 O.2       1 RES1    0.0000
      3 N1         7.2623    6.5538    1.4216 N.ar      1 RES1    0.0000
      4 N2         4.9501    5.4239    2.7359 N.am      1 RES1    0.0000
      5 C1         3.6265    4.9154    3.0167 C.3       1 RES1    0.0000
      6 H1         2.9527    5.6148    2.8236 H         1 RES1    0.0000
      7 H2         3.5577    4.6761    3.9745 H         1 RES1    0.0000
      8 C2         4.3530    3.0803    1.5438 C.2       1 RES1    0.0000
      9 C3         5.7733    3.5480    1.7107 C.3       1 RES1    0.0000
     10 H3         6.3603    2.7598    1.8313 H         1 RES1    0.0000
     11 H4         6.0589    4.0140    0.8861 H         1 RES1    0.0000
     12 C4         6.7546    7.0484    2.5606 C.ar      1 RES1    0.0000
     13 C5         3.3541    3.6979    2.1660 C.2       1 RES1    0.0000
     14 C6         7.4373    7.9268    3.3835 C.ar      1 RES1    0.0000
     15 H5         7.0340    8.2582    4.1768 H         1 RES1    0.0000
     16 C7         5.3310    6.7063    2.8902 C.2       1 RES1    0.0000
     17 C8         8.4975    6.9589    1.0986 C.ar      1 RES1    0.0000
     18 H6         8.8777    6.6284    0.2934 H         1 RES1    0.0000
     19 C9         8.7155    8.3139    3.0319 C.ar      1 RES1    0.0000
     20 H7         9.2128    8.9047    3.5841 H         1 RES1    0.0000
     21 C10        4.2226    1.8796    0.6458 C.3       1 RES1    0.0000
     22 H8         4.7773    2.0074   -0.1518 H         1 RES1    0.0000
     23 H9         3.2859    1.7716    0.3786 H         1 RES1    0.0000
     24 H10        4.5195    1.0790    1.1264 H         1 RES1    0.0000
     25 C11        1.9105    3.2910    2.1415 C.3       1 RES1    0.0000
     26 H11        1.6269    3.0370    3.0445 H         1 RES1    0.0000
     27 H12        1.7960    2.5275    1.5370 H         1 RES1    0.0000
     28 H13        1.3642    4.0408    1.8262 H         1 RES1    0.0000
     29 C12        9.2525    7.8246    1.8616 C.ar      1 RES1    0.0000
     30 H14       10.1259    8.0777    1.5859 H         1 RES1    0.0000
@<TRIPOS>BOND
     1    1    4 1
     2    2   16 2
     3    3   12 ar
     4    4    5 1
     5    5    6 1
     6    7    5 1
     7    8    9 1
     8    9    1 1
     9   10    9 1
    10   11    9 1
    11   12   14 ar
    12   13    5 1
    13   14   15 1
    14   16    4 1
    15   17    3 ar
    16   18   17 1
    17   19   14 ar
    18   20   19 1
    19   21    8 1
    20   22   21 1
    21   23   21 1
    22   24   21 1
    23   25   13 1
    24   26   25 1
    25   27   25 1
    26   28   25 1
    27   29   17 ar
    28   30   29 1
    29    8   13 2
    30   12   16 1
    31   19   29 ar
@<TRIPOS>SUBSTRUCTURE
     1 RES1 1

@<TRIPOS>CRYSIN
   7.7458    8.3388    9.2703  77.2930  68.1940  84.7340   2 1

