# MOL2 file generated by ConQuest
# Please check atom types

@<TRIPOS>MOLECULE
WUTYER
    27    29     1
SMALL
NO_CHARGES
****
Generated from CSD

@<TRIPOS>ATOM
      1 O1         1.8879    3.4871   12.2208 O.3       1 RES1    0.0000
      2 O2         0.9735    1.4651   12.7076 O.2       1 RES1    0.0000
      3 O3        -0.3135    1.4826   10.3916 O.3       1 RES1    0.0000
      4 N1         0.3699    2.6746   10.8204 N.am      1 RES1    0.0000
      5 C1         1.0917    2.4119   11.9784 C.2       1 RES1    0.0000
      6 C2         0.1405    1.2968    8.9897 C.3       1 RES1    0.0000
      7 H1        -0.4107    0.6713    8.4376 H         1 RES1    0.0000
      8 C3         1.6135    0.9760    9.0610 C.2       1 RES1    0.0000
      9 H2         2.0212    0.1363    8.8830 H         1 RES1    0.0000
     10 C4         2.2316    2.1039    9.4237 C.2       1 RES1    0.0000
     11 H3         3.1664    2.2275    9.5397 H         1 RES1    0.0000
     12 C5         1.1513    3.1428    9.6120 C.3       1 RES1    0.0000
     13 H4         1.4513    4.0964    9.6205 H         1 RES1    0.0000
     14 C6         0.1542    2.7572    8.5184 C.3       1 RES1    0.0000
     15 H5         0.5119    2.8711    7.6028 H         1 RES1    0.0000
     16 H6        -0.7230    3.2080    8.6096 H         1 RES1    0.0000
     17 C7         2.6341    3.4773   13.4182 C.ar      1 RES1    0.0000
     18 C8         2.2173    4.3115   14.4374 C.ar      1 RES1    0.0000
     19 H7         1.4135    4.8120   14.3583 H         1 RES1    0.0000
     20 C9         3.0038    4.3999   15.5832 C.ar      1 RES1    0.0000
     21 H8         2.7389    4.9692   16.2973 H         1 RES1    0.0000
     22 C10        4.1692    3.6609   15.6853 C.ar      1 RES1    0.0000
     23 H9         4.7044    3.7282   16.4672 H         1 RES1    0.0000
     24 C11        4.5601    2.8231   14.6516 C.ar      1 RES1    0.0000
     25 H10        5.3564    2.3109   14.7312 H         1 RES1    0.0000
     26 C12        3.7897    2.7319   13.4988 C.ar      1 RES1    0.0000
     27 H11        4.0540    2.1676   12.7818 H         1 RES1    0.0000
@<TRIPOS>BOND
     1    1    5 1
     2    2    5 2
     3    3    4 1
     4    4    5 1
     5    6    3 1
     6    7    6 1
     7    8    6 1
     8    9    8 1
     9   10    8 2
    10   11   10 1
    11   12    4 1
    12   13   12 1
    13   14    6 1
    14   15   14 1
    15   16   14 1
    16   17    1 1
    17   18   17 ar
    18   19   18 1
    19   20   18 ar
    20   21   20 1
    21   22   20 ar
    22   23   22 1
    23   24   22 ar
    24   25   24 1
    25   26   17 ar
    26   27   26 1
    27   10   12 1
    28   12   14 1
    29   24   26 ar
@<TRIPOS>SUBSTRUCTURE
     1 RES1 1

@<TRIPOS>CRYSIN
   5.8418    8.6844   20.7247  90.0000  91.6580  90.0000  14 1

