# MOL2 file generated by ConQuest
# Please check atom types

@<TRIPOS>MOLECULE
XABCUB
    46    46     1
SMALL
NO_CHARGES
****
Generated from CSD

@<TRIPOS>ATOM
      1 C1         5.6451    4.0382    3.3082 C.ar      1 RES1    0.0000
      2 C2         4.3417    4.5036    3.1553 C.ar      1 RES1    0.0000
      3 C3         3.9046    5.5036    3.9993 C.ar      1 RES1    0.0000
      4 H1         3.0236    5.8506    3.9216 H         1 RES1    0.0000
      5 C4         3.3674    3.8917    2.1956 C.2       1 RES1    0.0000
      6 C5         2.3582    4.0502    0.1166 C.3       1 RES1    0.0000
      7 H2         1.4491    3.9138    0.4836 H         1 RES1    0.0000
      8 H3         2.7181    3.1746   -0.1744 H         1 RES1    0.0000
      9 C6         2.3213    5.0221   -1.0457 C.3       1 RES1    0.0000
     10 N1         6.1428    2.9810    2.4080 N.pl3     1 RES1    0.0000
     11 N2         1.1886    4.6380   -1.9831 N.pl3     1 RES1    0.0000
     12 N3         2.0604    6.4514   -0.5745 N.pl3     1 RES1    0.0000
     13 N4         3.5836    5.0452   -1.8773 N.pl3     1 RES1    0.0000
     14 O1         7.1781    2.4173    2.7015 O.2       1 RES1    0.0000
     15 O2         5.4977    2.7503    1.4070 O.2       1 RES1    0.0000
     16 O3         3.2146    4.6414    1.1036 O.3       1 RES1    0.0000
     17 O4         2.7518    2.8967    2.3981 O.2       1 RES1    0.0000
     18 O5         1.1530    3.4574   -2.2584 O.2       1 RES1    0.0000
     19 O6         0.4416    5.5076   -2.3741 O.2       1 RES1    0.0000
     20 O7         2.7509    7.3265   -1.0408 O.2       1 RES1    0.0000
     21 O8         1.1492    6.5628    0.2298 O.2       1 RES1    0.0000
     22 O9         4.6311    5.0562   -1.2648 O.2       1 RES1    0.0000
     23 O10        3.4382    5.0753   -3.0834 O.2       1 RES1    0.0000
     24 C1B        4.7659    5.9920    4.9582 C.ar      1 RES1    0.0000
     25 C2B        6.0693    5.5266    5.1112 C.ar      1 RES1    0.0000
     26 C3B        6.5064    4.5266    4.2672 C.ar      1 RES1    0.0000
     27 H1B        7.3874    4.1796    4.3449 H         1 RES1    0.0000
     28 C4B        7.0436    6.1385    6.0709 C.2       1 RES1    0.0000
     29 C5B        8.0528    5.9800    8.1499 C.3       1 RES1    0.0000
     30 H2B        8.9619    6.1164    7.7829 H         1 RES1    0.0000
     31 H3B        7.6929    6.8556    8.4409 H         1 RES1    0.0000
     32 C6B        8.0897    5.0081    9.3122 C.3       1 RES1    0.0000
     33 N1B        4.2682    7.0492    5.8585 N.pl3     1 RES1    0.0000
     34 N2B        9.2224    5.3922   10.2496 N.pl3     1 RES1    0.0000
     35 N3B        8.3506    3.5788    8.8410 N.pl3     1 RES1    0.0000
     36 N4B        6.8274    4.9850   10.1438 N.pl3     1 RES1    0.0000
     37 O1B        3.2329    7.6129    5.5650 O.2       1 RES1    0.0000
     38 O2B        4.9133    7.2799    6.8595 O.2       1 RES1    0.0000
     39 O3B        7.1964    5.3888    7.1629 O.3       1 RES1    0.0000
     40 O4B        7.6592    7.1335    5.8684 O.2       1 RES1    0.0000
     41 O5B        9.2580    6.5728   10.5249 O.2       1 RES1    0.0000
     42 O6B        9.9694    4.5226   10.6406 O.2       1 RES1    0.0000
     43 O7B        7.6601    2.7037    9.3072 O.2       1 RES1    0.0000
     44 O8B        9.2618    3.4674    8.0367 O.2       1 RES1    0.0000
     45 O9B        5.7799    4.9740    9.5313 O.2       1 RES1    0.0000
     46 O10B       6.9728    4.9549   11.3499 O.2       1 RES1    0.0000
@<TRIPOS>BOND
     1    1    2 ar
     2    2    3 ar
     3    3    4 1
     4    5    2 1
     5    6    7 1
     6    8    6 1
     7    9    6 1
     8   10    1 1
     9   11    9 1
    10   12    9 1
    11   13    9 1
    12   14   10 2
    13   15   10 2
    14   16    5 1
    15   17    5 2
    16   18   11 2
    17   19   11 2
    18   20   12 2
    19   21   12 2
    20   22   13 2
    21   23   13 2
    22   24    3 ar
    23   25   24 ar
    24   26    1 ar
    25   27   26 1
    26   28   25 1
    27   29   30 1
    28   31   29 1
    29   32   29 1
    30   33   24 1
    31   34   32 1
    32   35   32 1
    33   36   32 1
    34   37   33 2
    35   38   33 2
    36   39   28 1
    37   40   28 2
    38   41   34 2
    39   42   34 2
    40   43   35 2
    41   44   35 2
    42   45   36 2
    43   46   36 2
    44    6   16 1
    45   25   26 ar
    46   29   39 1
@<TRIPOS>SUBSTRUCTURE
     1 RES1 1

@<TRIPOS>CRYSIN
  12.9246   10.0302    8.6402  90.0000 106.9130  90.0000  14 1

