# MOL2 file generated by ConQuest
# Please check atom types

@<TRIPOS>MOLECULE
XACCIQ
    49    46     2
SMALL
NO_CHARGES
****
Generated from CSD

@<TRIPOS>ATOM
      1 C1         1.4281    6.1153    4.9943 C.ar      1 RES1    0.0000
      2 C2         0.3579    6.8146    4.4864 C.ar      1 RES1    0.0000
      3 H1         0.2395    6.9220    3.5499 H         1 RES1    0.0000
      4 C3        -0.5357    7.3510    5.3851 C.ar      1 RES1    0.0000
      5 C4        -0.3986    7.2080    6.7560 C.ar      1 RES1    0.0000
      6 C5         0.6777    6.4716    7.2213 C.ar      1 RES1    0.0000
      7 H2         0.7847    6.3476    8.1564 H         1 RES1    0.0000
      8 C6         1.6034    5.9120    6.3547 C.ar      1 RES1    0.0000
      9 C7        -1.3455    7.7651    7.7881 C.2       1 RES1    0.0000
     10 C8        -1.4100    9.3189    9.5815 C.3       1 RES1    0.0000
     11 H3        -0.9718    9.0362   10.4219 H         1 RES1    0.0000
     12 H4        -2.3541    9.0197    9.6004 H         1 RES1    0.0000
     13 C9        -1.3346   10.8141    9.4253 C.3       1 RES1    0.0000
     14 C10        2.7090    5.1244    6.9728 C.2       1 RES1    0.0000
     15 C11        4.1352    3.2746    6.7256 C.3       1 RES1    0.0000
     16 H5         4.1714    3.2953    7.7151 H         1 RES1    0.0000
     17 H6         4.9747    3.6606    6.3715 H         1 RES1    0.0000
     18 C12        3.9633    1.8638    6.2388 C.3       1 RES1    0.0000
     19 N1         2.4570    5.6649    4.0346 N.pl3     1 RES1    0.0000
     20 N2        -2.2897   11.3686    8.3702 N.pl3     1 RES1    0.0000
     21 N3        -1.6942   11.5257   10.7260 N.pl3     1 RES1    0.0000
     22 N4         0.0723   11.2488    9.0565 N.pl3     1 RES1    0.0000
     23 N5         4.1732    1.6977    4.7317 N.pl3     1 RES1    0.0000
     24 N6         4.9365    0.9265    6.9416 N.pl3     1 RES1    0.0000
     25 N7         2.5611    1.3637    6.5497 N.pl3     1 RES1    0.0000
     26 O1         3.6234    5.8974    4.3169 O.2       1 RES1    0.0000
     27 O2         2.0701    5.1301    3.0107 O.2       1 RES1    0.0000
     28 O3        -0.7278    8.7609    8.4468 O.3       1 RES1    0.0000
     29 O4        -2.4112    7.3295    8.0475 O.2       1 RES1    0.0000
     30 O5        -2.9236   10.5562    7.7395 O.2       1 RES1    0.0000
     31 O6        -2.3349   12.5787    8.2651 O.2       1 RES1    0.0000
     32 O7        -2.4126   10.9033   11.4695 O.2       1 RES1    0.0000
     33 O8        -1.2594   12.6423   10.8919 O.2       1 RES1    0.0000
     34 O9         0.8867   11.0794    9.9358 O.2       1 RES1    0.0000
     35 O10        0.2625   11.6480    7.9307 O.2       1 RES1    0.0000
     36 O11        3.0035    4.0206    6.2515 O.3       1 RES1    0.0000
     37 O12        3.2310    5.4123    8.0075 O.2       1 RES1    0.0000
     38 O13        4.1514    2.7060    4.0785 O.2       1 RES1    0.0000
     39 O14        4.3249    0.5703    4.3273 O.2       1 RES1    0.0000
     40 O15        5.9320    1.4646    7.3906 O.2       1 RES1    0.0000
     41 O16        4.6467   -0.2471    6.9836 O.2       1 RES1    0.0000
     42 O17        2.3353    1.2026    7.7215 O.2       1 RES1    0.0000
     43 O18        1.8033    1.2166    5.6183 O.2       1 RES1    0.0000
     44 N8        -1.5414    8.2924    4.8181 N.pl3     1 RES1    0.0000
     45 O19       -1.9950    9.1081    5.5356 O.2       1 RES1    0.0000
     46 O20       -1.8106    8.2370    3.6701 O.2       1 RES1    0.0000
     47 N9        -1.7669    8.0006    4.8899 Du        2 SUP2    0.0000
     48 O21       -2.4337    8.5957    5.6881 Du        2 SUP2    0.0000
     49 O22       -2.1101    7.8270    3.7759 Du        2 SUP2    0.0000
@<TRIPOS>BOND
     1    1    2 ar
     2    2    3 1
     3    4    2 ar
     4    5    4 ar
     5    6    5 ar
     6    7    6 1
     7    8    1 ar
     8    9    5 1
     9   10   11 1
    10   12   10 1
    11   13   10 1
    12   14    8 1
    13   15   16 1
    14   17   15 1
    15   18   15 1
    16   19    1 1
    17   20   13 1
    18   21   13 1
    19   22   13 1
    20   23   18 1
    21   24   18 1
    22   25   18 1
    23   26   19 2
    24   27   19 2
    25   28    9 1
    26   29    9 2
    27   30   20 2
    28   31   20 2
    29   32   21 2
    30   33   21 2
    31   34   22 2
    32   35   22 2
    33   36   14 1
    34   37   14 2
    35   38   23 2
    36   39   23 2
    37   40   24 2
    38   41   24 2
    39   42   25 2
    40   43   25 2
    41   44    4 1
    42   45   44 2
    43   46   44 2
    44    6    8 ar
    45   10   28 1
    46   15   36 1
@<TRIPOS>SUBSTRUCTURE
     1 RES1 1
     2 SUP2 47

@<TRIPOS>CRYSIN
  14.3744    8.2651   19.3050  90.0000 111.6920  90.0000  14 1

