# MOL2 file generated by ConQuest
# Please check atom types

@<TRIPOS>MOLECULE
XACQEZ
    29    30     1
SMALL
NO_CHARGES
****
Generated from CSD

@<TRIPOS>ATOM
      1 C1         0.2013   -0.1482    4.7421 C.ar      1 RES1    0.0000
      2 N1         1.0947   -1.2603    0.7703 N.pl3     1 RES1    0.0000
      3 O1         0.1735   -1.5085    0.0166 O.2       1 RES1    0.0000
      4 C2         0.7824   -0.8487    2.1366 C.ar      1 RES1    0.0000
      5 C3         0.7878    0.4376    7.1079 C.2       1 RES1    0.0000
      6 H1         1.6869    0.3860    6.8049 H         1 RES1    0.0000
      7 C4        -0.1291    0.2089    6.1489 C.2       1 RES1    0.0000
      8 C5        -0.5323    1.1035    9.1865 C.ar      1 RES1    0.0000
      9 H2        -1.3447    1.1646    8.6978 H         1 RES1    0.0000
     10 C6         1.8141   -0.7495    3.0507 C.ar      1 RES1    0.0000
     11 H3         2.7116   -0.9135    2.7860 H         1 RES1    0.0000
     12 C7         1.5208   -0.4076    4.3561 C.ar      1 RES1    0.0000
     13 H4         2.2202   -0.3485    4.9963 H         1 RES1    0.0000
     14 O2         2.2699   -1.3239    0.4468 O.2       1 RES1    0.0000
     15 C8         1.8340    0.6873    9.2813 C.ar      1 RES1    0.0000
     16 H5         2.6523    0.4706    8.8493 H         1 RES1    0.0000
     17 C9        -0.5250    1.3641   10.5367 C.ar      1 RES1    0.0000
     18 H6        -1.3358    1.6020   10.9727 H         1 RES1    0.0000
     19 C10        0.6541    0.7491    8.5252 C.ar      1 RES1    0.0000
     20 N2        -2.6767    0.2128    6.6090 N.1       1 RES1    0.0000
     21 C11       -1.5405    0.2306    6.4400 C.1       1 RES1    0.0000
     22 C12       -0.5222   -0.5902    2.4896 C.ar      1 RES1    0.0000
     23 H7        -1.2165   -0.6528    1.8441 H         1 RES1    0.0000
     24 C13       -0.8062   -0.2414    3.7805 C.ar      1 RES1    0.0000
     25 H8        -1.7050   -0.0592    4.0268 H         1 RES1    0.0000
     26 C14        1.8299    0.9356   10.6407 C.ar      1 RES1    0.0000
     27 H9         2.6355    0.8675   11.1413 H         1 RES1    0.0000
     28 C15        0.6473    1.2837   11.2730 C.ar      1 RES1    0.0000
     29 H10        0.6395    1.4669   12.2043 H         1 RES1    0.0000
@<TRIPOS>BOND
     1    1    7 1
     2    2    3 2
     3    4    2 1
     4    5    6 1
     5    7    5 2
     6    8    9 1
     7   10    4 ar
     8   11   10 1
     9   12    1 ar
    10   13   12 1
    11   14    2 2
    12   15   16 1
    13   17    8 ar
    14   18   17 1
    15   19    5 1
    16   20   21 3
    17   21    7 1
    18   22    4 ar
    19   23   22 1
    20   24    1 ar
    21   25   24 1
    22   26   15 ar
    23   27   26 1
    24   28   17 ar
    25   29   28 1
    26    8   19 ar
    27   10   12 ar
    28   15   19 ar
    29   22   24 ar
    30   26   28 ar
@<TRIPOS>SUBSTRUCTURE
     1 RES1 1

@<TRIPOS>CRYSIN
   6.8263    7.1276   13.4760  99.3930  93.1060 114.4720   2 1

