# MOL2 file generated by ConQuest
# Please check atom types

@<TRIPOS>MOLECULE
XACVIH
    43    46     1
SMALL
NO_CHARGES
****
Generated from CSD

@<TRIPOS>ATOM
      1 O1        -4.7240   -2.8596   -4.0435 O.3       1 RES1    0.0000
      2 O2        -4.6326   -1.1628   -6.2532 O.3       1 RES1    0.0000
      3 O3        -1.8176   -9.0704   -5.4013 O.2       1 RES1    0.0000
      4 O4         0.0523   -8.0752   -5.7613 O.2       1 RES1    0.0000
      5 N1        -3.6305   -2.7479   -7.4556 N.2       1 RES1    0.0000
      6 N2        -1.1438   -8.0723   -5.5237 N.pl3     1 RES1    0.0000
      7 C1        -3.6875   -2.9922   -5.0318 C.3       1 RES1    0.0000
      8 C2        -3.9737   -2.3369   -6.3373 C.2       1 RES1    0.0000
      9 C3        -4.8067   -0.7310   -7.6205 C.3       1 RES1    0.0000
     10 H1        -5.7440   -0.6969   -7.8274 H         1 RES1    0.0000
     11 H2        -4.4286    0.1468   -7.7056 H         1 RES1    0.0000
     12 C4        -4.0656   -1.7328   -8.4493 C.3       1 RES1    0.0000
     13 C5        -2.8686   -1.1391   -9.0505 C.3       1 RES1    0.0000
     14 H3        -2.3728   -0.6856   -8.3664 H         1 RES1    0.0000
     15 H4        -3.1335   -0.5094   -9.7246 H         1 RES1    0.0000
     16 H5        -2.3207   -1.8209   -9.4443 H         1 RES1    0.0000
     17 C6        -4.9244   -2.3530   -9.4827 C.3       1 RES1    0.0000
     18 H6        -4.5214   -3.1617   -9.8064 H         1 RES1    0.0000
     19 H7        -5.0444   -1.7413  -10.2118 H         1 RES1    0.0000
     20 H8        -5.7757   -2.5547   -9.0905 H         1 RES1    0.0000
     21 C7        -3.5089   -2.1173   -3.8465 C.3       1 RES1    0.0000
     22 H9        -3.6294   -1.0899   -3.9779 H         1 RES1    0.0000
     23 C8        -2.6164   -2.4847   -2.7130 C.ar      1 RES1    0.0000
     24 C9        -2.8725   -3.5679   -1.8875 C.ar      1 RES1    0.0000
     25 H10       -3.7833   -4.1332   -2.0390 H         1 RES1    0.0000
     26 C10       -2.0030   -3.8463   -0.8320 C.ar      1 RES1    0.0000
     27 H11       -2.1237   -4.6843   -0.2820 H         1 RES1    0.0000
     28 C11       -0.9009   -3.0651   -0.6251 C.ar      1 RES1    0.0000
     29 H12       -0.2513   -3.2535    0.1518 H         1 RES1    0.0000
     30 C12       -0.6435   -1.9942   -1.4410 C.ar      1 RES1    0.0000
     31 H13        0.2038   -1.3039   -1.2481 H         1 RES1    0.0000
     32 C13       -1.5079   -1.7025   -2.4750 C.ar      1 RES1    0.0000
     33 H14       -1.3449   -0.9213   -3.1019 H         1 RES1    0.0000
     34 C14       -3.0303   -4.3283   -5.1116 C.ar      1 RES1    0.0000
     35 C15       -1.6748   -4.4031   -5.3822 C.ar      1 RES1    0.0000
     36 H15       -1.0890   -3.5783   -5.5131 H         1 RES1    0.0000
     37 C16       -1.0487   -5.6284   -5.5039 C.ar      1 RES1    0.0000
     38 H16        0.0272   -5.7695   -5.6465 H         1 RES1    0.0000
     39 C17       -1.7993   -6.7647   -5.3572 C.ar      1 RES1    0.0000
     40 C18       -3.1446   -6.7192   -5.0669 C.ar      1 RES1    0.0000
     41 H17       -3.7063   -7.6396   -4.8706 H         1 RES1    0.0000
     42 C19       -3.7613   -5.4863   -4.9382 C.ar      1 RES1    0.0000
     43 H18       -4.8656   -5.4040   -4.5820 H         1 RES1    0.0000
@<TRIPOS>BOND
     1    1    7 1
     2    2    8 1
     3    3    6 2
     4    4    6 2
     5    5    8 2
     6    6   39 1
     7    7    8 1
     8    9    2 1
     9   10    9 1
    10   11    9 1
    11   12    5 1
    12   13   12 1
    13   14   13 1
    14   15   13 1
    15   16   13 1
    16   17   12 1
    17   18   17 1
    18   19   17 1
    19   20   17 1
    20   21    1 1
    21   22   21 1
    22   23   21 1
    23   24   23 ar
    24   25   24 1
    25   26   24 ar
    26   27   26 1
    27   28   26 ar
    28   29   28 1
    29   30   28 ar
    30   31   30 1
    31   32   23 ar
    32   33   32 1
    33   34    7 1
    34   35   34 ar
    35   36   35 1
    36   37   35 ar
    37   38   37 1
    38   39   37 ar
    39   40   39 ar
    40   41   40 1
    41   42   34 ar
    42   43   42 1
    43    7   21 1
    44    9   12 1
    45   30   32 ar
    46   40   42 ar
@<TRIPOS>SUBSTRUCTURE
     1 RES1 1

@<TRIPOS>CRYSIN
  22.6410    9.4690   16.6860  90.0000  90.0000  90.0000  60 1

