# MOL2 file generated by ConQuest
# Please check atom types

@<TRIPOS>MOLECULE
XADJET
    38    41     1
SMALL
NO_CHARGES
****
Generated from CSD

@<TRIPOS>ATOM
      1 N1        10.0619    1.1367   -2.3083 N.am      1 RES1    0.0000
      2 N2         7.7516    3.8208   -0.1370 N.pl3     1 RES1    0.0000
      3 H1         7.4666    3.7471   -1.0802 H         1 RES1    0.0000
      4 N3         9.6584    2.8796    2.6315 N.2       1 RES1    0.0000
      5 O1         8.2123    2.5001   -2.4193 O.2       1 RES1    0.0000
      6 O2         9.4195    3.2618    3.9514 O.3       1 RES1    0.0000
      7 H2        10.1038    2.7623    4.4072 H         1 RES1    0.0000
      8 C1         9.1810    2.0264   -1.7941 C.2       1 RES1    0.0000
      9 C2         9.5650    2.2797   -0.3960 C.2       1 RES1    0.0000
     10 C3        10.7318    1.4460   -0.1447 C.ar      1 RES1    0.0000
     11 C4        11.5617    1.2132    0.9406 C.ar      1 RES1    0.0000
     12 H3        11.3924    1.4523    1.8542 H         1 RES1    0.0000
     13 C5        12.6352    0.3422    0.8044 C.ar      1 RES1    0.0000
     14 H4        13.1525    0.2764    1.6603 H         1 RES1    0.0000
     15 C6        12.9038   -0.2835   -0.3992 C.ar      1 RES1    0.0000
     16 H5        13.7134   -0.9234   -0.4551 H         1 RES1    0.0000
     17 C7        12.0816   -0.0720   -1.4964 C.ar      1 RES1    0.0000
     18 H6        12.3594   -0.5253   -2.4088 H         1 RES1    0.0000
     19 C8        11.0196    0.7803   -1.3470 C.ar      1 RES1    0.0000
     20 C9         9.9253    0.5039   -3.6215 C.3       1 RES1    0.0000
     21 H7         8.9652    0.3555   -3.8639 H         1 RES1    0.0000
     22 H8        10.4313   -0.3591   -3.5867 H         1 RES1    0.0000
     23 C10       10.5982    1.2905   -4.7005 C.3       1 RES1    0.0000
     24 H9        11.5432    1.3180   -4.5354 H         1 RES1    0.0000
     25 H10       10.2497    2.1855   -4.7101 H         1 RES1    0.0000
     26 H11       10.4341    0.8745   -5.5499 H         1 RES1    0.0000
     27 C11        8.8057    3.1116    0.3793 C.2       1 RES1    0.0000
     28 C12        8.8065    3.4315    1.8369 C.2       1 RES1    0.0000
     29 C13        7.7031    4.3470    2.0703 C.ar      1 RES1    0.0000
     30 C14        7.2162    5.0109    3.1900 C.ar      1 RES1    0.0000
     31 H12        7.6152    4.8562    4.0723 H         1 RES1    0.0000
     32 C15        6.1418    5.8765    3.0447 C.ar      1 RES1    0.0000
     33 H13        5.8707    6.3654    3.9024 H         1 RES1    0.0000
     34 C16        5.5622    6.0739    1.8070 C.ar      1 RES1    0.0000
     35 H14        4.7723    6.7964    1.7276 H         1 RES1    0.0000
     36 C17        6.0265    5.4322    0.6794 C.ar      1 RES1    0.0000
     37 H15        5.5700    5.5530   -0.2516 H         1 RES1    0.0000
     38 C18        7.0922    4.5665    0.8361 C.ar      1 RES1    0.0000
@<TRIPOS>BOND
     1    1    8 1
     2    2    3 1
     3    4    6 1
     4    5    8 2
     5    6    7 1
     6    8    9 1
     7    9   10 1
     8   10   11 ar
     9   11   12 1
    10   13   11 ar
    11   14   13 1
    12   15   13 ar
    13   16   15 1
    14   17   15 ar
    15   18   17 1
    16   19    1 1
    17   20    1 1
    18   21   20 1
    19   22   20 1
    20   23   20 1
    21   24   23 1
    22   25   23 1
    23   26   23 1
    24   27    2 1
    25   28    4 2
    26   29   28 1
    27   30   29 ar
    28   31   30 1
    29   32   30 ar
    30   33   32 1
    31   34   32 ar
    32   35   34 1
    33   36   34 ar
    34   37   36 1
    35   38    2 1
    36    9   27 2
    37   10   19 ar
    38   17   19 ar
    39   27   28 1
    40   29   38 ar
    41   36   38 ar
@<TRIPOS>SUBSTRUCTURE
     1 RES1 1

@<TRIPOS>CRYSIN
   9.8002    8.8877   16.5100  90.0000 103.9030  90.0000 231 1

