# MOL2 file generated by ConQuest
# Please check atom types

@<TRIPOS>MOLECULE
XAFVIK
    43    45     1
SMALL
NO_CHARGES
****
Generated from CSD

@<TRIPOS>ATOM
      1 H1        -6.5624    7.4914   10.4610 H         1 RES1    0.0000
      2 O1        -1.0926    3.9049    9.5984 O.2       1 RES1    0.0000
      3 N1        -2.1255    5.6171   10.6204 N.am      1 RES1    0.0000
      4 C1        -0.9794    7.4360    8.8655 C.ar      1 RES1    0.0000
      5 C2        -3.5548    7.3791   11.5121 C.ar      1 RES1    0.0000
      6 O2        -0.4139    4.6605   12.4701 O.3       1 RES1    0.0000
      7 N2        -1.9780    7.8206    9.7396 N.3       1 RES1    0.0000
      8 O3        -1.8771    7.0254   13.8108 O.2       1 RES1    0.0000
      9 C3        -0.6301    6.0853    8.7958 C.ar      1 RES1    0.0000
     10 C4        -2.5935    4.6663   11.6491 C.3       1 RES1    0.0000
     11 C5        -1.4376    3.8696   12.1996 C.2       1 RES1    0.0000
     12 N3        -2.8510    7.7508   13.8798 N.pl3     1 RES1    0.0000
     13 C6        -0.3694    8.3457    8.0102 C.ar      1 RES1    0.0000
     14 C7        -1.2747    5.1208    9.6819 C.2       1 RES1    0.0000
     15 C8        -3.8750    7.6938   12.8351 C.ar      1 RES1    0.0000
     16 C9         0.5794    7.9121    7.1214 C.ar      1 RES1    0.0000
     17 C10       -2.1696    7.0657   10.9662 C.3       1 RES1    0.0000
     18 C11        0.3275    5.6740    7.8836 C.ar      1 RES1    0.0000
     19 C12       -4.6243    7.3575   10.6255 C.ar      1 RES1    0.0000
     20 O4        -1.4558    2.6876   12.4454 O.2       1 RES1    0.0000
     21 C13        0.9379    6.5745    7.0494 C.ar      1 RES1    0.0000
     22 C14       -5.1528    7.9539   13.2470 C.ar      1 RES1    0.0000
     23 O5        -3.0147    8.5229   14.8076 O.2       1 RES1    0.0000
     24 C15       -3.7483    3.8098   11.1733 C.3       1 RES1    0.0000
     25 C16       -6.1822    7.8883   12.3365 C.ar      1 RES1    0.0000
     26 C17        0.7426    4.0612   13.0869 C.3       1 RES1    0.0000
     27 C18       -5.9081    7.5952   11.0323 C.ar      1 RES1    0.0000
     28 H2        -1.2961    7.3330   11.7475 H         1 RES1    0.0000
     29 H3        -2.9598    5.2080   12.4628 H         1 RES1    0.0000
     30 H4        -4.4349    7.2033    9.6738 H         1 RES1    0.0000
     31 H5        -7.0763    8.0317   12.6449 H         1 RES1    0.0000
     32 H6        -3.4779    3.2559   10.2951 H         1 RES1    0.0000
     33 H7        -4.5429    4.2788   11.0059 H         1 RES1    0.0000
     34 H8         0.5796    4.7542    7.8924 H         1 RES1    0.0000
     35 H9        -3.9638    3.2847   11.9693 H         1 RES1    0.0000
     36 H10        1.6606    6.2885    6.4913 H         1 RES1    0.0000
     37 H11       -5.3589    8.1829   14.1722 H         1 RES1    0.0000
     38 H12       -0.6265    9.2634    8.1009 H         1 RES1    0.0000
     39 H13        1.4030    4.6749   13.2030 H         1 RES1    0.0000
     40 H14        0.9890    8.6224    6.4678 H         1 RES1    0.0000
     41 H15        0.4821    3.4288   13.8785 H         1 RES1    0.0000
     42 H16        1.0642    3.4360   12.3658 H         1 RES1    0.0000
     43 H17       -1.9818    8.6512    9.9426 H         1 RES1    0.0000
@<TRIPOS>BOND
     1    1   27 1
     2    2   14 2
     3    3   10 1
     4    4    7 1
     5    5   15 ar
     6    6   11 1
     7    7   17 1
     8    8   12 2
     9    9    4 ar
    10   10   11 1
    11   11   20 2
    12   12   15 1
    13   13    4 ar
    14   14    3 1
    15   15   22 ar
    16   16   13 ar
    17   17    3 1
    18   18    9 ar
    19   19    5 ar
    20   21   16 ar
    21   22   25 ar
    22   23   12 2
    23   24   10 1
    24   25   27 ar
    25   26    6 1
    26   27   19 ar
    27   28   17 1
    28   29   10 1
    29   30   19 1
    30   31   25 1
    31   32   24 1
    32   33   24 1
    33   34   18 1
    34   35   24 1
    35   36   21 1
    36   37   22 1
    37   38   13 1
    38   39   26 1
    39   40   16 1
    40   41   26 1
    41   42   26 1
    42   43    7 1
    43    5   17 1
    44    9   14 1
    45   18   21 ar
@<TRIPOS>SUBSTRUCTURE
     1 RES1 1

@<TRIPOS>CRYSIN
   7.9692    7.2033   15.1123  90.0000 103.6370  90.0000   4 1

