# MOL2 file generated by ConQuest
# Please check atom types

@<TRIPOS>MOLECULE
XAGCOX
    74    76     1
SMALL
NO_CHARGES
****
Generated from CSD

@<TRIPOS>ATOM
      1 C1         5.2144   12.1722   12.9393 C.3       1 RES1    0.0000
      2 H1         4.4608   12.2870   13.5550 H         1 RES1    0.0000
      3 C2         6.0495   10.9635   13.3812 C.3       1 RES1    0.0000
      4 H2         6.7375   10.7620   12.7130 H         1 RES1    0.0000
      5 C3         6.6823   11.2374   14.7177 C.3       1 RES1    0.0000
      6 H3         5.9946   11.2959   15.3994 H         1 RES1    0.0000
      7 H4         7.2795   10.5102   14.9521 H         1 RES1    0.0000
      8 O1         7.4127   12.4623   14.6638 O.3       1 RES1    0.0000
      9 C4         6.5976   13.5421   14.2704 C.3       1 RES1    0.0000
     10 H5         5.8828   13.6751   14.9279 H         1 RES1    0.0000
     11 O2         6.0383   13.3185   12.9918 O.3       1 RES1    0.0000
     12 C5         4.6940   12.0050   11.5476 C.2       1 RES1    0.0000
     13 N1         3.6416   11.3079   11.3589 N.2       1 RES1    0.0000
     14 O3         3.4093   11.1750    9.9861 O.3       1 RES1    0.0000
     15 C6         4.5227   11.7209    9.2343 C.3       1 RES1    0.0000
     16 H6         4.1926   12.3273    8.5377 H         1 RES1    0.0000
     17 C7         5.3395   12.5127   10.2771 C.3       1 RES1    0.0000
     18 H7         6.2815   12.2427   10.2461 H         1 RES1    0.0000
     19 N2         5.2222   13.9551   10.1450 N.am      1 RES1    0.0000
     20 H8         4.4388   14.3077   10.1046 H         1 RES1    0.0000
     21 C8         6.3083   14.7610   10.0817 C.2       1 RES1    0.0000
     22 O4         7.4531   14.3540   10.0736 O.2       1 RES1    0.0000
     23 O5         5.9160   16.0302   10.0170 O.3       1 RES1    0.0000
     24 C9         6.8948   17.1221    9.8904 C.3       1 RES1    0.0000
     25 C10        7.7561   16.9529    8.6509 C.3       1 RES1    0.0000
     26 H9         7.1934   16.9045    7.8749 H         1 RES1    0.0000
     27 H10        8.2690   16.1450    8.7250 H         1 RES1    0.0000
     28 H11        8.3499   17.7023    8.5687 H         1 RES1    0.0000
     29 C11        6.0134   18.3510    9.7786 C.3       1 RES1    0.0000
     30 H12        5.4882   18.2966    8.9769 H         1 RES1    0.0000
     31 H13        6.5625   19.1367    9.7489 H         1 RES1    0.0000
     32 H14        5.4304   18.3973   10.5411 H         1 RES1    0.0000
     33 C12        7.7249   17.2067   11.1555 C.3       1 RES1    0.0000
     34 H15        8.2825   16.4270   11.2242 H         1 RES1    0.0000
     35 H16        7.1430   17.2510   11.9167 H         1 RES1    0.0000
     36 H17        8.2752   17.9924   11.1245 H         1 RES1    0.0000
     37 C13        5.3431   10.5988    8.6051 C.3       1 RES1    0.0000
     38 H18        5.8907   10.1757    9.3003 H         1 RES1    0.0000
     39 C14        6.2446   11.1488    7.5394 C.3       1 RES1    0.0000
     40 H19        6.8515   11.8015    7.9234 H         1 RES1    0.0000
     41 H20        6.7717   10.4316    7.1500 H         1 RES1    0.0000
     42 O6         5.4217   11.7753    6.5128 O.3       1 RES1    0.0000
     43 C15        5.4742   11.3402    5.2746 C.2       1 RES1    0.0000
     44 O7         6.2420   10.5021    4.9391 O.2       1 RES1    0.0000
     45 C16        4.4571   11.9748    4.4110 C.3       1 RES1    0.0000
     46 H21        3.9624   12.6215    4.9216 H         1 RES1    0.0000
     47 H22        3.8572   11.3039    4.0769 H         1 RES1    0.0000
     48 H23        4.8901   12.4120    3.6754 H         1 RES1    0.0000
     49 O8         4.4596    9.6459    8.0797 O.3       1 RES1    0.0000
     50 C17        5.0311    8.4593    7.7603 C.3       1 RES1    0.0000
     51 H24        5.8835    8.3707    8.2157 H         1 RES1    0.0000
     52 H25        5.1894    8.4150    6.8051 H         1 RES1    0.0000
     53 C18        4.0827    7.3150    8.1915 C.ar      1 RES1    0.0000
     54 C19        4.2447    6.1969    7.5812 C.ar      1 RES1    0.0000
     55 H26        4.9287    6.1063    6.9574 H         1 RES1    0.0000
     56 C20        3.3118    4.9942    7.8735 C.ar      1 RES1    0.0000
     57 H27        3.3336    4.1823    7.4208 H         1 RES1    0.0000
     58 C21        2.4216    5.3065    8.9284 C.ar      1 RES1    0.0000
     59 H28        1.8137    4.6719    9.2343 H         1 RES1    0.0000
     60 C22        2.4645    6.4830    9.4606 C.ar      1 RES1    0.0000
     61 H29        1.8780    6.6381   10.1652 H         1 RES1    0.0000
     62 C23        3.2367    7.4762    9.1211 C.ar      1 RES1    0.0000
     63 H30        3.1679    8.2941    9.5563 H         1 RES1    0.0000
     64 O9         5.1605    9.8433   13.5335 O.3       1 RES1    0.0000
     65 C24        5.2061    8.8340   12.6550 C.2       1 RES1    0.0000
     66 O10        6.0282    8.7998   11.7658 O.2       1 RES1    0.0000
     67 C25        4.1066    7.8469   12.8746 C.3       1 RES1    0.0000
     68 H31        3.5968    8.1007   13.6466 H         1 RES1    0.0000
     69 H32        4.4829    6.9745   13.0134 H         1 RES1    0.0000
     70 H33        3.5343    7.8287   12.1040 H         1 RES1    0.0000
     71 C26        7.4584   14.7509   14.2071 C.3       1 RES1    0.0000
     72 H34        6.9295   15.5064   13.9403 H         1 RES1    0.0000
     73 H35        8.1603   14.6099   13.5671 H         1 RES1    0.0000
     74 H36        7.8414   14.9161   15.0721 H         1 RES1    0.0000
@<TRIPOS>BOND
     1    1    2 1
     2    3    1 1
     3    4    3 1
     4    5    3 1
     5    6    5 1
     6    7    5 1
     7    8    5 1
     8    9    8 1
     9   10    9 1
    10   11    1 1
    11   12    1 1
    12   13   12 2
    13   14   13 1
    14   15   14 1
    15   16   15 1
    16   17   12 1
    17   18   17 1
    18   19   17 1
    19   20   19 1
    20   21   19 1
    21   22   21 2
    22   23   21 1
    23   24   23 1
    24   25   24 1
    25   26   25 1
    26   27   25 1
    27   28   25 1
    28   29   24 1
    29   30   29 1
    30   31   29 1
    31   32   29 1
    32   33   24 1
    33   34   33 1
    34   35   33 1
    35   36   33 1
    36   37   15 1
    37   38   37 1
    38   39   37 1
    39   40   39 1
    40   41   39 1
    41   42   39 1
    42   43   42 1
    43   44   43 2
    44   45   43 1
    45   46   45 1
    46   47   45 1
    47   48   45 1
    48   49   37 1
    49   50   49 1
    50   51   50 1
    51   52   50 1
    52   53   50 1
    53   54   53 ar
    54   55   54 1
    55   56   54 ar
    56   57   56 1
    57   58   56 ar
    58   59   58 1
    59   60   58 ar
    60   61   60 1
    61   62   53 ar
    62   63   62 1
    63   64    3 1
    64   65   64 1
    65   66   65 2
    66   67   65 1
    67   68   67 1
    68   69   67 1
    69   70   67 1
    70   71    9 1
    71   72   71 1
    72   73   71 1
    73   74   71 1
    74    9   11 1
    75   15   17 1
    76   60   62 ar
@<TRIPOS>SUBSTRUCTURE
     1 RES1 1

@<TRIPOS>CRYSIN
   5.1550   20.1460   13.4940  90.0000  93.2100  90.0000   4 1

