# MOL2 file generated by ConQuest
# Please check atom types

@<TRIPOS>MOLECULE
XAGCUD
    35    37     1
SMALL
NO_CHARGES
****
Generated from CSD

@<TRIPOS>ATOM
      1 O1         6.7274    2.6371   20.9630 O.3       1 RES1    0.0000
      2 H1         7.3556    2.1862   21.6291 H         1 RES1    0.0000
      3 C1         5.7272    3.2889   21.6944 C.3       1 RES1    0.0000
      4 H2         5.1607    3.7838   21.0827 H         1 RES1    0.0000
      5 H3         6.1423    3.9281   22.2957 H         1 RES1    0.0000
      6 C2         4.8622    2.3390   22.5084 C.3       1 RES1    0.0000
      7 H4         4.1711    2.8642   22.9636 H         1 RES1    0.0000
      8 C3         4.1817    1.2945   21.6604 C.2       1 RES1    0.0000
      9 N1         2.9128    1.2843   21.6194 N.2       1 RES1    0.0000
     10 O2         2.4697    0.3048   20.7000 O.3       1 RES1    0.0000
     11 C4         3.6052   -0.4779   20.3095 C.3       1 RES1    0.0000
     12 H5         3.6152   -0.6502   19.3446 H         1 RES1    0.0000
     13 C5         3.6351   -1.7580   21.1089 C.2       1 RES1    0.0000
     14 O3         2.7608   -2.5737   21.2053 O.2       1 RES1    0.0000
     15 O4         4.7868   -1.8695   21.7532 O.3       1 RES1    0.0000
     16 C6         5.6917   -0.7819   21.4403 C.3       1 RES1    0.0000
     17 H6         6.3978   -1.0851   20.8485 H         1 RES1    0.0000
     18 H7         6.0936   -0.4290   22.2497 H         1 RES1    0.0000
     19 C7         4.8429    0.2770   20.7609 C.3       1 RES1    0.0000
     20 H8         5.3109    0.6983   20.0102 H         1 RES1    0.0000
     21 O5         5.6786    1.7209   23.4968 O.3       1 RES1    0.0000
     22 C8         4.9339    1.2134   24.5856 C.3       1 RES1    0.0000
     23 H9         4.2533    0.6063   24.2536 H         1 RES1    0.0000
     24 H10        4.4883    1.9455   25.0405 H         1 RES1    0.0000
     25 C9         5.8145    0.4948   25.5463 C.ar      1 RES1    0.0000
     26 C10        5.3228    0.2263   26.8259 C.ar      1 RES1    0.0000
     27 H11        4.4845    0.5396   27.0768 H         1 RES1    0.0000
     28 C11        6.0880   -0.5117   27.7251 C.ar      1 RES1    0.0000
     29 H12        5.7559   -0.7017   28.5721 H         1 RES1    0.0000
     30 C12        7.3207   -0.9559   27.3644 C.ar      1 RES1    0.0000
     31 H13        7.8274   -1.4498   27.9683 H         1 RES1    0.0000
     32 C13        7.8286   -0.6797   26.1096 C.ar      1 RES1    0.0000
     33 H14        8.6756   -0.9820   25.8744 H         1 RES1    0.0000
     34 C14        7.0783    0.0431   25.2104 C.ar      1 RES1    0.0000
     35 H15        7.4248    0.2297   24.3686 H         1 RES1    0.0000
@<TRIPOS>BOND
     1    1    2 1
     2    3    1 1
     3    4    3 1
     4    5    3 1
     5    6    3 1
     6    7    6 1
     7    8    6 1
     8    9    8 2
     9   10    9 1
    10   11   10 1
    11   12   11 1
    12   13   11 1
    13   14   13 2
    14   15   13 1
    15   16   15 1
    16   17   16 1
    17   18   16 1
    18   19    8 1
    19   20   19 1
    20   21    6 1
    21   22   21 1
    22   23   22 1
    23   24   22 1
    24   25   22 1
    25   26   25 ar
    26   27   26 1
    27   28   26 ar
    28   29   28 1
    29   30   28 ar
    30   31   30 1
    31   32   30 ar
    32   33   32 1
    33   34   25 ar
    34   35   34 1
    35   11   19 1
    36   16   19 1
    37   32   34 ar
@<TRIPOS>SUBSTRUCTURE
     1 RES1 1

@<TRIPOS>CRYSIN
   6.2320    8.4440   26.1410  90.0000  90.0000  90.0000  19 1

