# MOL2 file generated by ConQuest
# Please check atom types

@<TRIPOS>MOLECULE
XAGJIY
    42    45     1
SMALL
NO_CHARGES
****
Generated from CSD

@<TRIPOS>ATOM
      1 O1        10.5940   -0.3262    5.6532 O.3       1 RES1    0.0000
      2 N1        10.4571   -1.1452    6.7905 N.2       1 RES1    0.0000
      3 C1        10.4178   -0.4305    7.8511 C.2       1 RES1    0.0000
      4 C2        10.4683    1.0497    7.5581 C.3       1 RES1    0.0000
      5 H1        11.1460    1.4961    8.1092 H         1 RES1    0.0000
      6 C3         9.1309    1.7340    7.6829 C.3       1 RES1    0.0000
      7 H2         8.4269    1.1881    7.2759 H         1 RES1    0.0000
      8 O2         9.2083    3.0259    7.0389 O.3       1 RES1    0.0000
      9 N2         9.4236    2.9620    5.6418 N.2       1 RES1    0.0000
     10 C4        10.1518    1.9975    5.2150 C.2       1 RES1    0.0000
     11 C5        10.8801    1.0258    6.0978 C.3       1 RES1    0.0000
     12 H3        11.8433    1.1897    6.0311 H         1 RES1    0.0000
     13 O3         8.8528    1.9660    9.0136 O.3       1 RES1    0.0000
     14 C6         7.4942    2.3365    9.2938 C.3       1 RES1    0.0000
     15 H4         6.8870    1.7221    8.8513 H         1 RES1    0.0000
     16 H5         7.3211    3.2294    8.9581 H         1 RES1    0.0000
     17 C7         7.2722    2.2972   10.7638 C.3       1 RES1    0.0000
     18 H6         6.3605    2.5306   10.9554 H         1 RES1    0.0000
     19 H7         7.8604    2.9230   11.1924 H         1 RES1    0.0000
     20 H8         7.4519    1.4125   11.0909 H         1 RES1    0.0000
     21 C8        10.3310   -1.0774    9.1714 C.ar      1 RES1    0.0000
     22 C9        10.4713   -0.3440   10.3370 C.ar      1 RES1    0.0000
     23 H9        10.5923    0.5770   10.2940 H         1 RES1    0.0000
     24 C10       10.4322   -0.9772   11.5645 C.ar      1 RES1    0.0000
     25 H10       10.5189   -0.4751   12.3434 H         1 RES1    0.0000
     26 C11       10.2671   -2.3325   11.6515 C.ar      1 RES1    0.0000
     27 H11       10.2524   -2.7527   12.4815 H         1 RES1    0.0000
     28 C12       10.1233   -3.0670   10.4956 C.ar      1 RES1    0.0000
     29 H12       10.0130   -3.9893   10.5466 H         1 RES1    0.0000
     30 C13       10.1424   -2.4487    9.2703 C.ar      1 RES1    0.0000
     31 H13       10.0274   -2.9540    8.4972 H         1 RES1    0.0000
     32 C14       10.3090    1.8964    3.7400 C.ar      1 RES1    0.0000
     33 C15       11.4049    1.2462    3.1804 C.ar      1 RES1    0.0000
     34 H14       12.0571    0.8810    3.7343 H         1 RES1    0.0000
     35 C16       11.5300    1.1404    1.8119 C.ar      1 RES1    0.0000
     36 H15       12.2693    0.7059    1.4505 H         1 RES1    0.0000
     37 C17       10.5817    1.6656    0.9760 C.ar      1 RES1    0.0000
     38 H16       10.6752    1.5908    0.0547 H         1 RES1    0.0000
     39 C18        9.4863    2.3070    1.5171 C.ar      1 RES1    0.0000
     40 H17        8.8354    2.6651    0.9557 H         1 RES1    0.0000
     41 C19        9.3518    2.4200    2.8861 C.ar      1 RES1    0.0000
     42 H18        8.6088    2.8537    3.2395 H         1 RES1    0.0000
@<TRIPOS>BOND
     1    1    2 1
     2    2    3 2
     3    3    4 1
     4    4    5 1
     5    6    4 1
     6    7    6 1
     7    8    6 1
     8    9    8 1
     9   10    9 2
    10   11    1 1
    11   12   11 1
    12   13    6 1
    13   14   13 1
    14   15   14 1
    15   16   14 1
    16   17   14 1
    17   18   17 1
    18   19   17 1
    19   20   17 1
    20   21    3 1
    21   22   21 ar
    22   23   22 1
    23   24   22 ar
    24   25   24 1
    25   26   24 ar
    26   27   26 1
    27   28   26 ar
    28   29   28 1
    29   30   21 ar
    30   31   30 1
    31   32   10 1
    32   33   32 ar
    33   34   33 1
    34   35   33 ar
    35   36   35 1
    36   37   35 ar
    37   38   37 1
    38   39   37 ar
    39   40   39 1
    40   41   32 ar
    41   42   41 1
    42    4   11 1
    43   10   11 1
    44   28   30 ar
    45   39   41 ar
@<TRIPOS>SUBSTRUCTURE
     1 RES1 1

@<TRIPOS>CRYSIN
  15.9570    7.9580   26.0410  90.0000  90.0000  90.0000  61 1

