# MOL2 file generated by ConQuest
# Please check atom types

@<TRIPOS>MOLECULE
XAGYAF
    33    34     1
SMALL
USER_CHARGES
****
Generated from CSD

@<TRIPOS>ATOM
      1 N1         1.1032    3.5065    0.7430 N.3       1 RES1    0.0000
      2 C1         0.7659    4.9308    0.8965 C.3       1 RES1    0.0000
      3 H1         0.3693    5.0781    1.7693 H         1 RES1    0.0000
      4 H2         0.1154    5.1847    0.2231 H         1 RES1    0.0000
      5 C2         1.9936    5.7812    0.7533 C.3       1 RES1    0.0000
      6 H3         1.7462    6.7153    0.8364 H         1 RES1    0.0000
      7 H4         2.6126    5.5713    1.4694 H         1 RES1    0.0000
      8 O1         2.6376    5.5757   -0.4988 O.3       1 RES1    0.0000
      9 C3         2.9998    4.1956   -0.6069 C.3       1 RES1    0.0000
     10 H5         3.6091    3.9652    0.1116 H         1 RES1    0.0000
     11 H6         3.4580    4.0474   -1.4489 H         1 RES1    0.0000
     12 C4         1.7859    3.3099   -0.5357 C.3       1 RES1    0.0000
     13 H7         1.1823    3.5231   -1.2653 H         1 RES1    0.0000
     14 H8         2.0526    2.3813   -0.6251 H         1 RES1    0.0000
     15 C5         0.0124    2.6228    0.9986 C.2       1 RES1    0.0000
     16 C6        -0.3802    2.5428    2.4498 C.3       1 RES1    0.0000
     17 H9        -0.5307    3.4543    2.7759 H         1 RES1    0.0000
     18 N2         0.7497    1.9482    3.2324 N.pl3     1 RES1    1.0000
     19 O2         1.2108    0.7942    2.9502 O.2       1 RES1   -1.0000
     20 N3         1.1837    2.6517    4.1939 N.2       1 RES1    0.0000
     21 O3         2.1727    1.9808    4.8624 O.3       1 RES1    0.0000
     22 H10        2.2441    1.1551    4.4154 H         1 RES1    0.0000
     23 C7        -1.6528    1.7360    2.6912 C.3       1 RES1    0.0000
     24 H11       -1.6883    1.4728    3.6241 H         1 RES1    0.0000
     25 H12       -2.4227    2.2991    2.5132 H         1 RES1    0.0000
     26 C8        -1.7362    0.4923    1.8208 C.3       1 RES1    0.0000
     27 H13       -1.0058   -0.1066    2.0400 H         1 RES1    0.0000
     28 H14       -2.5700    0.0289    1.9956 H         1 RES1    0.0000
     29 C9        -1.6623    0.8681    0.3545 C.3       1 RES1    0.0000
     30 H15       -1.4802    0.0711   -0.1678 H         1 RES1    0.0000
     31 H16       -2.5229    1.2173    0.0736 H         1 RES1    0.0000
     32 C10       -0.6040    1.8911    0.0736 C.2       1 RES1    0.0000
     33 H17       -0.3598    2.0237   -0.8135 H         1 RES1    0.0000
@<TRIPOS>BOND
     1    1    2 1
     2    2    3 1
     3    4    2 1
     4    5    2 1
     5    6    5 1
     6    7    5 1
     7    8    5 1
     8    9    8 1
     9   10    9 1
    10   11    9 1
    11   12    1 1
    12   13   12 1
    13   14   12 1
    14   15    1 1
    15   16   15 1
    16   17   16 1
    17   18   16 1
    18   19   18 1
    19   20   18 2
    20   21   20 1
    21   22   21 1
    22   23   16 1
    23   24   23 1
    24   25   23 1
    25   26   23 1
    26   27   26 1
    27   28   26 1
    28   29   26 1
    29   30   29 1
    30   31   29 1
    31   32   15 2
    32   33   32 1
    33    9   12 1
    34   29   32 1
@<TRIPOS>SUBSTRUCTURE
     1 RES1 1

@<TRIPOS>CRYSIN
   6.4960   22.2140    8.2180  90.0000 105.6600  90.0000 231 1

