# MOL2 file generated by ConQuest
# Please check atom types

@<TRIPOS>MOLECULE
XAGZIQ
    94   101     1
SMALL
NO_CHARGES
****
Generated from CSD

@<TRIPOS>ATOM
      1 O1        13.9281    6.6077   12.2789 O.2       1 RES1    0.0000
      2 O2        14.0587    8.3915   11.1024 O.2       1 RES1    0.0000
      3 O3         5.4277    4.1171   14.2880 O.2       1 RES1    0.0000
      4 O4         7.4605    3.5968   14.7421 O.2       1 RES1    0.0000
      5 O5        15.7698    4.4246    7.3585 O.2       1 RES1    0.0000
      6 O6        13.6566    4.8924    6.7774 O.3       1 RES1    0.0000
      7 N1        13.5245    7.3408   11.3791 N.pl3     1 RES1    0.0000
      8 N2         6.5919    3.9101   13.9562 N.pl3     1 RES1    0.0000
      9 C1        12.3678    6.9152   10.5920 C.ar      1 RES1    0.0000
     10 C2        11.9474    7.7109    9.5437 C.ar      1 RES1    0.0000
     11 H1        12.3745    8.5154    9.3532 H         1 RES1    0.0000
     12 C3        10.8759    7.2810    8.7854 C.ar      1 RES1    0.0000
     13 H2        10.5810    7.8013    8.0749 H         1 RES1    0.0000
     14 C4        10.2344    6.0845    9.0681 C.ar      1 RES1    0.0000
     15 C5        10.6889    5.2844   10.1284 C.ar      1 RES1    0.0000
     16 C6        11.7595    5.7202   10.8963 C.ar      1 RES1    0.0000
     17 H3        12.0628    5.2072   11.6116 H         1 RES1    0.0000
     18 C7         9.1129    5.6823    8.1995 C.2       1 RES1    0.0000
     19 C8         8.0037    5.0206    8.5781 C.2       1 RES1    0.0000
     20 C9         7.6614    4.5951    9.9463 C.ar      1 RES1    0.0000
     21 C10        6.3310    4.6986   10.3500 C.ar      1 RES1    0.0000
     22 H4         5.6802    4.9317    9.7270 H         1 RES1    0.0000
     23 C11        5.9665    4.4639   11.6499 C.ar      1 RES1    0.0000
     24 H5         5.0809    4.5528   11.9207 H         1 RES1    0.0000
     25 C12        6.9507    4.0894   12.5520 C.ar      1 RES1    0.0000
     26 C13        8.2491    3.9072   12.1735 C.ar      1 RES1    0.0000
     27 H6         8.8811    3.6318   12.7976 H         1 RES1    0.0000
     28 C14        8.6226    4.1346   10.8592 C.ar      1 RES1    0.0000
     29 C15       10.0553    3.9772   10.4207 C.2       1 RES1    0.0000
     30 C16       10.6966    2.8011   10.3620 C.2       1 RES1    0.0000
     31 C17       10.0857    1.5084   10.8340 C.3       1 RES1    0.0000
     32 H7        10.0220    0.8817   10.0972 H         1 RES1    0.0000
     33 H8         9.1930    1.6672   11.1791 H         1 RES1    0.0000
     34 C18       10.9785    0.9327   11.9350 C.3       1 RES1    0.0000
     35 H9        11.0224    1.5623   12.6718 H         1 RES1    0.0000
     36 H10       10.5864    0.1108   12.2681 H         1 RES1    0.0000
     37 C19       12.3580    0.6558   11.4438 C.3       1 RES1    0.0000
     38 H11       12.3637   -0.2171   11.0209 H         1 RES1    0.0000
     39 H12       12.9536    0.6136   12.2082 H         1 RES1    0.0000
     40 C20       12.9024    1.6541   10.4746 C.ar      1 RES1    0.0000
     41 C21       12.1024    2.6495    9.9067 C.ar      1 RES1    0.0000
     42 C22       12.6569    3.4627    8.9004 C.ar      1 RES1    0.0000
     43 H13       12.1181    4.0923    8.4786 H         1 RES1    0.0000
     44 C23       13.9850    3.3505    8.5218 C.ar      1 RES1    0.0000
     45 C24       14.7955    2.4017    9.1424 C.ar      1 RES1    0.0000
     46 H14       15.6955    2.3391    8.9183 H         1 RES1    0.0000
     47 C25       14.2604    1.5608   10.0828 C.ar      1 RES1    0.0000
     48 H15       14.8031    0.9138   10.4746 H         1 RES1    0.0000
     49 C26       14.5852    4.2716    7.5106 C.2       1 RES1    0.0000
     50 C27       14.1230    5.8936    5.7962 C.3       1 RES1    0.0000
     51 H16       15.0528    5.7129    5.5470 H         1 RES1    0.0000
     52 C28       14.0260    7.2300    6.5102 C.3       1 RES1    0.0000
     53 H17       13.1307    7.3247    6.8721 H         1 RES1    0.0000
     54 H18       14.6454    7.2286    7.2566 H         1 RES1    0.0000
     55 C29       14.3242    8.4280    5.6333 C.3       1 RES1    0.0000
     56 H19       15.2656    8.3828    5.3661 H         1 RES1    0.0000
     57 C30       14.1138    9.7148    6.4072 C.3       1 RES1    0.0000
     58 H20       14.3112   10.4654    5.8417 H         1 RES1    0.0000
     59 H21       14.6964    9.7279    7.1704 H         1 RES1    0.0000
     60 H22       13.2007    9.7673    6.7007 H         1 RES1    0.0000
     61 C31       13.4764    8.3697    4.3813 C.3       1 RES1    0.0000
     62 H23       13.7433    9.0794    3.7775 H         1 RES1    0.0000
     63 H24       12.5457    8.5110    4.6161 H         1 RES1    0.0000
     64 C32       13.6197    7.0260    3.6768 C.3       1 RES1    0.0000
     65 H25       14.5410    6.9181    3.3905 H         1 RES1    0.0000
     66 H26       13.0621    7.0260    2.8825 H         1 RES1    0.0000
     67 C33       13.2271    5.8251    4.5634 C.3       1 RES1    0.0000
     68 H27       12.3086    5.9825    4.8677 H         1 RES1    0.0000
     69 C34       13.2270    4.4668    3.7942 C.3       1 RES1    0.0000
     70 C35       12.2002    4.5383    2.6321 C.3       1 RES1    0.0000
     71 H28       11.3252    4.7146    2.9880 H         1 RES1    0.0000
     72 H29       12.1907    3.7003    2.1613 H         1 RES1    0.0000
     73 H30       12.4474    5.2422    2.0283 H         1 RES1    0.0000
     74 C36       14.6137    4.1885    3.1784 C.3       1 RES1    0.0000
     75 H31       14.8708    4.9259    2.6213 H         1 RES1    0.0000
     76 H32       14.5743    3.3869    2.6513 H         1 RES1    0.0000
     77 H33       15.2593    4.0777    3.8805 H         1 RES1    0.0000
     78 C37       12.7653    3.3141    4.6904 C.ar      1 RES1    0.0000
     79 C38       11.4800    3.3753    5.3038 C.ar      1 RES1    0.0000
     80 H34       10.9329    4.1069    5.1325 H         1 RES1    0.0000
     81 C39       11.0335    2.3945    6.1317 C.ar      1 RES1    0.0000
     82 H35       10.1909    2.4761    6.5174 H         1 RES1    0.0000
     83 C40       11.8170    1.2563    6.4204 C.ar      1 RES1    0.0000
     84 C41       13.0976    1.1397    5.7866 C.ar      1 RES1    0.0000
     85 C42       13.5179    2.1948    4.9336 C.ar      1 RES1    0.0000
     86 H36       14.3468    2.1205    4.5179 H         1 RES1    0.0000
     87 C43       11.4043    0.2186    7.2746 C.ar      1 RES1    0.0000
     88 H37       10.5715    0.2725    7.6855 H         1 RES1    0.0000
     89 C44       12.2009   -0.8759    7.5178 C.ar      1 RES1    0.0000
     90 H38       11.9124   -1.5463    8.0929 H         1 RES1    0.0000
     91 C45       13.4453   -0.9706    6.8948 C.ar      1 RES1    0.0000
     92 H39       13.9856   -1.7095    7.0566 H         1 RES1    0.0000
     93 C46       13.8802    0.0073    6.0502 C.ar      1 RES1    0.0000
     94 H40       14.7116   -0.0772    5.6428 H         1 RES1    0.0000
@<TRIPOS>BOND
     1    1    7 2
     2    2    7 2
     3    3    8 2
     4    4    8 2
     5    5   49 2
     6    6   49 1
     7    7    9 1
     8    8   25 1
     9    9   10 ar
    10   10   11 1
    11   12   10 ar
    12   13   12 1
    13   14   12 ar
    14   15   14 ar
    15   16    9 ar
    16   17   16 1
    17   18   14 1
    18   19   18 2
    19   20   19 1
    20   21   20 ar
    21   22   21 1
    22   23   21 ar
    23   24   23 1
    24   25   23 ar
    25   26   25 ar
    26   27   26 1
    27   28   20 ar
    28   29   15 1
    29   30   29 2
    30   31   30 1
    31   32   31 1
    32   33   31 1
    33   34   31 1
    34   35   34 1
    35   36   34 1
    36   37   34 1
    37   38   37 1
    38   39   37 1
    39   40   37 1
    40   41   30 1
    41   42   41 ar
    42   43   42 1
    43   44   42 ar
    44   45   44 ar
    45   46   45 1
    46   47   40 ar
    47   48   47 1
    48   49   44 1
    49   50    6 1
    50   51   50 1
    51   52   50 1
    52   53   52 1
    53   54   52 1
    54   55   52 1
    55   56   55 1
    56   57   55 1
    57   58   57 1
    58   59   57 1
    59   60   57 1
    60   61   55 1
    61   62   61 1
    62   63   61 1
    63   64   61 1
    64   65   64 1
    65   66   64 1
    66   67   50 1
    67   68   67 1
    68   69   67 1
    69   70   69 1
    70   71   70 1
    71   72   70 1
    72   73   70 1
    73   74   69 1
    74   75   74 1
    75   76   74 1
    76   77   74 1
    77   78   69 1
    78   79   78 ar
    79   80   79 1
    80   81   79 ar
    81   82   81 1
    82   83   81 ar
    83   84   83 ar
    84   85   78 ar
    85   86   85 1
    86   87   83 ar
    87   88   87 1
    88   89   87 ar
    89   90   89 1
    90   91   89 ar
    91   92   91 1
    92   93   84 ar
    93   94   93 1
    94   15   16 ar
    95   26   28 ar
    96   28   29 1
    97   40   41 ar
    98   45   47 ar
    99   64   67 1
   100   84   85 ar
   101   91   93 ar
@<TRIPOS>SUBSTRUCTURE
     1 RES1 1

@<TRIPOS>CRYSIN
  10.9995   14.5737   12.0336  90.0000  95.3810  90.0000   4 1

