# MOL2 file generated by ConQuest
# Please check atom types

@<TRIPOS>MOLECULE
XAHBIR
    24    25     1
SMALL
NO_CHARGES
****
Generated from CSD

@<TRIPOS>ATOM
      1 N1         1.4458    0.3636    6.7522 N.pl3     1 RES1    0.0000
      2 O1         0.4998    0.9226    6.1084 O.2       1 RES1    0.0000
      3 N2         2.3061    1.1393    7.3950 N.pl3     1 RES1    0.0000
      4 N3         2.8870   -1.4892    6.6717 N.ar      1 RES1    0.0000
      5 O2         2.2323    2.3908    7.2673 O.2       1 RES1    0.0000
      6 N4         2.5807   -0.1758    9.3114 N.ar      1 RES1    0.0000
      7 C1         1.6361   -1.0625    6.6194 C.ar      1 RES1    0.0000
      8 C2         2.0272   -3.6834    6.2774 C.ar      1 RES1    0.0000
      9 C3         0.7443   -3.1937    6.1888 C.ar      1 RES1    0.0000
     10 C4         0.5303   -1.8376    6.3810 C.ar      1 RES1    0.0000
     11 C5         3.3836   -0.6537   10.2862 C.ar      1 RES1    0.0000
     12 C6         3.1757    0.5803    8.4382 C.ar      1 RES1    0.0000
     13 C7         3.0504   -2.8030    6.5077 C.ar      1 RES1    0.0000
     14 C8         5.2773    0.4704    9.4593 C.ar      1 RES1    0.0000
     15 C9         4.7120   -0.3535   10.3848 C.ar      1 RES1    0.0000
     16 C10        4.4937    0.9763    8.4302 C.ar      1 RES1    0.0000
     17 H1         2.1986   -4.5467    6.1667 H         1 RES1    0.0000
     18 H2         0.0039   -3.8435    6.1063 H         1 RES1    0.0000
     19 H3         2.8644   -1.1454   10.9552 H         1 RES1    0.0000
     20 H4         5.2330   -0.7299   11.1966 H         1 RES1    0.0000
     21 H5         4.8484    1.5927    7.7662 H         1 RES1    0.0000
     22 H6         6.1314    0.6579    9.5871 H         1 RES1    0.0000
     23 H7         4.0320   -3.1105    6.5691 H         1 RES1    0.0000
     24 H8        -0.3160   -1.4936    6.3377 H         1 RES1    0.0000
@<TRIPOS>BOND
     1    1    2 1
     2    3    1 2
     3    4    7 ar
     4    5    3 1
     5    6   11 ar
     6    7    1 1
     7    8    9 ar
     8    9   10 ar
     9   10    7 ar
    10   11   15 ar
    11   12    3 1
    12   13    4 ar
    13   14   15 ar
    14   15   20 1
    15   16   12 ar
    16   17    8 1
    17   18    9 1
    18   19   11 1
    19   21   16 1
    20   22   14 1
    21   23   13 1
    22   24   10 1
    23    6   12 ar
    24    8   13 ar
    25   14   16 ar
@<TRIPOS>SUBSTRUCTURE
     1 RES1 1

@<TRIPOS>CRYSIN
   6.2310    8.1980   10.3000  99.1700  95.2900 106.6300   2 1

