# MOL2 file generated by ConQuest
# Please check atom types

@<TRIPOS>MOLECULE
XAHZIS
    35    37     1
SMALL
NO_CHARGES
****
Generated from CSD

@<TRIPOS>ATOM
      1 O1        -2.4727    5.2574    0.6169 O.2       1 RES1    0.0000
      2 O2        -0.7355    6.0640    1.6262 O.2       1 RES1    0.0000
      3 O3         3.1502    0.2469    1.0796 O.2       1 RES1    0.0000
      4 O4         3.2641   -1.6306    2.1683 O.2       1 RES1    0.0000
      5 O5         5.0851    4.2271    3.6358 O.2       1 RES1    0.0000
      6 O6         5.4163    3.7119    5.7360 O.2       1 RES1    0.0000
      7 O7         8.3294   -0.4227    5.5364 O.2       1 RES1    0.0000
      8 O8         7.4226   -2.1573    4.6405 O.2       1 RES1    0.0000
      9 O9         2.5479    3.1092    3.8716 O.3       1 RES1    0.0000
     10 C1        -0.9045    3.7400    1.4425 C.ar      1 RES1    0.0000
     11 C2        -1.5926    2.6741    0.8437 C.ar      1 RES1    0.0000
     12 H1        -2.3417    2.8219    0.3130 H         1 RES1    0.0000
     13 C3        -1.1138    1.3895    1.0751 C.ar      1 RES1    0.0000
     14 H2        -1.5398    0.6605    0.6850 H         1 RES1    0.0000
     15 C4        -0.0349    1.1922    1.8644 C.ar      1 RES1    0.0000
     16 H3         0.2594    0.3236    2.0209 H         1 RES1    0.0000
     17 C5         0.6481    2.2522    2.4473 C.ar      1 RES1    0.0000
     18 C6         0.1727    3.5699    2.2341 C.ar      1 RES1    0.0000
     19 H4         0.5927    4.2989    2.6310 H         1 RES1    0.0000
     20 C7         1.8048    1.9806    3.2797 C.3       1 RES1    0.0000
     21 H5         1.7470    1.1748    3.8354 H         1 RES1    0.0000
     22 C8         3.1706    2.3439    2.8124 C.3       1 RES1    0.0000
     23 H6         3.2493    2.7699    1.9324 H         1 RES1    0.0000
     24 C9         4.3567    1.5125    3.3023 C.ar      1 RES1    0.0000
     25 C10        4.4877    0.1544    2.9644 C.ar      1 RES1    0.0000
     26 C11        5.4723   -0.6770    3.4906 C.ar      1 RES1    0.0000
     27 H7         5.5218   -1.5785    3.2661 H         1 RES1    0.0000
     28 C12        6.3673   -0.1007    4.3593 C.ar      1 RES1    0.0000
     29 C13        6.3157    1.2508    4.7562 C.ar      1 RES1    0.0000
     30 H8         6.9301    1.6182    5.3504 H         1 RES1    0.0000
     31 C14        5.2855    1.9971    4.1960 C.ar      1 RES1    0.0000
     32 N1        -1.4392    5.1435    1.2134 N.pl3     1 RES1    0.0000
     33 N2         3.5599   -0.4706    2.0005 N.pl3     1 RES1    0.0000
     34 N3         7.4636   -0.9552    4.8719 N.pl3     1 RES1    0.0000
     35 N4         5.2695    3.4568    4.5861 N.pl3     1 RES1    0.0000
@<TRIPOS>BOND
     1    1   32 2
     2    2   32 2
     3    3   33 2
     4    4   33 2
     5    5   35 2
     6    6   35 2
     7    7   34 2
     8    8   34 2
     9    9   20 1
    10   10   11 ar
    11   11   12 1
    12   13   11 ar
    13   14   13 1
    14   15   13 ar
    15   16   15 1
    16   17   15 ar
    17   18   10 ar
    18   19   18 1
    19   20   17 1
    20   21   20 1
    21   22    9 1
    22   23   22 1
    23   24   22 1
    24   25   24 ar
    25   26   25 ar
    26   27   26 1
    27   28   26 ar
    28   29   28 ar
    29   30   29 1
    30   31   24 ar
    31   32   10 1
    32   33   25 1
    33   34   28 1
    34   35   31 1
    35   17   18 ar
    36   20   22 1
    37   29   31 ar
@<TRIPOS>SUBSTRUCTURE
     1 RES1 1

@<TRIPOS>CRYSIN
   8.4670    8.2560   22.6810  90.0000  90.1100  90.0000  14 1

