# MOL2 file generated by ConQuest
# Please check atom types

@<TRIPOS>MOLECULE
XAKLED
    29    31     1
SMALL
NO_CHARGES
****
Generated from CSD

@<TRIPOS>ATOM
      1 O1         1.6389    8.4804    4.7419 O.2       1 RES1    0.0000
      2 O2        -0.2063    8.1959    3.6750 O.2       1 RES1    0.0000
      3 N1         1.9734    4.4239    4.9280 N.2       1 RES1    0.0000
      4 N2         0.8366    4.2117    4.2239 N.3       1 RES1    0.0000
      5 N3         0.7748    7.7506    4.2645 N.pl3     1 RES1    0.0000
      6 C1         2.0315    5.7376    5.0273 C.2       1 RES1    0.0000
      7 H1         2.7241    6.2084    5.4751 H         1 RES1    0.0000
      8 C2         0.9465    6.3512    4.3929 C.2       1 RES1    0.0000
      9 C3         0.1653    5.3144    3.8695 C.2       1 RES1    0.0000
     10 C4        -1.0210    4.9439    3.1186 C.2       1 RES1    0.0000
     11 C5        -0.9903    3.4233    3.0144 C.3       1 RES1    0.0000
     12 H2        -0.9611    3.1427    2.0657 H         1 RES1    0.0000
     13 H3        -1.7967    3.0324    3.4348 H         1 RES1    0.0000
     14 C6         0.2798    2.9558    3.7507 C.3       1 RES1    0.0000
     15 H4         0.0575    2.3525    4.5040 H         1 RES1    0.0000
     16 H5         0.9029    2.4930    3.1361 H         1 RES1    0.0000
     17 C7        -1.9184    5.8171    2.6372 C.2       1 RES1    0.0000
     18 H6        -1.7285    6.7282    2.8281 H         1 RES1    0.0000
     19 C8        -3.1390    5.5954    1.8680 C.ar      1 RES1    0.0000
     20 C9        -3.8374    6.7381    1.4700 C.ar      1 RES1    0.0000
     21 H7        -3.4966    7.5924    1.7093 H         1 RES1    0.0000
     22 C10       -5.0050    6.6673    0.7423 C.ar      1 RES1    0.0000
     23 H8        -5.4488    7.4640    0.4775 H         1 RES1    0.0000
     24 C11       -5.5302    5.4366    0.3984 C.ar      1 RES1    0.0000
     25 H9        -6.3425    5.3789   -0.0911 H         1 RES1    0.0000
     26 C12       -4.8577    4.2913    0.7760 C.ar      1 RES1    0.0000
     27 H10       -5.2097    3.4419    0.5340 H         1 RES1    0.0000
     28 C13       -3.6822    4.3589    1.5001 C.ar      1 RES1    0.0000
     29 H11       -3.2376    3.5567    1.7508 H         1 RES1    0.0000
@<TRIPOS>BOND
     1    1    5 2
     2    2    5 2
     3    3    4 1
     4    4    9 1
     5    5    8 1
     6    6    3 2
     7    7    6 1
     8    8    6 1
     9    9    8 2
    10   10    9 1
    11   11   10 1
    12   12   11 1
    13   13   11 1
    14   14    4 1
    15   15   14 1
    16   16   14 1
    17   17   10 2
    18   18   17 1
    19   19   17 1
    20   20   19 ar
    21   21   20 1
    22   22   20 ar
    23   23   22 1
    24   24   22 ar
    25   25   24 1
    26   26   24 ar
    27   27   26 1
    28   28   19 ar
    29   29   28 1
    30   11   14 1
    31   26   28 ar
@<TRIPOS>SUBSTRUCTURE
     1 RES1 1

@<TRIPOS>CRYSIN
   6.5358   15.1093   11.5347  90.0000  90.6980  90.0000 231 1

