# MOL2 file generated by ConQuest
# Please check atom types

@<TRIPOS>MOLECULE
XAKYIS
    28    29     1
SMALL
NO_CHARGES
****
Generated from CSD

@<TRIPOS>ATOM
      1 O1         7.8985    3.7439    5.9368 O.2       1 RES1    0.0000
      2 O2         9.5219    3.2925    4.5775 O.2       1 RES1    0.0000
      3 N1         8.3399    0.4270   12.9548 N.2       1 RES1    0.0000
      4 N2         9.0243    3.3105    5.6989 N.pl3     1 RES1    0.0000
      5 N3         6.2471    0.9925   12.3120 N.2       1 RES1    0.0000
      6 N4         6.2543    0.4815   13.5752 N.3       1 RES1    0.0000
      7 N5         5.9871    1.6143    9.0113 N.1       1 RES1    0.0000
      8 C1         7.5295    0.9401   11.9859 C.2       1 RES1    0.0000
      9 C2         7.4925    0.1492   13.9449 C.2       1 RES1    0.0000
     10 C3         7.9751    1.3749   10.6587 C.2       1 RES1    0.0000
     11 C4         9.2718    1.5800   10.3465 C.2       1 RES1    0.0000
     12 C5         9.8748    1.9641    9.0707 C.ar      1 RES1    0.0000
     13 C6        11.2610    1.8019    8.9184 C.ar      1 RES1    0.0000
     14 C7        11.9018    2.1010    7.7290 C.ar      1 RES1    0.0000
     15 C8        11.1800    2.5830    6.6468 C.ar      1 RES1    0.0000
     16 C9         9.8151    2.7751    6.8211 C.ar      1 RES1    0.0000
     17 C10        9.1531    2.4877    7.9908 C.ar      1 RES1    0.0000
     18 C11        6.8844    1.5263    9.7221 C.1       1 RES1    0.0000
     19 C12        7.8081   -0.4435   15.2703 C.3       1 RES1    0.0000
     20 H1         5.4693    0.4015   14.0621 H         1 RES1    0.0000
     21 H2         9.9087    1.4442   11.0614 H         1 RES1    0.0000
     22 H3        11.7720    1.4881    9.6677 H         1 RES1    0.0000
     23 H4        12.8389    1.9567    7.6709 H         1 RES1    0.0000
     24 H5        11.6060    2.8323    5.8212 H         1 RES1    0.0000
     25 H6         8.1947    2.6665    8.0497 H         1 RES1    0.0000
     26 H7         6.9803   -0.4947   15.7867 H         1 RES1    0.0000
     27 H8         8.4635    0.0863   15.7279 H         1 RES1    0.0000
     28 H9         8.1669   -1.3154   15.1542 H         1 RES1    0.0000
@<TRIPOS>BOND
     1    1    4 2
     2    2    4 2
     3    3    8 1
     4    4   16 1
     5    5    6 1
     6    6    9 1
     7    7   18 3
     8    8    5 2
     9    9    3 2
    10   10    8 1
    11   11   10 2
    12   12   11 1
    13   13   12 ar
    14   14   13 ar
    15   15   14 ar
    16   16   15 ar
    17   17   12 ar
    18   18   10 1
    19   19    9 1
    20   20    6 1
    21   21   11 1
    22   22   13 1
    23   23   14 1
    24   24   15 1
    25   25   17 1
    26   26   19 1
    27   27   19 1
    28   28   19 1
    29   16   17 ar
@<TRIPOS>SUBSTRUCTURE
     1 RES1 1

@<TRIPOS>CRYSIN
   9.2700   13.7023   18.3866  90.0000  90.0000  90.0000  61 1

