# MOL2 file generated by ConQuest
# Please check atom types

@<TRIPOS>MOLECULE
XALDUM
    14    15     1
SMALL
USER_CHARGES
****
Generated from CSD

@<TRIPOS>ATOM
      1 N1         9.0616    2.0249    3.3772 N.2       1 RES1    0.0000
      2 N2         9.4528    0.9518    2.6660 N.pl3     1 RES1    1.0000
      3 N3         8.5010    0.0585    2.3828 N.2       1 RES1    0.0000
      4 N4         7.4276    0.6307    2.9583 N.pl3     1 RES1    0.0000
      5 N5         6.2058    0.0738    2.9165 N.2       1 RES1    0.0000
      6 C1         5.2957    0.8221    3.4962 C.2       1 RES1    0.0000
      7 N6         5.6449    2.0782    4.1511 N.pl3     1 RES1    1.0000
      8 N7         6.8566    2.5586    4.1796 N.2       1 RES1    0.0000
      9 C2         7.7641    1.7871    3.5366 C.2       1 RES1    0.0000
     10 N8         4.0293    0.5094    3.5568 N.3       1 RES1    0.0000
     11 O1         4.7204    2.6957    4.7140 O.2       1 RES1   -1.0000
     12 O2        10.6379    0.7942    2.2791 O.2       1 RES1   -1.0000
     13 H1         3.7598   -0.2637    3.2290 H         1 RES1    0.0000
     14 H2         3.4007    1.0705    3.9806 H         1 RES1    0.0000
@<TRIPOS>BOND
     1    1    2 1
     2    2    3 2
     3    3    4 1
     4    4    5 1
     5    5    6 2
     6    6    7 1
     7    7    8 2
     8    8    9 1
     9    9    1 2
    10   10    6 1
    11   11    7 1
    12   12    2 1
    13   13   10 1
    14   14   10 1
    15    4    9 1
@<TRIPOS>SUBSTRUCTURE
     1 RES1 1

@<TRIPOS>CRYSIN
  15.7269    5.2733    7.0768  90.0000 100.4680  90.0000   9 1

