# MOL2 file generated by ConQuest
# Please check atom types

@<TRIPOS>MOLECULE
XALNEF
    38    40     1
SMALL
NO_CHARGES
****
Generated from CSD

@<TRIPOS>ATOM
      1 N1        10.4263   -0.4406    6.1078 N.am      1 RES1    0.0000
      2 N2        10.5008    1.4495    8.3390 N.pl3     1 RES1    0.0000
      3 O1        10.7090   -2.2908    7.4117 O.2       1 RES1    0.0000
      4 O2         9.6992    1.1189    4.6064 O.2       1 RES1    0.0000
      5 O3         6.4989    1.1169    4.0670 O.2       1 RES1    0.0000
      6 O4         5.4030    1.0659    6.0019 O.3       1 RES1    0.0000
      7 O5        10.6697    1.7723    9.4903 O.2       1 RES1    0.0000
      8 O6         9.3987    1.3926    7.8019 O.2       1 RES1    0.0000
      9 C1         9.5413    0.0681    5.1708 C.2       1 RES1    0.0000
     10 C2         8.4113   -0.9225    5.0270 C.3       1 RES1    0.0000
     11 H1         8.2737   -1.1732    4.0892 H         1 RES1    0.0000
     12 C3         7.1211   -0.4727    5.6726 C.2       1 RES1    0.0000
     13 C4         6.7554   -1.2728    6.6592 C.2       1 RES1    0.0000
     14 H2         5.9926   -1.1359    7.1737 H         1 RES1    0.0000
     15 C5         7.6865   -2.4152    6.8629 C.3       1 RES1    0.0000
     16 H3         7.2519   -3.2585    6.6615 H         1 RES1    0.0000
     17 H4         8.0139   -2.4381    7.7761 H         1 RES1    0.0000
     18 C6         8.8299   -2.1357    5.8758 C.3       1 RES1    0.0000
     19 H5         8.9995   -2.9167    5.3088 H         1 RES1    0.0000
     20 C7        10.0874   -1.6990    6.5750 C.2       1 RES1    0.0000
     21 C8         6.3357    0.6514    5.1496 C.2       1 RES1    0.0000
     22 C9         4.4899    2.1062    5.5551 C.3       1 RES1    0.0000
     23 H6         4.4445    2.8002    6.2298 H         1 RES1    0.0000
     24 H7         4.8379    2.5056    4.7425 H         1 RES1    0.0000
     25 C10        3.2348    1.6368    5.3154 C.3       1 RES1    0.0000
     26 H8         3.2473    1.0652    4.5439 H         1 RES1    0.0000
     27 H9         2.6410    2.3746    5.1562 H         1 RES1    0.0000
     28 H10        2.9285    1.1392    6.0771 H         1 RES1    0.0000
     29 C11       11.6276    0.2219    6.4978 C.ar      1 RES1    0.0000
     30 C12       11.6843    1.1294    7.5435 C.ar      1 RES1    0.0000
     31 C13       12.8821    1.7206    7.8942 C.ar      1 RES1    0.0000
     32 H11       12.9190    2.3183    8.6051 H         1 RES1    0.0000
     33 C14       14.0196    1.4194    7.1835 C.ar      1 RES1    0.0000
     34 H12       14.8213    1.8417    7.3920 H         1 RES1    0.0000
     35 C15       13.9774    0.5022    6.1720 C.ar      1 RES1    0.0000
     36 H13       14.7570    0.2835    5.7143 H         1 RES1    0.0000
     37 C16       12.7859   -0.1015    5.8263 C.ar      1 RES1    0.0000
     38 H14       12.7642   -0.7274    5.1381 H         1 RES1    0.0000
@<TRIPOS>BOND
     1    1    9 1
     2    2    7 2
     3    3   20 2
     4    4    9 2
     5    5   21 2
     6    6   21 1
     7    8    2 2
     8    9   10 1
     9   10   11 1
    10   12   10 1
    11   13   12 2
    12   14   13 1
    13   15   13 1
    14   16   15 1
    15   17   15 1
    16   18   10 1
    17   19   18 1
    18   20    1 1
    19   21   12 1
    20   22    6 1
    21   23   22 1
    22   24   22 1
    23   25   22 1
    24   26   25 1
    25   27   25 1
    26   28   25 1
    27   29    1 1
    28   30    2 1
    29   31   30 ar
    30   32   31 1
    31   33   31 ar
    32   34   33 1
    33   35   33 ar
    34   36   35 1
    35   37   29 ar
    36   38   37 1
    37   15   18 1
    38   18   20 1
    39   29   30 ar
    40   35   37 ar
@<TRIPOS>SUBSTRUCTURE
     1 RES1 1

@<TRIPOS>CRYSIN
  14.2927    6.5471   16.4441  90.0000  93.3660  90.0000 231 1

