# MOL2 file generated by ConQuest
# Please check atom types

@<TRIPOS>MOLECULE
XALQEJ
    38    40     1
SMALL
NO_CHARGES
****
Generated from CSD

@<TRIPOS>ATOM
      1 O1         6.5683   11.7588    6.6041 O.2       1 RES1    0.0000
      2 O2         6.6206    9.1661   11.0268 O.3       1 RES1    0.0000
      3 O3         4.3631    7.9965   11.1640 O.3       1 RES1    0.0000
      4 N1         3.1237    9.5925    6.7669 N.pl3     1 RES1    0.0000
      5 C1         3.3914   10.4167    5.7183 C.2       1 RES1    0.0000
      6 H1         2.7797   10.4595    5.0185 H         1 RES1    0.0000
      7 C2         4.4998   11.1701    5.6489 C.2       1 RES1    0.0000
      8 H2         4.6192   11.7329    4.9175 H         1 RES1    0.0000
      9 C3         5.4996   11.1317    6.6664 C.2       1 RES1    0.0000
     10 C4         6.0804   10.1710    8.8840 C.ar      1 RES1    0.0000
     11 H3         6.8763   10.6525    8.8625 H         1 RES1    0.0000
     12 C5         5.8084    9.3788    9.9580 C.ar      1 RES1    0.0000
     13 C6         4.5680    8.6921   10.0215 C.ar      1 RES1    0.0000
     14 C7         3.6877    8.7583    8.9785 C.ar      1 RES1    0.0000
     15 H4         2.8842    8.2915    9.0163 H         1 RES1    0.0000
     16 C8         7.9369    9.6721   10.9462 C.3       1 RES1    0.0000
     17 H5         8.3481    9.3649   10.1350 H         1 RES1    0.0000
     18 H6         8.4451    9.3626   11.6996 H         1 RES1    0.0000
     19 H7         7.9116   10.6313   10.9491 H         1 RES1    0.0000
     20 C9         3.0642    7.4642   11.3747 C.3       1 RES1    0.0000
     21 H8         2.4155    8.1691   11.3127 H         1 RES1    0.0000
     22 H9         3.0197    7.0640   12.2465 H         1 RES1    0.0000
     23 H10        2.8785    6.7992   10.7083 H         1 RES1    0.0000
     24 C10        5.1800   10.2749    7.8064 C.ar      1 RES1    0.0000
     25 C11        3.9997    9.5340    7.8485 C.ar      1 RES1    0.0000
     26 O4        -2.4440    6.7381    6.2020 O.2       1 RES1    0.0000
     27 O5        -1.1539    5.0547    5.8976 O.2       1 RES1    0.0000
     28 N2        -1.3343    6.2353    6.1102 N.pl3     1 RES1    0.0000
     29 C12        1.9861    8.7159    6.6653 C.ar      1 RES1    0.0000
     30 C13        0.7237    9.2260    6.8219 C.ar      1 RES1    0.0000
     31 H11        0.6025   10.1182    7.0539 H         1 RES1    0.0000
     32 C14       -0.3624    8.4030    6.6311 C.ar      1 RES1    0.0000
     33 H12       -1.2268    8.7341    6.7230 H         1 RES1    0.0000
     34 C15       -0.1555    7.0938    6.3047 C.ar      1 RES1    0.0000
     35 C16        1.0979    6.5632    6.1594 C.ar      1 RES1    0.0000
     36 H13        1.2134    5.6670    5.9399 H         1 RES1    0.0000
     37 C17        2.1817    7.3880    6.3468 C.ar      1 RES1    0.0000
     38 H14        3.0442    7.0522    6.2584 H         1 RES1    0.0000
@<TRIPOS>BOND
     1    1    9 2
     2    2   12 1
     3    3   13 1
     4    4    5 1
     5    5    6 1
     6    7    5 2
     7    8    7 1
     8    9    7 1
     9   10   11 1
    10   12   10 ar
    11   13   12 ar
    12   14   13 ar
    13   15   14 1
    14   16    2 1
    15   17   16 1
    16   18   16 1
    17   19   16 1
    18   20    3 1
    19   21   20 1
    20   22   20 1
    21   23   20 1
    22   24    9 1
    23   25    4 1
    24   26   28 2
    25   27   28 2
    26   28   34 1
    27   29    4 1
    28   30   29 ar
    29   31   30 1
    30   32   30 ar
    31   33   32 1
    32   34   32 ar
    33   35   34 ar
    34   36   35 1
    35   37   29 ar
    36   38   37 1
    37   10   24 ar
    38   14   25 ar
    39   24   25 ar
    40   35   37 ar
@<TRIPOS>SUBSTRUCTURE
     1 RES1 1

@<TRIPOS>CRYSIN
   8.3736   11.7694   15.5623  90.0000  93.2510  90.0000 231 1

