# MOL2 file generated by ConQuest
# Please check atom types

@<TRIPOS>MOLECULE
XAMJUT
    34    35     1
SMALL
NO_CHARGES
****
Generated from CSD

@<TRIPOS>ATOM
      1 O1         3.3238   10.2221   12.8065 O.3       1 RES1    0.0000
      2 O2         2.8684   11.0062   10.2968 O.3       1 RES1    0.0000
      3 O3        10.4705   18.5468   15.1425 O.2       1 RES1    0.0000
      4 O4         9.3780   18.0098   13.3486 O.2       1 RES1    0.0000
      5 N1         6.5709   14.0089   14.6586 N.2       1 RES1    0.0000
      6 N2         7.0531   13.7457   17.3268 N.3       1 RES1    0.0000
      7 N3         9.6443   17.8498   14.5502 N.pl3     1 RES1    0.0000
      8 C1         4.9740   13.7513   11.4023 C.ar      1 RES1    0.0000
      9 H1         5.3294   14.5595   11.0532 H         1 RES1    0.0000
     10 C2         4.1564   12.9578   10.6059 C.ar      1 RES1    0.0000
     11 H2         3.9614   13.2204    9.7139 H         1 RES1    0.0000
     12 C3         3.6276   11.7865   11.1123 C.ar      1 RES1    0.0000
     13 C4         3.9125   11.4043   12.4367 C.ar      1 RES1    0.0000
     14 C5         4.7288   12.1866   13.2370 C.ar      1 RES1    0.0000
     15 H3         4.9160   11.9276   14.1320 H         1 RES1    0.0000
     16 C6         5.2774   13.3724   12.7081 C.ar      1 RES1    0.0000
     17 C7         6.1572   14.2404   13.4710 C.2       1 RES1    0.0000
     18 H4         6.4478   15.0436   13.0556 H         1 RES1    0.0000
     19 C8         7.4518   14.9388   15.2626 C.ar      1 RES1    0.0000
     20 C9         7.6651   14.7856   16.6545 C.ar      1 RES1    0.0000
     21 C10        8.5366   15.6580   17.3288 C.ar      1 RES1    0.0000
     22 H5         8.6787   15.5503   18.2624 H         1 RES1    0.0000
     23 C11        9.1887   16.6702   16.6533 C.ar      1 RES1    0.0000
     24 H6         9.7784   17.2592   17.1089 H         1 RES1    0.0000
     25 C12        8.9597   16.8053   15.2871 C.ar      1 RES1    0.0000
     26 C13        8.1126   15.9584   14.5933 C.ar      1 RES1    0.0000
     27 H7         7.9841   16.0750   13.6599 H         1 RES1    0.0000
     28 C14        3.5688    9.7889   14.1415 C.3       1 RES1    0.0000
     29 H8         3.0948    8.9463   14.3034 H         1 RES1    0.0000
     30 H9         3.2493   10.4686   14.7703 H         1 RES1    0.0000
     31 H10        4.5306    9.6520   14.2694 H         1 RES1    0.0000
     32 H11        6.3676   13.3685   16.9375 H         1 RES1    0.0000
     33 H12        2.3926   10.4053   10.6464 H         1 RES1    0.0000
     34 H13        6.9097   13.8775   18.1931 H         1 RES1    0.0000
@<TRIPOS>BOND
     1    1   13 1
     2    2   12 1
     3    3    7 2
     4    4    7 2
     5    5   17 2
     6    6   20 1
     7    7   25 1
     8    8    9 1
     9   10    8 ar
    10   11   10 1
    11   12   10 ar
    12   13   12 ar
    13   14   13 ar
    14   15   14 1
    15   16    8 ar
    16   17   16 1
    17   18   17 1
    18   19    5 1
    19   20   19 ar
    20   21   20 ar
    21   22   21 1
    22   23   21 ar
    23   24   23 1
    24   25   23 ar
    25   26   19 ar
    26   27   26 1
    27   28    1 1
    28   29   28 1
    29   30   28 1
    30   31   28 1
    31   32    6 1
    32   33    2 1
    33   34    6 1
    34   14   16 ar
    35   25   26 ar
@<TRIPOS>SUBSTRUCTURE
     1 RES1 1

