# MOL2 file generated by ConQuest
# Please check atom types

@<TRIPOS>MOLECULE
XAQDIF
    76    83     1
SMALL
NO_CHARGES
****
Generated from CSD

@<TRIPOS>ATOM
      1 O1       -16.4729   -3.2920   -4.9981 O.3       1 RES1    0.0000
      2 O2       -25.5173   -1.0885    1.7265 O.2       1 RES1    0.0000
      3 O3       -17.2040   -1.2016   -0.0788 O.3       1 RES1    0.0000
      4 H1       -17.1074   -0.3983    0.0565 H         1 RES1    0.0000
      5 N1       -18.3195   -1.4058   -0.8816 N.pl3     1 RES1    0.0000
      6 O4       -22.5311    0.3406   -2.0689 O.3       1 RES1    0.0000
      7 N2       -22.7085   -2.9791    2.1126 N.am      1 RES1    0.0000
      8 N3       -23.8209   -1.4125    0.2326 N.am      1 RES1    0.0000
      9 H2       -24.2900   -1.2349   -0.4665 H         1 RES1    0.0000
     10 O5       -21.8236   -4.1530    0.3495 O.2       1 RES1    0.0000
     11 C1       -18.7839   -3.0779   -4.6121 C.ar      1 RES1    0.0000
     12 H3       -18.9443   -3.4685   -5.4409 H         1 RES1    0.0000
     13 O6       -24.4735   -0.8466   -5.3857 O.2       1 RES1    0.0000
     14 C2       -24.3514   -1.3625    1.4624 C.2       1 RES1    0.0000
     15 C3       -22.6330   -0.9587   -2.3350 C.2       1 RES1    0.0000
     16 O7       -23.3501   -2.6729   -3.6740 O.3       1 RES1    0.0000
     17 H4       -23.9232   -2.8171   -4.2420 H         1 RES1    0.0000
     18 C4       -14.8022   -2.3911   -3.4928 C.2       1 RES1    0.0000
     19 H5       -13.9049   -2.3988   -3.2499 H         1 RES1    0.0000
     20 C5       -20.0354   -0.9464    0.9689 C.3       1 RES1    0.0000
     21 C6       -18.2656   -1.9084   -2.1371 C.ar      1 RES1    0.0000
     22 C7       -19.6247   -1.3259   -0.4344 C.2       1 RES1    0.0000
     23 C8       -15.1932   -2.5952   -4.9372 C.3       1 RES1    0.0000
     24 C9       -21.5795   -0.7190    0.9278 C.3       1 RES1    0.0000
     25 H6       -21.7261    0.1365    0.4742 H         1 RES1    0.0000
     26 C10      -17.1623   -2.2879   -2.9351 C.ar      1 RES1    0.0000
     27 C11      -19.8505   -2.7206   -3.7742 C.ar      1 RES1    0.0000
     28 H7       -20.7246   -2.8771   -4.0467 H         1 RES1    0.0000
     29 C12      -23.2904   -1.6776    2.4994 C.3       1 RES1    0.0000
     30 C13      -20.4394   -1.7553   -1.4251 C.2       1 RES1    0.0000
     31 C14      -22.2718   -3.0956    0.8623 C.2       1 RES1    0.0000
     32 C15      -15.7413   -2.1991   -2.5663 C.2       1 RES1    0.0000
     33 H8       -15.4996   -2.0105   -1.6886 H         1 RES1    0.0000
     34 C16      -23.7762   -1.9406    3.9310 C.3       1 RES1    0.0000
     35 H9       -23.6314   -1.1628    4.4939 H         1 RES1    0.0000
     36 H10      -24.7201   -2.1625    3.9413 H         1 RES1    0.0000
     37 C17      -22.3886   -1.7908    0.1362 C.3       1 RES1    0.0000
     38 C18      -14.2117   -3.4829   -5.6311 C.3       1 RES1    0.0000
     39 H11      -14.5767   -3.7625   -6.4741 H         1 RES1    0.0000
     40 H12      -14.0386   -4.2551   -5.0863 H         1 RES1    0.0000
     41 H13      -13.3939   -3.0036   -5.7776 H         1 RES1    0.0000
     42 C19      -19.4171    0.3883    1.4020 C.3       1 RES1    0.0000
     43 H14      -19.6627    1.0729    0.7749 H         1 RES1    0.0000
     44 H15      -18.4602    0.3051    1.4251 H         1 RES1    0.0000
     45 H16      -19.7408    0.6225    2.2746 H         1 RES1    0.0000
     46 C20      -23.8805   -0.3906   -4.3307 C.2       1 RES1    0.0000
     47 C21      -19.6045   -2.1303   -2.5367 C.ar      1 RES1    0.0000
     48 C22      -22.2120   -0.5903    2.3414 C.3       1 RES1    0.0000
     49 H17      -21.5300   -0.7001    3.0212 H         1 RES1    0.0000
     50 H18      -22.6105    0.2885    2.4480 H         1 RES1    0.0000
     51 C23      -17.4772   -2.8382   -4.1752 C.ar      1 RES1    0.0000
     52 C24      -23.2899   -1.3947   -3.4337 C.2       1 RES1    0.0000
     53 C25      -19.5631   -2.0571    1.9237 C.3       1 RES1    0.0000
     54 H19      -18.6091   -2.0127    2.0201 H         1 RES1    0.0000
     55 H20      -19.8113   -2.9126    1.5665 H         1 RES1    0.0000
     56 H21      -19.9769   -1.9384    2.7822 H         1 RES1    0.0000
     57 C26      -15.3393   -1.2660   -5.6466 C.3       1 RES1    0.0000
     58 H22      -15.9651   -0.7157   -5.1685 H         1 RES1    0.0000
     59 H23      -15.6636   -1.4136   -6.5384 H         1 RES1    0.0000
     60 H24      -14.4880   -0.8266   -5.6812 H         1 RES1    0.0000
     61 C27      -23.7446    0.9376   -4.0017 C.2       1 RES1    0.0000
     62 H25      -24.1309    1.5933   -4.5375 H         1 RES1    0.0000
     63 C28      -22.9347   -3.1234    4.4103 C.3       1 RES1    0.0000
     64 H26      -22.0691   -2.8271    4.7367 H         1 RES1    0.0000
     65 H27      -23.3887   -3.6127    5.1145 H         1 RES1    0.0000
     66 C29      -23.0627    1.2826   -2.9068 C.2       1 RES1    0.0000
     67 C30      -22.7862   -3.9722    3.1625 C.3       1 RES1    0.0000
     68 H28      -21.9786   -4.5103    3.1972 H         1 RES1    0.0000
     69 H29      -23.5510   -4.5547    3.0392 H         1 RES1    0.0000
     70 C31      -21.9259   -1.9462   -1.3339 C.3       1 RES1    0.0000
     71 H30      -22.1311   -2.8615   -1.6179 H         1 RES1    0.0000
     72 O8       -23.8716    3.4207   -2.9672 O.3       1 RES1    0.0000
     73 H31      -24.2030    3.8379   -2.3452 H         1 RES1    0.0000
     74 C32      -22.8429    2.6241   -2.4943 C.3       1 RES1    0.0000
     75 H32      -22.8125    2.6685   -1.5254 H         1 RES1    0.0000
     76 H33      -21.9953    2.9414   -2.8413 H         1 RES1    0.0000
@<TRIPOS>BOND
     1    1   23 1
     2    2   14 2
     3    3    4 1
     4    5    3 1
     5    6   15 1
     6    7   29 1
     7    8    9 1
     8   10   31 2
     9   11   12 1
    10   13   46 2
    11   14    8 1
    12   15   52 2
    13   16   17 1
    14   18   19 1
    15   20   22 1
    16   21    5 1
    17   22    5 1
    18   23   18 1
    19   24   20 1
    20   25   24 1
    21   26   21 ar
    22   27   11 ar
    23   28   27 1
    24   29   14 1
    25   30   22 2
    26   31    7 1
    27   32   18 2
    28   33   32 1
    29   34   29 1
    30   35   34 1
    31   36   34 1
    32   37    8 1
    33   38   23 1
    34   39   38 1
    35   40   38 1
    36   41   38 1
    37   42   20 1
    38   43   42 1
    39   44   42 1
    40   45   42 1
    41   46   52 1
    42   47   21 ar
    43   48   24 1
    44   49   48 1
    45   50   48 1
    46   51    1 1
    47   52   16 1
    48   53   20 1
    49   54   53 1
    50   55   53 1
    51   56   53 1
    52   57   23 1
    53   58   57 1
    54   59   57 1
    55   60   57 1
    56   61   46 1
    57   62   61 1
    58   63   34 1
    59   64   63 1
    60   65   63 1
    61   66    6 1
    62   67    7 1
    63   68   67 1
    64   69   67 1
    65   70   15 1
    66   71   70 1
    67   72   73 1
    68   74   66 1
    69   75   74 1
    70   76   74 1
    71   11   51 ar
    72   24   37 1
    73   26   32 1
    74   26   51 ar
    75   27   47 ar
    76   29   48 1
    77   30   47 1
    78   30   70 1
    79   31   37 1
    80   37   70 1
    81   61   66 2
    82   63   67 1
    83   72   74 1
@<TRIPOS>SUBSTRUCTURE
     1 RES1 1

@<TRIPOS>CRYSIN
  25.6780   11.0955   19.5640  90.0000 138.9400  90.0000   5 1

