# MOL2 file generated by ConQuest
# Please check atom types

@<TRIPOS>MOLECULE
XAQTUF
    34    36     1
SMALL
NO_CHARGES
****
Generated from CSD

@<TRIPOS>ATOM
      1 O1         7.1926    5.5700    3.4577 O.3       1 RES1    0.0000
      2 O2         5.8615    1.7618    4.0792 O.2       1 RES1    0.0000
      3 O3         4.0301    3.6232    0.8812 O.2       1 RES1    0.0000
      4 O4         3.5811    1.5177    0.2535 O.3       1 RES1    0.0000
      5 N1         6.6938    4.3295    3.8063 N.2       1 RES1    0.0000
      6 N2         4.8773    1.7854    2.0648 N.am      1 RES1    0.0000
      7 C1         5.6266    2.3909    3.0659 C.2       1 RES1    0.0000
      8 C2         6.1610    3.7449    2.8100 C.2       1 RES1    0.0000
      9 C3         4.4927    0.3731    2.1011 C.3       1 RES1    0.0000
     10 C4         4.0449    0.1838    0.6529 C.3       1 RES1    0.0000
     11 C5         2.9692   -0.9148    0.7196 C.3       1 RES1    0.0000
     12 C6         3.1037   -1.3668    2.1836 C.3       1 RES1    0.0000
     13 C7         4.5128   -1.9835    2.3700 C.3       1 RES1    0.0000
     14 C8         5.4866   -0.7531    2.3794 C.3       1 RES1    0.0000
     15 C9         3.2326   -0.0236    2.9472 C.3       1 RES1    0.0000
     16 C10        3.4911   -0.2099    4.4468 C.3       1 RES1    0.0000
     17 C11        2.0384    0.9268    2.8164 C.3       1 RES1    0.0000
     18 C12        4.1683    2.4410    1.0397 C.2       1 RES1    0.0000
     19 H1         7.4993    5.9324    4.2406 H         1 RES1    0.0000
     20 H2         6.0993    4.1145    1.9621 H         1 RES1    0.0000
     21 H3         4.7408   -0.0338    0.0400 H         1 RES1    0.0000
     22 H4         3.1536   -1.6063    0.0641 H         1 RES1    0.0000
     23 H5         2.0793   -0.5070    0.4905 H         1 RES1    0.0000
     24 H6         2.3912   -1.9416    2.5027 H         1 RES1    0.0000
     25 H7         4.6784   -2.5882    1.6658 H         1 RES1    0.0000
     26 H8         4.6022   -2.4886    3.2475 H         1 RES1    0.0000
     27 H9         6.1478   -0.7871    1.6338 H         1 RES1    0.0000
     28 H10        5.9468   -0.6368    3.2535 H         1 RES1    0.0000
     29 H11        3.6526    0.6582    4.8853 H         1 RES1    0.0000
     30 H12        4.2834   -0.7026    4.6210 H         1 RES1    0.0000
     31 H13        2.7170   -0.7204    4.8492 H         1 RES1    0.0000
     32 H14        1.2822    0.5603    3.3736 H         1 RES1    0.0000
     33 H15        1.7397    1.0406    1.9121 H         1 RES1    0.0000
     34 H16        2.2734    1.8322    3.1934 H         1 RES1    0.0000
@<TRIPOS>BOND
     1    1    5 1
     2    2    7 2
     3    3   18 2
     4    4   10 1
     5    5    8 2
     6    6    7 1
     7    7    8 1
     8    8   20 1
     9    9    6 1
    10   10    9 1
    11   11   10 1
    12   12   11 1
    13   13   12 1
    14   14    9 1
    15   15    9 1
    16   16   15 1
    17   17   15 1
    18   18    4 1
    19   19    1 1
    20   21   10 1
    21   22   11 1
    22   23   11 1
    23   24   12 1
    24   25   13 1
    25   26   13 1
    26   27   14 1
    27   28   14 1
    28   29   16 1
    29   30   16 1
    30   31   16 1
    31   32   17 1
    32   33   17 1
    33   34   17 1
    34    6   18 1
    35   12   15 1
    36   13   14 1
@<TRIPOS>SUBSTRUCTURE
     1 RES1 1

@<TRIPOS>CRYSIN
   6.9310    8.8942   20.0216  90.0000  90.0000  90.0000  19 1

