# MOL2 file generated by ConQuest
# Please check atom types

@<TRIPOS>MOLECULE
XARBOH
    52    51     2
SMALL
NO_CHARGES
****
Generated from CSD

@<TRIPOS>ATOM
      1 O1         5.2839    0.6694    8.9253 O.2       1 RES1    0.0000
      2 O2         7.5335    2.2275    5.2459 O.2       1 RES1    0.0000
      3 N1         9.7237   -4.6131    7.6661 N.2       1 RES1    0.0000
      4 N2         5.7049    1.3992    7.9753 N.pl3     1 RES1    0.0000
      5 N3         6.7278    2.1115    6.2018 N.3       1 RES1    0.0000
      6 C1        12.2238   -7.9905    7.2752 C.ar      1 RES1    0.0000
      7 C2        10.9029   -8.1128    7.6924 C.ar      1 RES1    0.0000
      8 C3        10.1096   -7.0032    7.8159 C.ar      1 RES1    0.0000
      9 C4        10.5832   -5.7227    7.5037 C.ar      1 RES1    0.0000
     10 C5        11.9114   -5.6067    7.1022 C.ar      1 RES1    0.0000
     11 C6        12.6988   -6.7274    6.9864 C.ar      1 RES1    0.0000
     12 C7         9.7488   -3.7190    6.7842 C.2       1 RES1    0.0000
     13 C8         8.9350   -2.4833    6.8834 C.ar      1 RES1    0.0000
     14 C9         8.2518   -2.1417    8.0483 C.ar      1 RES1    0.0000
     15 C10        7.5041   -1.0037    8.1183 C.ar      1 RES1    0.0000
     16 C11        7.4121   -0.1635    7.0020 C.ar      1 RES1    0.0000
     17 C12        8.0820   -0.5051    5.8391 C.ar      1 RES1    0.0000
     18 C13        8.8277   -1.6576    5.7681 C.ar      1 RES1    0.0000
     19 C14        6.6336    1.0932    7.0759 C.2       1 RES1    0.0000
     20 C15        5.2604    2.8385    7.8694 C.3       1 RES1    0.0000
     21 C16        6.1212    3.6075    8.8670 C.3       1 RES1    0.0000
     22 C17        3.7880    2.9518    8.2437 C.3       1 RES1    0.0000
     23 C18        5.5998    3.0970    6.3875 C.3       1 RES1    0.0000
     24 C19        4.5391    2.6577    5.3830 C.3       1 RES1    0.0000
     25 C20        6.0810    4.5017    6.0598 C.3       1 RES1    0.0000
     26 C21       13.1164   -9.2088    7.1683 C.3       1 RES1    0.0000
     27 H1        13.8932   -9.0234    6.6899 H         1 RES1    0.0000
     28 H2        13.3896   -9.5714    8.1484 H         1 RES1    0.0000
     29 H3        12.6030   -9.9641    7.2150 H         1 RES1    0.0000
     30 H4         9.1454   -7.1146    8.1582 H         1 RES1    0.0000
     31 H5        13.5794   -6.5666    6.5537 H         1 RES1    0.0000
     32 H6        12.3652   -4.5756    6.9232 H         1 RES1    0.0000
     33 H7        10.4668   -9.0873    8.0901 H         1 RES1    0.0000
     34 H8        10.3214   -3.6441    5.7564 H         1 RES1    0.0000
     35 H9         8.3147   -2.8860    8.8388 H         1 RES1    0.0000
     36 H10        7.0520   -0.7215    9.0333 H         1 RES1    0.0000
     37 H11        7.9935    0.1735    5.0174 H         1 RES1    0.0000
     38 H12        6.0272    3.2787    9.8209 H         1 RES1    0.0000
     39 H13        5.9586    4.5026    8.6346 H         1 RES1    0.0000
     40 H14        7.0520    3.5710    8.7318 H         1 RES1    0.0000
     41 H15        3.3903    2.7125    7.5164 H         1 RES1    0.0000
     42 H16        3.8411    3.3153    9.1208 H         1 RES1    0.0000
     43 H17        3.4746    3.9181    7.9248 H         1 RES1    0.0000
     44 H18        5.0230    2.8130    4.5798 H         1 RES1    0.0000
     45 H19        4.1247    1.8814    5.6786 H         1 RES1    0.0000
     46 H20        3.6609    3.0322    5.5425 H         1 RES1    0.0000
     47 H21        6.7007    4.5939    6.6607 H         1 RES1    0.0000
     48 H22        6.1883    4.4934    5.1438 H         1 RES1    0.0000
     49 H23        5.3488    5.1875    6.3690 H         1 RES1    0.0000
     50 H24        9.6376    2.0367    3.9381 Du        2 SUP2    0.0000
     51 H25        7.6453    0.8402    0.1167 Du        2 SUP2    0.0000
     52 H26        7.1883    2.4933    4.1715 Du        2 SUP2    0.0000
@<TRIPOS>BOND
     1    1    4 1
     2    2    5 1
     3    3    9 1
     4    4   19 2
     5    5   19 1
     6    6    7 ar
     7    7    8 ar
     8    8    9 ar
     9    9   10 ar
    10   10   11 ar
    11   11    6 ar
    12   12    3 2
    13   13   12 1
    14   14   13 ar
    15   15   14 ar
    16   16   15 ar
    17   17   16 ar
    18   18   13 ar
    19   19   16 1
    20   20    4 1
    21   21   20 1
    22   22   20 1
    23   23    5 1
    24   24   23 1
    25   25   23 1
    26   26    6 1
    27   27   26 1
    28   28   26 1
    29   29   26 1
    30   30    8 1
    31   31   11 1
    32   32   10 1
    33   33    7 1
    34   34   12 1
    35   35   14 1
    36   36   15 1
    37   37   17 1
    38   38   21 1
    39   39   21 1
    40   40   21 1
    41   41   22 1
    42   42   22 1
    43   43   22 1
    44   44   24 1
    45   45   24 1
    46   46   24 1
    47   47   25 1
    48   48   25 1
    49   49   25 1
    50   17   18 ar
    51   20   23 1
@<TRIPOS>SUBSTRUCTURE
     1 RES1 1
     2 SUP2 50

@<TRIPOS>CRYSIN
  21.4250    9.1330    9.9420  90.0000 102.0300  90.0000 231 1

