# MOL2 file generated by ConQuest
# Please check atom types

@<TRIPOS>MOLECULE
XARMUA
    31    33     1
SMALL
NO_CHARGES
****
Generated from CSD

@<TRIPOS>ATOM
      1 O1         2.5893    6.2992    8.0514 O.2       1 RES1    0.0000
      2 O2         2.7759    8.3370    1.3188 O.2       1 RES1    0.0000
      3 O3         4.5507    8.5775    0.1037 O.2       1 RES1    0.0000
      4 N1         3.9866    8.2551    1.1449 N.pl3     1 RES1    0.0000
      5 C1         4.7324    6.1675    6.9201 C.2       1 RES1    0.0000
      6 C2         3.7787    6.0139    8.0662 C.2       1 RES1    0.0000
      7 C3         4.5523    5.4596    9.1903 C.ar      1 RES1    0.0000
      8 C4         4.1235    5.1607   10.4845 C.ar      1 RES1    0.0000
      9 H1         3.2164    5.2846   10.7409 H         1 RES1    0.0000
     10 C5         5.0540    4.6790   11.3803 C.ar      1 RES1    0.0000
     11 H2         4.7862    4.4584   12.2647 H         1 RES1    0.0000
     12 C6         6.3880    4.5134   10.9996 C.ar      1 RES1    0.0000
     13 H3         7.0178    4.1897   11.6324 H         1 RES1    0.0000
     14 C7         6.8076    4.8134    9.7084 C.ar      1 RES1    0.0000
     15 H4         7.7161    4.6983    9.4554 H         1 RES1    0.0000
     16 C8         5.8742    5.2847    8.7989 C.ar      1 RES1    0.0000
     17 C9         6.0963    5.6832    7.3563 C.3       1 RES1    0.0000
     18 H5         6.7703    6.4043    7.2850 H         1 RES1    0.0000
     19 H6         6.3907    4.9097    6.8137 H         1 RES1    0.0000
     20 C10        4.2802    6.6755    5.7645 C.2       1 RES1    0.0000
     21 H7         3.3584    6.9057    5.7664 H         1 RES1    0.0000
     22 C11        4.9719    6.9350    4.4995 C.ar      1 RES1    0.0000
     23 C12        4.2107    7.4676    3.4561 C.ar      1 RES1    0.0000
     24 H8         3.2876    7.6534    3.5816 H         1 RES1    0.0000
     25 C13        4.8169    7.7213    2.2377 C.ar      1 RES1    0.0000
     26 C14        6.1593    7.4988    2.0106 C.ar      1 RES1    0.0000
     27 H9         6.5536    7.6980    1.1690 H         1 RES1    0.0000
     28 C15        6.9136    6.9748    3.0479 C.ar      1 RES1    0.0000
     29 H10        7.8396    6.8088    2.9166 H         1 RES1    0.0000
     30 C16        6.3352    6.6905    4.2728 C.ar      1 RES1    0.0000
     31 H11        6.8681    6.3252    4.9692 H         1 RES1    0.0000
@<TRIPOS>BOND
     1    1    6 2
     2    2    4 2
     3    3    4 2
     4    4   25 1
     5    5    6 1
     6    6    7 1
     7    7    8 ar
     8    8    9 1
     9   10    8 ar
    10   11   10 1
    11   12   10 ar
    12   13   12 1
    13   14   12 ar
    14   15   14 1
    15   16    7 ar
    16   17    5 1
    17   18   17 1
    18   19   17 1
    19   20    5 2
    20   21   20 1
    21   22   20 1
    22   23   22 ar
    23   24   23 1
    24   25   23 ar
    25   26   25 ar
    26   27   26 1
    27   28   26 ar
    28   29   28 1
    29   30   22 ar
    30   31   30 1
    31   14   16 ar
    32   16   17 1
    33   28   30 ar
@<TRIPOS>SUBSTRUCTURE
     1 RES1 1

@<TRIPOS>CRYSIN
   6.7190    7.2560   13.2540  81.3900  89.7640  71.5490   2 1

