# MOL2 file generated by ConQuest
# Please check atom types

@<TRIPOS>MOLECULE
XASCAX
    43    45     1
SMALL
NO_CHARGES
****
Generated from CSD

@<TRIPOS>ATOM
      1 C1         4.2473    1.5670    2.9911 C.2       1 RES1    0.0000
      2 C2         4.5978    3.0252    2.8740 C.3       1 RES1    0.0000
      3 H1         4.4502    3.4467    3.7455 H         1 RES1    0.0000
      4 C3         6.0931    2.9151    2.6485 C.3       1 RES1    0.0000
      5 H2         6.5716    3.6132    3.1418 H         1 RES1    0.0000
      6 C4         3.7943    3.7873    1.8357 C.3       1 RES1    0.0000
      7 H3         3.8190    3.3134    1.0009 H         1 RES1    0.0000
      8 H4         4.1722    4.6618    1.7174 H         1 RES1    0.0000
      9 H5         2.8852    3.8689    2.1307 H         1 RES1    0.0000
     10 C5         2.8909    0.9829    2.9094 C.ar      1 RES1    0.0000
     11 C6         1.9768    1.1679    3.9526 C.ar      1 RES1    0.0000
     12 C7         0.7087    0.6156    3.8333 C.ar      1 RES1    0.0000
     13 H6         0.1018    0.7317    4.5280 H         1 RES1    0.0000
     14 C8         0.3175   -0.1009    2.7203 C.ar      1 RES1    0.0000
     15 C9         1.2332   -0.2591    1.7025 C.ar      1 RES1    0.0000
     16 H7         0.9817   -0.7349    0.9437 H         1 RES1    0.0000
     17 C10        2.5179    0.2658    1.7668 C.ar      1 RES1    0.0000
     18 C11        3.4734    0.0569    0.6304 C.3       1 RES1    0.0000
     19 H8         3.9158    0.8842    0.4279 H         1 RES1    0.0000
     20 H9         2.9899   -0.2450   -0.1421 H         1 RES1    0.0000
     21 H10        4.1258   -0.6027    0.8778 H         1 RES1    0.0000
     22 C12       -1.0650   -0.6984    2.6201 C.3       1 RES1    0.0000
     23 H11       -1.3061   -0.7940    1.6954 H         1 RES1    0.0000
     24 H12       -1.6956   -0.1203    3.0568 H         1 RES1    0.0000
     25 H13       -1.0737   -1.5590    3.0451 H         1 RES1    0.0000
     26 C13        2.3603    1.9114    5.1971 C.3       1 RES1    0.0000
     27 H14        3.2150    1.6009    5.5054 H         1 RES1    0.0000
     28 H15        1.7002    1.7588    5.8776 H         1 RES1    0.0000
     29 H16        2.4104    2.8504    5.0057 H         1 RES1    0.0000
     30 C14        7.6694    3.1823    0.8725 C.ar      1 RES1    0.0000
     31 C15        7.8427    3.6594   -0.4107 C.ar      1 RES1    0.0000
     32 H17        7.1045    3.8453   -0.9452 H         1 RES1    0.0000
     33 C16        9.1145    3.8592   -0.8951 C.ar      1 RES1    0.0000
     34 H18        9.2332    4.1826   -1.7585 H         1 RES1    0.0000
     35 C17       10.2064    3.5863   -0.1177 C.ar      1 RES1    0.0000
     36 H19       11.0634    3.7378   -0.4469 H         1 RES1    0.0000
     37 C18       10.0355    3.0910    1.1420 C.ar      1 RES1    0.0000
     38 H20       10.7797    2.8944    1.6647 H         1 RES1    0.0000
     39 C19        8.7644    2.8783    1.6500 C.ar      1 RES1    0.0000
     40 H21        8.6518    2.5345    2.5058 H         1 RES1    0.0000
     41 N1         5.2626    0.8082    3.1276 N.2       1 RES1    0.0000
     42 O1         6.4436    1.6264    3.1330 O.3       1 RES1    0.0000
     43 O2         6.3585    3.0082    1.2703 O.3       1 RES1    0.0000
@<TRIPOS>BOND
     1    1    2 1
     2    2    3 1
     3    4    2 1
     4    5    4 1
     5    6    2 1
     6    7    6 1
     7    8    6 1
     8    9    6 1
     9   10    1 1
    10   11   10 ar
    11   12   11 ar
    12   13   12 1
    13   14   12 ar
    14   15   14 ar
    15   16   15 1
    16   17   10 ar
    17   18   17 1
    18   19   18 1
    19   20   18 1
    20   21   18 1
    21   22   14 1
    22   23   22 1
    23   24   22 1
    24   25   22 1
    25   26   11 1
    26   27   26 1
    27   28   26 1
    28   29   26 1
    29   30   31 ar
    30   31   32 1
    31   33   31 ar
    32   34   33 1
    33   35   33 ar
    34   36   35 1
    35   37   35 ar
    36   38   37 1
    37   39   30 ar
    38   40   39 1
    39   41    1 2
    40   42    4 1
    41   43    4 1
    42   15   17 ar
    43   30   43 1
    44   37   39 ar
    45   41   42 1
@<TRIPOS>SUBSTRUCTURE
     1 RES1 1

@<TRIPOS>CRYSIN
  10.2939   10.7440   14.9224  90.0000 100.8880  90.0000  14 1

