# MOL2 file generated by ConQuest
# Please check atom types

@<TRIPOS>MOLECULE
XASCIF
    27    29     1
SMALL
NO_CHARGES
****
Generated from CSD

@<TRIPOS>ATOM
      1 C1        11.2771   -0.5579    1.8220 C.2       1 RES1    0.0000
      2 C2        11.7732   -1.3643    2.9387 C.2       1 RES1    0.0000
      3 C3        13.0344   -1.9273    2.9338 C.2       1 RES1    0.0000
      4 H1        13.6226   -1.7703    2.2301 H         1 RES1    0.0000
      5 C4        13.3974   -2.7177    3.9826 C.2       1 RES1    0.0000
      6 H2        14.2402   -3.1109    4.0036 H         1 RES1    0.0000
      7 C5        12.5173   -2.9269    5.0015 C.2       1 RES1    0.0000
      8 H3        12.7427   -3.4694    5.7231 H         1 RES1    0.0000
      9 C6        11.2951   -2.3178    4.9336 C.2       1 RES1    0.0000
     10 H4        10.7056   -2.4497    5.6415 H         1 RES1    0.0000
     11 N1        11.5593   -0.8907    0.5898 N.2       1 RES1    0.0000
     12 N2        10.8924   -1.5509    3.9269 N.2       1 RES1    0.0000
     13 O1        10.8357   -0.0000   -0.2553 O.3       1 RES1    0.0000
     14 O2        12.2885   -1.8233    0.0606 O.2       1 RES1    0.0000
     15 C1A       10.3942    0.5579    1.8220 C.2       1 RES1    0.0000
     16 C2A        9.8981    1.3643    2.9387 C.2       1 RES1    0.0000
     17 C3A        8.6369    1.9273    2.9338 C.2       1 RES1    0.0000
     18 H1A        8.0487    1.7703    2.2301 H         1 RES1    0.0000
     19 C4A        8.2739    2.7177    3.9826 C.2       1 RES1    0.0000
     20 H2A        7.4311    3.1109    4.0036 H         1 RES1    0.0000
     21 C5A        9.1540    2.9269    5.0015 C.2       1 RES1    0.0000
     22 H3A        8.9286    3.4694    5.7231 H         1 RES1    0.0000
     23 C6A       10.3762    2.3178    4.9336 C.2       1 RES1    0.0000
     24 H4A       10.9657    2.4497    5.6415 H         1 RES1    0.0000
     25 N1A       10.1120    0.8907    0.5898 N.2       1 RES1    0.0000
     26 N2A       10.7789    1.5509    3.9269 N.2       1 RES1    0.0000
     27 O2A        9.3828    1.8233    0.0606 O.2       1 RES1    0.0000
@<TRIPOS>BOND
     1    1    2 1
     2    2    3 1
     3    3    4 1
     4    5    3 1
     5    6    5 1
     6    7    5 1
     7    8    7 1
     8    9    7 1
     9   10    9 1
    10   11    1 1
    11   12    2 1
    12   13   11 1
    13   14   11 1
    14   15    1 1
    15   16   15 1
    16   17   16 1
    17   18   17 1
    18   19   17 1
    19   20   19 1
    20   21   19 1
    21   22   21 1
    22   23   21 1
    23   24   23 1
    24   25   13 1
    25   26   16 1
    26   27   25 1
    27    9   12 1
    28   15   25 1
    29   23   26 1
@<TRIPOS>SUBSTRUCTURE
     1 RES1 1

@<TRIPOS>CRYSIN
  21.6713   12.9407    8.0800  90.0000  90.0000  90.0000  43 1

