# MOL2 file generated by ConQuest
# Please check atom types

@<TRIPOS>MOLECULE
XASCIF01
    27    29     1
SMALL
NO_CHARGES
****
Generated from CSD

@<TRIPOS>ATOM
      1 O1       -10.8363   -6.4717  -17.5878 O.3       1 RES1    0.0000
      2 O2       -12.2903   -4.6466  -17.2718 O.2       1 RES1    0.0000
      3 N1       -11.5593   -5.5799  -16.7416 N.2       1 RES1    0.0000
      4 N2       -10.8935   -4.9205  -13.4030 N.2       1 RES1    0.0000
      5 C1       -11.2776   -5.9143  -15.5084 C.2       1 RES1    0.0000
      6 C2       -11.7741   -5.1090  -14.3914 C.2       1 RES1    0.0000
      7 C3       -13.0359   -4.5440  -14.3979 C.2       1 RES1    0.0000
      8 H1       -13.6234   -4.6997  -15.1010 H         1 RES1    0.0000
      9 C4       -13.3984   -3.7521  -13.3481 C.2       1 RES1    0.0000
     10 H2       -14.2411   -3.3575  -13.3279 H         1 RES1    0.0000
     11 C5       -12.5181   -3.5425  -12.3289 C.2       1 RES1    0.0000
     12 H3       -12.7413   -2.9990  -11.6080 H         1 RES1    0.0000
     13 C6       -11.2942   -4.1534  -12.3952 C.2       1 RES1    0.0000
     14 H4       -10.7041   -4.0228  -11.6880 H         1 RES1    0.0000
     15 O2A       -9.3823   -8.2967  -17.2718 O.2       1 RES1    0.0000
     16 N1A      -10.1133   -7.3634  -16.7416 N.2       1 RES1    0.0000
     17 N2A      -10.7791   -8.0228  -13.4030 N.2       1 RES1    0.0000
     18 C1A      -10.3950   -7.0290  -15.5084 C.2       1 RES1    0.0000
     19 C2A       -9.8985   -7.8343  -14.3914 C.2       1 RES1    0.0000
     20 C3A       -8.6367   -8.3993  -14.3979 C.2       1 RES1    0.0000
     21 H1A       -8.0492   -8.2436  -15.1010 H         1 RES1    0.0000
     22 C4A       -8.2742   -9.1912  -13.3481 C.2       1 RES1    0.0000
     23 H2A       -7.4315   -9.5858  -13.3279 H         1 RES1    0.0000
     24 C5A       -9.1545   -9.4008  -12.3289 C.2       1 RES1    0.0000
     25 H3A       -8.9313   -9.9443  -11.6080 H         1 RES1    0.0000
     26 C6A      -10.3784   -8.7899  -12.3952 C.2       1 RES1    0.0000
     27 H4A      -10.9685   -8.9205  -11.6880 H         1 RES1    0.0000
@<TRIPOS>BOND
     1    1    3 1
     2    2    3 1
     3    3    5 1
     4    4    6 1
     5    5    6 1
     6    6    7 1
     7    7    8 1
     8    9    7 1
     9   10    9 1
    10   11    9 1
    11   12   11 1
    12   13    4 1
    13   14   13 1
    14   15   16 1
    15   16    1 1
    16   17   19 1
    17   18    5 1
    18   19   18 1
    19   20   19 1
    20   21   20 1
    21   22   20 1
    22   23   22 1
    23   24   22 1
    24   25   24 1
    25   26   17 1
    26   27   26 1
    27   11   13 1
    28   16   18 1
    29   24   26 1
@<TRIPOS>SUBSTRUCTURE
     1 RES1 1

@<TRIPOS>CRYSIN
  21.6726   12.9433    8.0819  90.0000  90.0000  90.0000  43 1

