# MOL2 file generated by ConQuest
# Please check atom types

@<TRIPOS>MOLECULE
XATFIJ
    37    38     1
SMALL
NO_CHARGES
****
Generated from CSD

@<TRIPOS>ATOM
      1 C1         1.0862   -0.2182    1.4200 C.2       1 RES1    0.0000
      2 H1         0.5386    0.5346    1.1658 H         1 RES1    0.0000
      3 H2         1.1445   -0.4965    2.3577 H         1 RES1    0.0000
      4 C2         1.7442   -0.8860    0.5224 C.2       1 RES1    0.0000
      5 C3         2.4074   -1.5347   -0.4034 C.2       1 RES1    0.0000
      6 C4         1.8506   -2.6918   -1.1959 C.3       1 RES1    0.0000
      7 H3         0.9142   -2.8407   -0.9462 H         1 RES1    0.0000
      8 H4         2.3544   -3.5058   -0.9863 H         1 RES1    0.0000
      9 C5         1.9413   -2.4059   -2.6968 C.3       1 RES1    0.0000
     10 H5         1.6592   -3.2003   -3.1958 H         1 RES1    0.0000
     11 H6         1.3321   -1.6727   -2.9240 H         1 RES1    0.0000
     12 C6         3.3527   -2.0306   -3.1061 C.3       1 RES1    0.0000
     13 H7         3.3654   -1.8134   -4.0619 H         1 RES1    0.0000
     14 H8         3.9452   -2.7976   -2.9623 H         1 RES1    0.0000
     15 C7         3.8727   -0.8358   -2.3112 C.3       1 RES1    0.0000
     16 H9         4.7992   -0.6476   -2.5685 H         1 RES1    0.0000
     17 H10        3.3320   -0.0442   -2.5145 H         1 RES1    0.0000
     18 C8         3.8051   -1.1304   -0.8253 C.3       1 RES1    0.0000
     19 H11        4.4371   -1.8598   -0.6064 H         1 RES1    0.0000
     20 C9         5.4111    0.2106    0.3419 C.2       1 RES1    0.0000
     21 C10        5.5404    1.3846    1.2658 C.ar      1 RES1    0.0000
     22 C11        6.8025    1.9411    1.4639 C.ar      1 RES1    0.0000
     23 H12        7.5632    1.5728    1.0508 H         1 RES1    0.0000
     24 C12        6.9058    3.0459    2.2819 C.ar      1 RES1    0.0000
     25 C13        5.8244    3.6007    2.9467 C.ar      1 RES1    0.0000
     26 H13        5.9206    4.3487    3.5078 H         1 RES1    0.0000
     27 C14        4.5960    2.9995    2.7431 C.ar      1 RES1    0.0000
     28 C15        4.4153    1.9116    1.9128 C.ar      1 RES1    0.0000
     29 H14        3.5636    1.5358    1.7861 H         1 RES1    0.0000
     30 N1         8.2106    3.7273    2.3998 N.pl3     1 RES1    0.0000
     31 N2         3.4080    3.5691    3.4269 N.pl3     1 RES1    0.0000
     32 O1         4.1448    0.0518   -0.0464 O.3       1 RES1    0.0000
     33 O2         6.3290   -0.4959    0.0326 O.2       1 RES1    0.0000
     34 O3         9.1607    3.2510    1.8006 O.2       1 RES1    0.0000
     35 O4         8.2596    4.7486    3.0754 O.2       1 RES1    0.0000
     36 O5         3.5473    4.6340    4.0075 O.2       1 RES1    0.0000
     37 O6         2.3657    2.9428    3.3657 O.2       1 RES1    0.0000
@<TRIPOS>BOND
     1    1    2 1
     2    3    1 1
     3    4    1 2
     4    5    4 2
     5    6    5 1
     6    7    6 1
     7    8    6 1
     8    9    6 1
     9   10    9 1
    10   11    9 1
    11   12    9 1
    12   13   12 1
    13   14   12 1
    14   15   12 1
    15   16   15 1
    16   17   15 1
    17   18    5 1
    18   19   18 1
    19   20   21 1
    20   21   22 ar
    21   22   23 1
    22   24   22 ar
    23   25   24 ar
    24   26   25 1
    25   27   25 ar
    26   28   21 ar
    27   29   28 1
    28   30   24 1
    29   31   27 1
    30   32   18 1
    31   33   20 2
    32   34   30 2
    33   35   30 2
    34   36   31 2
    35   37   31 2
    36   15   18 1
    37   20   32 1
    38   27   28 ar
@<TRIPOS>SUBSTRUCTURE
     1 RES1 1

@<TRIPOS>CRYSIN
  15.6674    5.4556   18.5311  90.0000 109.8910  90.0000  14 1

