# MOL2 file generated by ConQuest
# Please check atom types

@<TRIPOS>MOLECULE
XATHOR
    34    36     1
SMALL
NO_CHARGES
****
Generated from CSD

@<TRIPOS>ATOM
      1 O1        -1.9518    4.1394   -2.5444 O.2       1 RES1    0.0000
      2 O2        -3.1159    4.3324   -0.7496 O.2       1 RES1    0.0000
      3 N1        -2.1141    4.5621   -1.4194 N.pl3     1 RES1    0.0000
      4 N2        -0.2238    7.3228    2.2005 N.2       1 RES1    0.0000
      5 N3         1.6989    7.7115    1.0935 N.pl3     1 RES1    0.0000
      6 C1         1.1164    6.3668   -1.0115 C.ar      1 RES1    0.0000
      7 H1         1.9040    6.5131   -1.4855 H         1 RES1    0.0000
      8 C2         0.1055    5.5954   -1.5341 C.ar      1 RES1    0.0000
      9 H2         0.2064    5.2085   -2.3748 H         1 RES1    0.0000
     10 C3        -1.0595    5.3905   -0.8194 C.ar      1 RES1    0.0000
     11 C4        -1.2773    5.9237    0.4253 C.ar      1 RES1    0.0000
     12 H3        -2.0696    5.7723    0.8868 H         1 RES1    0.0000
     13 C5        -0.2670    6.6934    0.9616 C.ar      1 RES1    0.0000
     14 C6         0.9402    7.9054    2.2401 C.2       1 RES1    0.0000
     15 C7         1.4802    8.7542    3.3239 C.3       1 RES1    0.0000
     16 H4         1.0855    8.4769    4.1658 H         1 RES1    0.0000
     17 H5         1.2161    9.6736    3.1630 H         1 RES1    0.0000
     18 C8         3.0022    8.6896    3.4461 C.3       1 RES1    0.0000
     19 C9         3.5790    8.7542    2.0654 C.2       1 RES1    0.0000
     20 H6         4.3942    9.1880    1.9632 H         1 RES1    0.0000
     21 C10        3.0202    8.2405    0.9791 C.2       1 RES1    0.0000
     22 C11        0.9217    6.9222    0.2494 C.ar      1 RES1    0.0000
     23 C12        3.6456    8.2073   -0.3605 C.3       1 RES1    0.0000
     24 H7         4.5262    8.5849   -0.3118 H         1 RES1    0.0000
     25 H8         3.1118    8.7168   -0.9753 H         1 RES1    0.0000
     26 H9         3.7035    7.2981   -0.6635 H         1 RES1    0.0000
     27 C13        3.4129    7.3653    4.1047 C.3       1 RES1    0.0000
     28 H10        3.1111    6.6322    3.5634 H         1 RES1    0.0000
     29 H11        3.0171    7.3049    4.9765 H         1 RES1    0.0000
     30 H12        4.3697    7.3313    4.1845 H         1 RES1    0.0000
     31 C14        3.4941    9.8581    4.3043 C.3       1 RES1    0.0000
     32 H13        3.2486   10.6874    3.8877 H         1 RES1    0.0000
     33 H14        4.4489    9.8122    4.3891 H         1 RES1    0.0000
     34 H15        3.0938    9.8063    5.1748 H         1 RES1    0.0000
@<TRIPOS>BOND
     1    1    3 2
     2    2    3 2
     3    3   10 1
     4    4   13 1
     5    5   14 1
     6    6    7 1
     7    8    6 ar
     8    9    8 1
     9   10    8 ar
    10   11   10 ar
    11   12   11 1
    12   13   11 ar
    13   14    4 2
    14   15   14 1
    15   16   15 1
    16   17   15 1
    17   18   15 1
    18   19   18 1
    19   20   19 1
    20   21    5 1
    21   22    5 1
    22   23   21 1
    23   24   23 1
    24   25   23 1
    25   26   23 1
    26   27   18 1
    27   28   27 1
    28   29   27 1
    29   30   27 1
    30   31   18 1
    31   32   31 1
    32   33   31 1
    33   34   31 1
    34    6   22 ar
    35   13   22 ar
    36   19   21 2
@<TRIPOS>SUBSTRUCTURE
     1 RES1 1

@<TRIPOS>CRYSIN
  12.3710    8.5050   13.4870  90.0000 112.3650  90.0000  14 1

