# MOL2 file generated by ConQuest
# Please check atom types

@<TRIPOS>MOLECULE
XATWIA
    82    84     1
SMALL
NO_CHARGES
****
Generated from CSD

@<TRIPOS>ATOM
      1 O1         1.9611   -1.6780   18.5706 O.2       1 RES1    0.0000
      2 O2         0.3786   -1.3367   20.0141 O.2       1 RES1    0.0000
      3 O3         0.4658    4.2277   17.1727 O.3       1 RES1    0.0000
      4 O4         1.4380    4.5108   20.8726 O.2       1 RES1    0.0000
      5 O5        -0.2920    1.6056   13.5069 O.2       1 RES1    0.0000
      6 O6         0.3347    3.7972   13.4185 O.3       1 RES1    0.0000
      7 O7         2.4883    6.8898   17.8596 O.3       1 RES1    0.0000
      8 O8         5.5751    3.4982   13.5827 O.3       1 RES1    0.0000
      9 N1         1.1104   -0.9653   19.0988 N.pl3     1 RES1    0.0000
     10 N2         0.2888    5.9893   19.5980 N.am      1 RES1    0.0000
     11 N3        -1.0580    3.1073   15.0249 N.am      1 RES1    0.0000
     12 C1         0.9583    0.4070   18.5986 C.ar      1 RES1    0.0000
     13 C2         0.2695    1.3156   19.3849 C.ar      1 RES1    0.0000
     14 H1        -0.0910    1.0447   20.2216 H         1 RES1    0.0000
     15 C3         0.1083    2.6245   18.9462 C.ar      1 RES1    0.0000
     16 C4         0.6039    2.9635   17.6743 C.ar      1 RES1    0.0000
     17 C5         1.3292    2.0412   16.9163 C.ar      1 RES1    0.0000
     18 H2         1.6925    2.2997   16.0784 H         1 RES1    0.0000
     19 C6         1.5209    0.7515   17.3818 C.ar      1 RES1    0.0000
     20 H3         2.0246    0.1204   16.8799 H         1 RES1    0.0000
     21 C7        -0.5183    3.6522   19.8636 C.3       1 RES1    0.0000
     22 H4        -0.7853    3.2209   20.7139 H         1 RES1    0.0000
     23 H5        -1.3304    4.0265   19.4398 H         1 RES1    0.0000
     24 C8         0.4733    4.7715   20.1466 C.2       1 RES1    0.0000
     25 C9        -0.9309    6.3848   18.8761 C.3       1 RES1    0.0000
     26 H6        -1.0806    7.3485   19.0421 H         1 RES1    0.0000
     27 H7        -1.6916    5.8977   19.2803 H         1 RES1    0.0000
     28 C10       -0.9868    6.1580   17.3499 C.3       1 RES1    0.0000
     29 H8        -0.2372    6.6616   16.9193 H         1 RES1    0.0000
     30 C11       -2.3234    6.7608   16.8840 C.3       1 RES1    0.0000
     31 H9        -2.3035    6.8879   15.9130 H         1 RES1    0.0000
     32 H10       -2.4633    7.6245   17.3249 H         1 RES1    0.0000
     33 H11       -3.0549    6.1529   17.1182 H         1 RES1    0.0000
     34 C12       -0.8960    4.6872   16.9417 C.3       1 RES1    0.0000
     35 H12       -1.5299    4.1469   17.4943 H         1 RES1    0.0000
     36 C13        1.2825    7.0440   19.9111 C.3       1 RES1    0.0000
     37 H13        2.0818    6.5894   20.3043 H         1 RES1    0.0000
     38 C14        0.7367    8.0032   20.9762 C.3       1 RES1    0.0000
     39 H14       -0.0145    8.5104   20.6036 H         1 RES1    0.0000
     40 H15        1.4446    8.6227   21.2515 H         1 RES1    0.0000
     41 H16        0.4318    7.4897   21.7536 H         1 RES1    0.0000
     42 C15        1.7537    7.7911   18.6784 C.3       1 RES1    0.0000
     43 H17        0.9760    8.1461   18.1796 H         1 RES1    0.0000
     44 H18        2.3277    8.5537   18.9436 H         1 RES1    0.0000
     45 C16       -1.2187    4.4945   15.4566 C.3       1 RES1    0.0000
     46 H19       -2.1515    4.7808   15.2888 H         1 RES1    0.0000
     47 H20       -0.6226    5.0728   14.9186 H         1 RES1    0.0000
     48 C17       -1.9358    2.0920   15.6102 C.3       1 RES1    0.0000
     49 H21       -2.5998    1.8118   14.9462 H         1 RES1    0.0000
     50 H22       -2.3935    2.4666   16.3915 H         1 RES1    0.0000
     51 H23       -1.4020    1.3176   15.8855 H         1 RES1    0.0000
     52 C18       -0.3297    2.7463   13.9367 C.2       1 RES1    0.0000
     53 C19        1.1688    3.6421   12.2151 C.3       1 RES1    0.0000
     54 C20        2.2711    2.6390   12.4685 C.3       1 RES1    0.0000
     55 H24        2.7305    2.8630   13.3038 H         1 RES1    0.0000
     56 H25        2.9116    2.6640   11.7265 H         1 RES1    0.0000
     57 H26        1.8852    1.7412   12.5378 H         1 RES1    0.0000
     58 C21        0.2890    3.2811   11.0265 C.3       1 RES1    0.0000
     59 H27       -0.1356    2.4120   11.1850 H         1 RES1    0.0000
     60 H28        0.8385    3.2321   10.2162 H         1 RES1    0.0000
     61 H29       -0.4028    3.9655   10.9113 H         1 RES1    0.0000
     62 C22        1.7459    5.0423   12.0487 C.3       1 RES1    0.0000
     63 H30        1.0147    5.6875   11.9490 H         1 RES1    0.0000
     64 H31        2.3151    5.0680   11.2520 H         1 RES1    0.0000
     65 H32        2.2783    5.2718   12.8391 H         1 RES1    0.0000
     66 C23        2.8683    7.4618   16.6137 C.3       1 RES1    0.0000
     67 H33        3.4538    8.2456   16.7677 H         1 RES1    0.0000
     68 H34        2.0634    7.7673   16.1257 H         1 RES1    0.0000
     69 C24        3.5998    6.4304   15.7978 C.ar      1 RES1    0.0000
     70 C25        4.4286    6.8096   14.7423 C.ar      1 RES1    0.0000
     71 H35        4.5392    7.7336   14.5503 H         1 RES1    0.0000
     72 C26        5.0989    5.8690   13.9623 C.ar      1 RES1    0.0000
     73 H36        5.6440    6.1497   13.2369 H         1 RES1    0.0000
     74 C27        4.9620    4.5208   14.2556 C.ar      1 RES1    0.0000
     75 C28        4.1451    4.1273   15.3187 C.ar      1 RES1    0.0000
     76 H37        4.0638    3.2064   15.5349 H         1 RES1    0.0000
     77 C29        3.4548    5.0664   16.0576 C.ar      1 RES1    0.0000
     78 H38        2.8728    4.7808   16.7519 H         1 RES1    0.0000
     79 C30        6.3343    3.8346   12.4240 C.3       1 RES1    0.0000
     80 H39        5.7689    4.3298   11.7954 H         1 RES1    0.0000
     81 H40        6.6578    3.0139   11.9963 H         1 RES1    0.0000
     82 H41        7.0983    4.3908   12.6836 H         1 RES1    0.0000
@<TRIPOS>BOND
     1    1    9 2
     2    2    9 2
     3    3   16 1
     4    4   24 2
     5    5   52 2
     6    6   52 1
     7    7   42 1
     8    8   74 1
     9    9   12 1
    10   10   24 1
    11   11   45 1
    12   12   13 ar
    13   13   14 1
    14   15   13 ar
    15   16   15 ar
    16   17   16 ar
    17   18   17 1
    18   19   12 ar
    19   20   19 1
    20   21   15 1
    21   22   21 1
    22   23   21 1
    23   24   21 1
    24   25   10 1
    25   26   25 1
    26   27   25 1
    27   28   25 1
    28   29   28 1
    29   30   28 1
    30   31   30 1
    31   32   30 1
    32   33   30 1
    33   34    3 1
    34   35   34 1
    35   36   10 1
    36   37   36 1
    37   38   36 1
    38   39   38 1
    39   40   38 1
    40   41   38 1
    41   42   36 1
    42   43   42 1
    43   44   42 1
    44   45   34 1
    45   46   45 1
    46   47   45 1
    47   48   11 1
    48   49   48 1
    49   50   48 1
    50   51   48 1
    51   52   11 1
    52   53    6 1
    53   54   53 1
    54   55   54 1
    55   56   54 1
    56   57   54 1
    57   58   53 1
    58   59   58 1
    59   60   58 1
    60   61   58 1
    61   62   53 1
    62   63   62 1
    63   64   62 1
    64   65   62 1
    65   66    7 1
    66   67   66 1
    67   68   66 1
    68   69   66 1
    69   70   69 ar
    70   71   70 1
    71   72   70 ar
    72   73   72 1
    73   74   72 ar
    74   75   74 ar
    75   76   75 1
    76   77   69 ar
    77   78   77 1
    78   79    8 1
    79   80   79 1
    80   81   79 1
    81   82   79 1
    82   17   19 ar
    83   28   34 1
    84   75   77 ar
@<TRIPOS>SUBSTRUCTURE
     1 RES1 1

@<TRIPOS>CRYSIN
   9.6826   16.0482   19.6919  90.0000  90.0000  90.0000  19 1

