# MOL2 file generated by ConQuest
# Please check atom types

@<TRIPOS>MOLECULE
XATWOG
    96    98     1
SMALL
NO_CHARGES
****
Generated from CSD

@<TRIPOS>ATOM
      1 O1         1.5013    2.9657   19.9412 O.3       1 RES1    0.0000
      2 O2         1.4184    6.1037   19.1769 O.2       1 RES1    0.0000
      3 O3         4.7706    7.3781   22.2050 O.3       1 RES1    0.0000
      4 O4         3.2659   10.2322   27.6682 O.3       1 RES1    0.0000
      5 O5         1.2911    4.1091   26.6521 O.2       1 RES1    0.0000
      6 O6         0.2768    6.1089   26.2347 O.3       1 RES1    0.0000
      7 N1         2.4550    5.9654   21.2089 N.am      1 RES1    0.0000
      8 N2        -0.0215    4.4012   24.8234 N.am      1 RES1    0.0000
      9 C1         1.6584    7.0844   21.7505 C.3       1 RES1    0.0000
     10 H1         1.0714    7.4206   21.0279 H         1 RES1    0.0000
     11 H2         2.2804    7.8160   21.9886 H         1 RES1    0.0000
     12 C2         0.7814    6.7878   22.9764 C.3       1 RES1    0.0000
     13 H3         1.3772    6.4632   23.7104 H         1 RES1    0.0000
     14 C3         0.1649    8.1193   23.4212 C.3       1 RES1    0.0000
     15 H4         0.8795    8.7607   23.6169 H         1 RES1    0.0000
     16 H5        -0.3752    7.9770   24.2262 H         1 RES1    0.0000
     17 H6        -0.4037    8.4712   22.7041 H         1 RES1    0.0000
     18 C4        -0.9368    5.2135   24.0151 C.3       1 RES1    0.0000
     19 H7        -1.2366    5.9930   24.5473 H         1 RES1    0.0000
     20 H8        -1.7353    4.6755   23.7888 H         1 RES1    0.0000
     21 C5        -0.2749    5.7121   22.7148 C.3       1 RES1    0.0000
     22 H9         0.1548    4.9381   22.2490 H         1 RES1    0.0000
     23 O7        -1.2714    6.2813   21.8566 O.3       1 RES1    0.0000
     24 C6        -2.1196    5.3298   21.2041 C.3       1 RES1    0.0000
     25 H10       -2.8427    5.8150   20.7321 H         1 RES1    0.0000
     26 H11       -2.5407    4.7531   21.8900 H         1 RES1    0.0000
     27 C7        -1.3971    4.4679   20.2244 C.2       1 RES1    0.0000
     28 H12       -0.9317    4.8873   19.5109 H         1 RES1    0.0000
     29 C8        -1.3725    3.1377   20.3015 C.2       1 RES1    0.0000
     30 H13       -1.8037    2.7126   21.0329 H         1 RES1    0.0000
     31 C9        -0.6890    2.2880   19.2732 C.3       1 RES1    0.0000
     32 H14       -0.6117    2.8129   18.4364 H         1 RES1    0.0000
     33 H15       -1.2661    1.5067   19.0811 H         1 RES1    0.0000
     34 C10        0.6979    1.7795   19.6510 C.3       1 RES1    0.0000
     35 H16        1.0942    1.2991   18.8687 H         1 RES1    0.0000
     36 C11        0.7211    0.8689   20.8516 C.3       1 RES1    0.0000
     37 H17        1.6422    0.5860   21.0304 H         1 RES1    0.0000
     38 H18        0.1662    0.0805   20.6739 H         1 RES1    0.0000
     39 H19        0.3695    1.3471   21.6321 H         1 RES1    0.0000
     40 C12        2.6914    3.1676   19.3397 C.ar      1 RES1    0.0000
     41 C13        3.4758    2.1807   18.7319 C.ar      1 RES1    0.0000
     42 H20        3.1932    1.2737   18.7499 H         1 RES1    0.0000
     43 C14        4.6603    2.5198   18.1036 C.ar      1 RES1    0.0000
     44 H21        5.1906    1.8541   17.6829 H         1 RES1    0.0000
     45 C15        5.0610    3.8450   18.0983 C.ar      1 RES1    0.0000
     46 N3         6.2862    4.2257   17.3977 N.pl3     1 RES1    0.0000
     47 O8         6.8997    3.3536   16.7826 O.2       1 RES1    0.0000
     48 O9         6.6463    5.4000   17.4473 O.2       1 RES1    0.0000
     49 C16        4.3228    4.8391   18.7261 C.ar      1 RES1    0.0000
     50 H22        4.6293    5.7388   18.7246 H         1 RES1    0.0000
     51 C17        3.1346    4.5076   19.3554 C.ar      1 RES1    0.0000
     52 C18        2.2505    5.5984   19.9250 C.2       1 RES1    0.0000
     53 C19        3.5083    5.3253   22.0336 C.3       1 RES1    0.0000
     54 H23        4.1933    4.9635   21.4021 H         1 RES1    0.0000
     55 C20        2.9765    4.1420   22.8397 C.3       1 RES1    0.0000
     56 H24        2.4039    4.4707   23.5638 H         1 RES1    0.0000
     57 H25        3.7289    3.6404   23.2199 H         1 RES1    0.0000
     58 H26        2.4562    3.5543   22.2541 H         1 RES1    0.0000
     59 C21        4.2261    6.3006   22.9524 C.3       1 RES1    0.0000
     60 H27        3.5902    6.6524   23.6244 H         1 RES1    0.0000
     61 H28        4.9522    5.8306   23.4323 H         1 RES1    0.0000
     62 C22        5.7042    8.1522   22.9840 C.3       1 RES1    0.0000
     63 H29        6.0397    8.9019   22.4311 H         1 RES1    0.0000
     64 H30        6.4776    7.5816   23.2199 H         1 RES1    0.0000
     65 C23        5.1002    8.7098   24.2530 C.ar      1 RES1    0.0000
     66 C24        3.9525    9.5123   24.1986 C.ar      1 RES1    0.0000
     67 H31        3.5674    9.7195   23.3564 H         1 RES1    0.0000
     68 C25        3.3742   10.0050   25.3475 C.ar      1 RES1    0.0000
     69 H32        2.5901   10.5385   25.2931 H         1 RES1    0.0000
     70 C26        3.9399    9.7210   26.5942 C.ar      1 RES1    0.0000
     71 C27        5.0909    8.9457   26.6726 C.ar      1 RES1    0.0000
     72 H33        5.4955    8.7649   27.5130 H         1 RES1    0.0000
     73 C28        5.6430    8.4359   25.4959 C.ar      1 RES1    0.0000
     74 H34        6.4149    7.8838   25.5510 H         1 RES1    0.0000
     75 C29        3.8585   10.0619   28.9549 C.3       1 RES1    0.0000
     76 H35        3.8419    9.1137   29.1993 H         1 RES1    0.0000
     77 H36        3.3547   10.5795   29.6165 H         1 RES1    0.0000
     78 H37        4.7860   10.3761   28.9313 H         1 RES1    0.0000
     79 C30        0.0986    2.9937   24.4504 C.3       1 RES1    0.0000
     80 H38        0.9213    2.6237   24.8330 H         1 RES1    0.0000
     81 H39        0.1292    2.9160   23.4753 H         1 RES1    0.0000
     82 H40       -0.6734    2.4980   24.7950 H         1 RES1    0.0000
     83 C31        0.5760    4.8218   25.9626 C.2       1 RES1    0.0000
     84 C32        0.8055    6.7616   27.4535 C.3       1 RES1    0.0000
     85 C33        0.2704    8.1794   27.3256 C.3       1 RES1    0.0000
     86 H41        0.6022    8.5799   26.4966 H         1 RES1    0.0000
     87 H42        0.5737    8.7127   28.0894 H         1 RES1    0.0000
     88 H43       -0.7095    8.1591   27.3082 H         1 RES1    0.0000
     89 C34        2.3248    6.7657   27.4207 C.3       1 RES1    0.0000
     90 H44        2.6566    5.8517   27.5458 H         1 RES1    0.0000
     91 H45        2.6661    7.3387   28.1400 H         1 RES1    0.0000
     92 H46        2.6319    7.1099   26.5547 H         1 RES1    0.0000
     93 C35        0.2461    6.0764   28.6922 C.3       1 RES1    0.0000
     94 H47       -0.7332    6.0819   28.6532 H         1 RES1    0.0000
     95 H48        0.5442    6.5550   29.4926 H         1 RES1    0.0000
     96 H49        0.5670    5.1513   28.7265 H         1 RES1    0.0000
@<TRIPOS>BOND
     1    1   34 1
     2    2   52 2
     3    3   59 1
     4    4   70 1
     5    5   83 2
     6    6   83 1
     7    7    9 1
     8    8   18 1
     9    9   10 1
    10   11    9 1
    11   12    9 1
    12   13   12 1
    13   14   12 1
    14   15   14 1
    15   16   14 1
    16   17   14 1
    17   18   19 1
    18   20   18 1
    19   21   12 1
    20   22   21 1
    21   23   21 1
    22   24   23 1
    23   25   24 1
    24   26   24 1
    25   27   24 1
    26   28   27 1
    27   29   27 2
    28   30   29 1
    29   31   29 1
    30   32   31 1
    31   33   31 1
    32   34   31 1
    33   35   34 1
    34   36   34 1
    35   37   36 1
    36   38   36 1
    37   39   36 1
    38   40    1 1
    39   41   40 ar
    40   42   41 1
    41   43   41 ar
    42   44   43 1
    43   45   43 ar
    44   46   45 1
    45   47   46 2
    46   48   46 2
    47   49   45 ar
    48   50   49 1
    49   51   40 ar
    50   52    7 1
    51   53    7 1
    52   54   53 1
    53   55   53 1
    54   56   55 1
    55   57   55 1
    56   58   55 1
    57   59   53 1
    58   60   59 1
    59   61   59 1
    60   62    3 1
    61   63   62 1
    62   64   62 1
    63   65   62 1
    64   66   65 ar
    65   67   66 1
    66   68   66 ar
    67   69   68 1
    68   70   68 ar
    69   71   70 ar
    70   72   71 1
    71   73   65 ar
    72   74   73 1
    73   75    4 1
    74   76   75 1
    75   77   75 1
    76   78   75 1
    77   79    8 1
    78   80   79 1
    79   81   79 1
    80   82   79 1
    81   83    8 1
    82   84    6 1
    83   85   84 1
    84   86   85 1
    85   87   85 1
    86   88   85 1
    87   89   84 1
    88   90   89 1
    89   91   89 1
    90   92   89 1
    91   93   84 1
    92   94   93 1
    93   95   93 1
    94   96   93 1
    95   18   21 1
    96   49   51 ar
    97   51   52 1
    98   71   73 ar
@<TRIPOS>SUBSTRUCTURE
     1 RES1 1

@<TRIPOS>CRYSIN
   9.4979   14.1210   25.2830  90.0000  90.0000  90.0000  19 1

