# MOL2 file generated by ConQuest
# Please check atom types

@<TRIPOS>MOLECULE
XATZUO
    31    32     1
SMALL
NO_CHARGES
****
Generated from CSD

@<TRIPOS>ATOM
      1 N1         0.3240    5.3460    3.6361 N.2       1 RES1    0.0000
      2 N2         0.1375    6.1570    4.7349 N.am      1 RES1    0.0000
      3 N3         1.8206    0.3195   -0.1150 N.pl3     1 RES1    0.0000
      4 O1        -0.7824    7.8211    3.5007 O.2       1 RES1    0.0000
      5 O2         2.1157    0.6987   -1.2240 O.2       1 RES1    0.0000
      6 O3         1.7639   -0.8551    0.1858 O.2       1 RES1    0.0000
      7 C1         0.9145    1.8149    3.1467 C.ar      1 RES1    0.0000
      8 C2         1.2015    0.8783    2.1779 C.ar      1 RES1    0.0000
      9 C3         1.5071    1.3196    0.9146 C.ar      1 RES1    0.0000
     10 C4         1.5201    2.6560    0.5838 C.ar      1 RES1    0.0000
     11 C5         1.2088    3.5822    1.5562 C.ar      1 RES1    0.0000
     12 C6         0.9047    3.1715    2.8452 C.ar      1 RES1    0.0000
     13 C7         0.6219    4.1367    3.9106 C.2       1 RES1    0.0000
     14 C8        -0.4195    7.3765    4.5858 C.2       1 RES1    0.0000
     15 C9        -0.5931    8.1437    5.8476 C.ar      1 RES1    0.0000
     16 C10       -0.4202    9.5214    5.8176 C.ar      1 RES1    0.0000
     17 C11       -0.5972   10.2644    6.9601 C.ar      1 RES1    0.0000
     18 C12       -0.9777    9.6625    8.1262 C.ar      1 RES1    0.0000
     19 C13       -1.1635    8.2963    8.1755 C.ar      1 RES1    0.0000
     20 C14       -0.9670    7.5301    7.0337 C.ar      1 RES1    0.0000
     21 H1         0.4457    5.8757    5.5089 H         1 RES1    0.0000
     22 H2         0.7479    1.5900    4.0370 H         1 RES1    0.0000
     23 H3         1.2133   -0.0561    2.3936 H         1 RES1    0.0000
     24 H4         1.7346    2.8945   -0.3144 H         1 RES1    0.0000
     25 H5         1.2178    4.4921    1.3504 H         1 RES1    0.0000
     26 H6         0.6608    3.8373    4.8159 H         1 RES1    0.0000
     27 H7        -0.1740    9.9448    4.9802 H         1 RES1    0.0000
     28 H8        -0.4206   11.2367    6.9023 H         1 RES1    0.0000
     29 H9        -1.1824   10.2277    8.9887 H         1 RES1    0.0000
     30 H10       -1.4144    7.8402    8.9315 H         1 RES1    0.0000
     31 H11       -1.0891    6.5993    7.0595 H         1 RES1    0.0000
@<TRIPOS>BOND
     1    1    2 1
     2    2   14 1
     3    3    5 2
     4    4   14 2
     5    6    3 2
     6    7    8 ar
     7    8    9 ar
     8    9    3 1
     9   10    9 ar
    10   11   10 ar
    11   12    7 ar
    12   13    1 2
    13   14   15 1
    14   15   16 ar
    15   16   17 ar
    16   17   18 ar
    17   18   19 ar
    18   19   20 ar
    19   20   15 ar
    20   21    2 1
    21   22    7 1
    22   23    8 1
    23   24   10 1
    24   25   11 1
    25   26   13 1
    26   27   16 1
    27   28   17 1
    28   29   18 1
    29   30   19 1
    30   31   20 1
    31   11   12 ar
    32   12   13 1
@<TRIPOS>SUBSTRUCTURE
     1 RES1 1

@<TRIPOS>CRYSIN
   7.1010   25.4800    7.7300  90.0000 112.4300  90.0000 231 1

