# MOL2 file generated by ConQuest
# Please check atom types

@<TRIPOS>MOLECULE
XAVLEL
    48    52     1
SMALL
NO_CHARGES
****
Generated from CSD

@<TRIPOS>ATOM
      1 O1        -7.5964   14.9078   -3.2493 O.2       1 RES1    0.0000
      2 O2        -7.8679   16.0532   -1.4576 O.2       1 RES1    0.0000
      3 N1        -2.1312   13.4337    1.2364 N.2       1 RES1    0.0000
      4 N2        -2.5863   13.0364    0.0452 N.pl3     1 RES1    0.0000
      5 N3        -1.8592   12.0972   -0.5867 N.2       1 RES1    0.0000
      6 N4         1.0983   10.9779    1.2331 N.2       1 RES1    0.0000
      7 N5         0.9082   11.7821    2.3180 N.3       1 RES1    0.0000
      8 N6        -0.1105   13.4249    3.5709 N.2       1 RES1    0.0000
      9 N7        -7.2410   15.2549   -2.1339 N.pl3     1 RES1    0.0000
     10 N8        -0.8933   15.5358    2.9028 N.ar      1 RES1    0.0000
     11 C1        -0.8583   11.8704    0.2769 C.2       1 RES1    0.0000
     12 C2         0.2789   10.9857    0.2211 C.2       1 RES1    0.0000
     13 C3        -0.0946   12.7162    2.4985 C.2       1 RES1    0.0000
     14 C4        -1.0269   12.7010    1.3815 C.2       1 RES1    0.0000
     15 C5         1.9024   11.6045    3.3735 C.3       1 RES1    0.0000
     16 H1         1.5115   11.1183    4.1036 H         1 RES1    0.0000
     17 H2         2.1973   12.4632    3.6827 H         1 RES1    0.0000
     18 H3         2.6522   11.1148    3.0274 H         1 RES1    0.0000
     19 C6        -3.7617   13.5978   -0.5182 C.ar      1 RES1    0.0000
     20 C7        -4.4479   14.5600    0.1962 C.ar      1 RES1    0.0000
     21 H4        -4.1411   14.8359    1.0301 H         1 RES1    0.0000
     22 C8        -5.5921   15.1069   -0.3402 C.ar      1 RES1    0.0000
     23 H5        -6.0744   15.7498    0.1274 H         1 RES1    0.0000
     24 C9        -6.0073   14.6843   -1.5811 C.ar      1 RES1    0.0000
     25 C10       -5.3378   13.7308   -2.2931 C.ar      1 RES1    0.0000
     26 H6        -5.6483   13.4616   -3.1271 H         1 RES1    0.0000
     27 C11       -4.2014   13.1754   -1.7625 C.ar      1 RES1    0.0000
     28 H7        -3.7320   12.5236   -2.2318 H         1 RES1    0.0000
     29 C12        0.5812   10.0694   -0.8999 C.ar      1 RES1    0.0000
     30 C13       -0.3243    9.8020   -1.9036 C.ar      1 RES1    0.0000
     31 H8        -1.1502   10.2285   -1.9014 H         1 RES1    0.0000
     32 C14       -0.0222    8.9081   -2.9122 C.ar      1 RES1    0.0000
     33 H9        -0.6478    8.7388   -3.5793 H         1 RES1    0.0000
     34 C15        1.1849    8.2701   -2.9408 C.ar      1 RES1    0.0000
     35 H10        1.3796    7.6559   -3.6107 H         1 RES1    0.0000
     36 C16        2.1066    8.5530   -1.9602 C.ar      1 RES1    0.0000
     37 H11        2.9354    8.1318   -1.9752 H         1 RES1    0.0000
     38 C17        1.8177    9.4486   -0.9599 C.ar      1 RES1    0.0000
     39 H12        2.4602    9.6406   -0.3157 H         1 RES1    0.0000
     40 C18       -1.0788   14.4465    3.6620 C.ar      1 RES1    0.0000
     41 C19       -1.8701   16.4667    2.9366 C.ar      1 RES1    0.0000
     42 H13       -1.7734   17.2275    2.4090 H         1 RES1    0.0000
     43 C20       -2.9977   16.3500    3.7078 C.ar      1 RES1    0.0000
     44 H14       -3.6643   16.9981    3.6809 H         1 RES1    0.0000
     45 C21       -3.1140   15.2587    4.5132 C.ar      1 RES1    0.0000
     46 H15       -3.8574   15.1669    5.0654 H         1 RES1    0.0000
     47 C22       -2.1409   14.2950    4.5134 C.ar      1 RES1    0.0000
     48 H16       -2.1994   13.5582    5.0764 H         1 RES1    0.0000
@<TRIPOS>BOND
     1    1    9 2
     2    2    9 2
     3    3    4 1
     4    4    5 1
     5    5   11 2
     6    6    7 1
     7    7   13 1
     8    8   13 2
     9    9   24 1
    10   10   40 ar
    11   11   12 1
    12   12    6 2
    13   13   14 1
    14   14    3 2
    15   15    7 1
    16   16   15 1
    17   17   15 1
    18   18   15 1
    19   19    4 1
    20   20   19 ar
    21   21   20 1
    22   22   20 ar
    23   23   22 1
    24   24   22 ar
    25   25   24 ar
    26   26   25 1
    27   27   19 ar
    28   28   27 1
    29   29   12 1
    30   30   29 ar
    31   31   30 1
    32   32   30 ar
    33   33   32 1
    34   34   32 ar
    35   35   34 1
    36   36   34 ar
    37   37   36 1
    38   38   29 ar
    39   39   38 1
    40   40    8 1
    41   41   10 ar
    42   42   41 1
    43   43   41 ar
    44   44   43 1
    45   45   43 ar
    46   46   45 1
    47   47   40 ar
    48   48   47 1
    49   11   14 1
    50   25   27 ar
    51   36   38 ar
    52   45   47 ar
@<TRIPOS>SUBSTRUCTURE
     1 RES1 1

@<TRIPOS>CRYSIN
   6.1630   17.2430   18.4710  90.0000  92.0000  90.0000  14 1

