# MOL2 file generated by ConQuest
# Please check atom types

@<TRIPOS>MOLECULE
XAVPEQ
    30    31     1
SMALL
NO_CHARGES
****
Generated from CSD

@<TRIPOS>ATOM
      1 O1         2.1233    1.8664    5.4958 O.2       1 RES1    0.0000
      2 O2         3.3447    0.1248    5.7328 O.2       1 RES1    0.0000
      3 O3         5.4724   -1.0057    9.7953 O.2       1 RES1    0.0000
      4 O4         5.4640    0.3927   11.4365 O.2       1 RES1    0.0000
      5 N1        -0.7757    7.4157    7.4650 N.ar      1 RES1    0.0000
      6 N2         1.3497    4.6670    8.1439 N.2       1 RES1    0.0000
      7 N3         1.8347    3.5878    7.4549 N.3       1 RES1    0.0000
      8 N4         2.8585    1.1514    6.1768 N.pl3     1 RES1    0.0000
      9 N5         5.1254    0.0469   10.3075 N.pl3     1 RES1    0.0000
     10 C1        -1.2753    8.4949    8.0833 C.ar      1 RES1    0.0000
     11 H1        -1.8009    9.0750    7.5805 H         1 RES1    0.0000
     12 C2        -1.0671    8.8039    9.3985 C.ar      1 RES1    0.0000
     13 H2        -1.4413    9.5677    9.7736 H         1 RES1    0.0000
     14 C3        -0.2970    7.9610   10.1437 C.ar      1 RES1    0.0000
     15 H3        -0.1308    8.1453   11.0405 H         1 RES1    0.0000
     16 C4         0.2311    6.8400    9.5564 C.ar      1 RES1    0.0000
     17 H4         0.7500    6.2491   10.0536 H         1 RES1    0.0000
     18 C5        -0.0182    6.5974    8.2172 C.ar      1 RES1    0.0000
     19 C6         0.5347    5.4289    7.5296 C.2       1 RES1    0.0000
     20 H5         0.2925    5.2440    6.6519 H         1 RES1    0.0000
     21 C7         2.6374    2.7075    8.1096 C.ar      1 RES1    0.0000
     22 C8         3.1443    1.5225    7.5403 C.ar      1 RES1    0.0000
     23 C9         3.9562    0.6485    8.2524 C.ar      1 RES1    0.0000
     24 H6         4.2818   -0.1254    7.8534 H         1 RES1    0.0000
     25 C10        4.2683    0.9443    9.5459 C.ar      1 RES1    0.0000
     26 C11        3.7894    2.0925   10.1497 C.ar      1 RES1    0.0000
     27 H7         4.0100    2.2756   11.0335 H         1 RES1    0.0000
     28 C12        2.9981    2.9551    9.4582 C.ar      1 RES1    0.0000
     29 H8         2.6861    3.7233    9.8786 H         1 RES1    0.0000
     30 H9         1.6143    3.4263    6.6052 H         1 RES1    0.0000
@<TRIPOS>BOND
     1    1    8 2
     2    2    8 2
     3    3    9 2
     4    4    9 2
     5    5   10 ar
     6    6    7 1
     7    7   21 1
     8    8   22 1
     9    9   25 1
    10   10   11 1
    11   12   10 ar
    12   13   12 1
    13   14   12 ar
    14   15   14 1
    15   16   14 ar
    16   17   16 1
    17   18    5 ar
    18   19    6 2
    19   20   19 1
    20   21   22 ar
    21   22   23 ar
    22   23   24 1
    23   25   23 ar
    24   26   25 ar
    25   27   26 1
    26   28   21 ar
    27   29   28 1
    28   30    7 1
    29   16   18 ar
    30   18   19 1
    31   26   28 ar
@<TRIPOS>SUBSTRUCTURE
     1 RES1 1

@<TRIPOS>CRYSIN
   8.5690    6.3333   23.3400  90.0000  91.5320  90.0000  14 1

