# MOL2 file generated by ConQuest
# Please check atom types

@<TRIPOS>MOLECULE
XAXRIX
    34    35     1
SMALL
NO_CHARGES
****
Generated from CSD

@<TRIPOS>ATOM
      1 O1         7.8215    9.7916    6.5012 O.3       1 RES1    0.0000
      2 O2         8.5563    6.6062    5.3355 O.2       1 RES1    0.0000
      3 O3         9.1948    7.6272    7.1412 O.2       1 RES1    0.0000
      4 N1         5.4490   12.5441    6.6005 N.3       1 RES1    0.0000
      5 N2         8.5614    7.5741    6.0989 N.pl3     1 RES1    0.0000
      6 C1         6.7775   11.9845    6.6690 C.3       1 RES1    0.0000
      7 H1         7.0211   11.8675    7.6004 H         1 RES1    0.0000
      8 H2         7.4031   12.6132    6.2770 H         1 RES1    0.0000
      9 C2         6.9084   10.6680    5.9649 C.2       1 RES1    0.0000
     10 C3         6.2964   10.1017    4.8959 C.2       1 RES1    0.0000
     11 H3         5.6367   10.4899    4.3673 H         1 RES1    0.0000
     12 C4         6.8498    8.8080    4.7347 C.2       1 RES1    0.0000
     13 H4         6.6312    8.1763    4.0872 H         1 RES1    0.0000
     14 C5         7.7561    8.6888    5.7157 C.2       1 RES1    0.0000
     15 C6         4.3857   11.9190    7.2532 C.ar      1 RES1    0.0000
     16 C7         4.6136   10.8665    8.1505 C.ar      1 RES1    0.0000
     17 H5         5.4774   10.5433    8.2722 H         1 RES1    0.0000
     18 C8         3.5669   10.3051    8.8556 C.ar      1 RES1    0.0000
     19 H6         3.7479    9.6210    9.4587 H         1 RES1    0.0000
     20 C9         2.2530   10.7277    8.6940 C.ar      1 RES1    0.0000
     21 C10        2.0263   11.7462    7.7691 C.ar      1 RES1    0.0000
     22 H7         1.1560   12.0430    7.6283 H         1 RES1    0.0000
     23 C11        3.0603   12.3298    7.0540 C.ar      1 RES1    0.0000
     24 H8         2.8736   13.0001    6.4366 H         1 RES1    0.0000
     25 C12        1.1066   10.1423    9.4979 C.3       1 RES1    0.0000
     26 H9         0.9765   10.6620   10.2944 H         1 RES1    0.0000
     27 H10        1.3142    9.2357    9.7370 H         1 RES1    0.0000
     28 H11        0.3051   10.1586    8.9710 H         1 RES1    0.0000
     29 C13        5.2056   13.6529    5.6848 C.3       1 RES1    0.0000
     30 H12        6.0234   14.1649    5.5860 H         1 RES1    0.0000
     31 H13        4.5348   14.2379    6.0702 H         1 RES1    0.0000
     32 C14        4.7507   13.2159    4.3530 C.1       1 RES1    0.0000
     33 C15        4.3937   12.8112    3.2999 C.1       1 RES1    0.0000
     34 H14        4.1268   12.4399    2.3904 H         1 RES1    0.0000
@<TRIPOS>BOND
     1    1    9 1
     2    2    5 2
     3    3    5 2
     4    4    6 1
     5    5   14 1
     6    6    7 1
     7    8    6 1
     8    9    6 1
     9   10    9 2
    10   11   10 1
    11   12   10 1
    12   13   12 1
    13   14    1 1
    14   15    4 1
    15   16   15 ar
    16   17   16 1
    17   18   16 ar
    18   19   18 1
    19   20   18 ar
    20   21   20 ar
    21   22   21 1
    22   23   15 ar
    23   24   23 1
    24   25   20 1
    25   26   25 1
    26   27   25 1
    27   28   25 1
    28   29    4 1
    29   30   29 1
    30   31   29 1
    31   32   29 1
    32   33   32 3
    33   34   33 1
    34   12   14 2
    35   21   23 ar
@<TRIPOS>SUBSTRUCTURE
     1 RES1 1

@<TRIPOS>CRYSIN
   8.8490    9.2060    9.8438  63.1960  76.9080  73.9370   2 1

