# MOL2 file generated by ConQuest
# Please check atom types

@<TRIPOS>MOLECULE
XAYCEF
    76    79     1
SMALL
NO_CHARGES
****
Generated from CSD

@<TRIPOS>ATOM
      1 O1         7.4833    5.1857    5.7989 O.2       1 RES1    0.0000
      2 O2         8.4364    3.6434    6.8935 O.2       1 RES1    0.0000
      3 O3         6.5718    3.4712   -0.6626 O.2       1 RES1    0.0000
      4 O4         1.0841    3.9256    3.6680 O.2       1 RES1    0.0000
      5 O5         5.6348    1.6864    0.3101 O.3       1 RES1    0.0000
      6 O6         2.0495    2.0026    3.0691 O.3       1 RES1    0.0000
      7 N1         4.7306    5.7631    2.4118 N.3       1 RES1    0.0000
      8 N2         7.6460    4.0099    6.0639 N.pl3     1 RES1    0.0000
      9 N3         6.7694    7.1544    1.5080 N.3       1 RES1    0.0000
     10 N4         3.5382    7.3160    4.2617 N.3       1 RES1    0.0000
     11 C1         4.4640    3.0156    2.3853 C.3       1 RES1    0.0000
     12 C2         5.4785    5.0885    1.4789 C.2       1 RES1    0.0000
     13 C3         5.3375    2.5366    3.5408 C.ar      1 RES1    0.0000
     14 C4         3.3488    3.9209    2.8703 C.2       1 RES1    0.0000
     15 C5         2.7115    6.3264    3.5620 C.3       1 RES1    0.0000
     16 C6         5.2946    3.7476    1.3384 C.2       1 RES1    0.0000
     17 C7         3.5796    5.2583    2.9604 C.2       1 RES1    0.0000
     18 C8         6.0832    3.4431    4.2776 C.ar      1 RES1    0.0000
     19 C9         6.8904    3.0051    5.3059 C.ar      1 RES1    0.0000
     20 C10        2.0445    3.3471    3.2493 C.2       1 RES1    0.0000
     21 C11        3.9825    6.7925    5.5471 C.3       1 RES1    0.0000
     22 C12        5.4451    1.1863    3.8854 C.ar      1 RES1    0.0000
     23 C13        7.0025    1.6770    5.6505 C.ar      1 RES1    0.0000
     24 C14        6.4288    5.9856    0.6970 C.3       1 RES1    0.0000
     25 C15        7.8349    6.8323    2.4595 C.3       1 RES1    0.0000
     26 C16        5.9119    3.0203    0.2412 C.2       1 RES1    0.0000
     27 C17        6.2648    0.7776    4.9216 C.ar      1 RES1    0.0000
     28 C18        8.0461    7.9730    3.4269 C.3       1 RES1    0.0000
     29 C19        2.8172    8.5703    4.4499 C.3       1 RES1    0.0000
     30 C20        4.2431    9.0996    6.4297 C.3       1 RES1    0.0000
     31 C21        4.8992    7.7587    6.2653 C.3       1 RES1    0.0000
     32 C22        7.1505    8.3032    0.7076 C.3       1 RES1    0.0000
     33 C23        3.7178    9.6020    5.1045 C.3       1 RES1    0.0000
     34 C24        0.8013    1.3339    3.3314 C.3       1 RES1    0.0000
     35 C25        8.3906    9.2226    2.6821 C.3       1 RES1    0.0000
     36 C26        6.1010    0.8842   -0.8189 C.3       1 RES1    0.0000
     37 C27        7.3544    9.5036    1.6061 C.3       1 RES1    0.0000
     38 C28       -0.1165    1.4616    2.1998 C.3       1 RES1    0.0000
     39 H1         4.9968    6.5413    2.6622 H         1 RES1    0.0000
     40 H2         4.0592    2.2300    1.9607 H         1 RES1    0.0000
     41 H3         2.2018    6.7647    2.8629 H         1 RES1    0.0000
     42 H4         2.0857    5.9256    4.1859 H         1 RES1    0.0000
     43 H5         6.0388    4.3504    4.0775 H         1 RES1    0.0000
     44 H6         4.4489    5.9537    5.4074 H         1 RES1    0.0000
     45 H7         3.2079    6.6130    6.1045 H         1 RES1    0.0000
     46 H8         4.9584    0.5522    3.4094 H         1 RES1    0.0000
     47 H9         7.5554    1.4015    6.3451 H         1 RES1    0.0000
     48 H10        7.2343    5.4941    0.4744 H         1 RES1    0.0000
     49 H11        6.0069    6.2694   -0.1280 H         1 RES1    0.0000
     50 H12        8.6593    6.6585    1.9795 H         1 RES1    0.0000
     51 H13        7.5985    6.0310    2.9527 H         1 RES1    0.0000
     52 H14        6.3156   -0.1268    5.1326 H         1 RES1    0.0000
     53 H15        7.2385    8.1141    3.9439 H         1 RES1    0.0000
     54 H16        8.7637    7.7509    4.0396 H         1 RES1    0.0000
     55 H17        2.0388    8.4180    5.0094 H         1 RES1    0.0000
     56 H18        2.5114    8.9020    3.5917 H         1 RES1    0.0000
     57 H19        4.8859    9.7333    6.7853 H         1 RES1    0.0000
     58 H20        3.5107    9.0276    7.0620 H         1 RES1    0.0000
     59 H21        5.1248    7.4005    7.1394 H         1 RES1    0.0000
     60 H22        5.7205    7.8597    5.7615 H         1 RES1    0.0000
     61 H23        6.4556    8.4939    0.0578 H         1 RES1    0.0000
     62 H24        7.9703    8.1099    0.2266 H         1 RES1    0.0000
     63 H25        4.4637    9.7989    4.5145 H         1 RES1    0.0000
     64 H26        3.2211   10.4236    5.2429 H         1 RES1    0.0000
     65 H27        0.3918    1.7173    4.1228 H         1 RES1    0.0000
     66 H28        0.9700    0.3953    3.5053 H         1 RES1    0.0000
     67 H29        9.2652    9.1268    2.2745 H         1 RES1    0.0000
     68 H30        8.4263    9.9685    3.3012 H         1 RES1    0.0000
     69 H31        5.6038    1.1203   -1.6061 H         1 RES1    0.0000
     70 H32        5.9707   -0.0464   -0.6255 H         1 RES1    0.0000
     71 H33        7.0342    1.0533   -0.9679 H         1 RES1    0.0000
     72 H34        6.5118    9.7393    2.0238 H         1 RES1    0.0000
     73 H35        7.6446   10.2592    1.0705 H         1 RES1    0.0000
     74 H36       -0.3189    2.3881    2.0556 H         1 RES1    0.0000
     75 H37       -0.9264    0.9826    2.3914 H         1 RES1    0.0000
     76 H38        0.2936    1.0957    1.4134 H         1 RES1    0.0000
@<TRIPOS>BOND
     1    1    8 2
     2    2    8 2
     3    3   26 2
     4    4   20 2
     5    5   26 1
     6    6   20 1
     7    7   12 1
     8    8   19 1
     9    9   24 1
    10   10   15 1
    11   11   13 1
    12   12   16 2
    13   13   18 ar
    14   14   11 1
    15   15   17 1
    16   16   11 1
    17   17    7 1
    18   18   19 ar
    19   19   23 ar
    20   20   14 1
    21   21   10 1
    22   22   13 ar
    23   23   27 ar
    24   24   12 1
    25   25    9 1
    26   26   16 1
    27   27   22 ar
    28   28   25 1
    29   29   10 1
    30   30   31 1
    31   31   21 1
    32   32    9 1
    33   33   29 1
    34   34    6 1
    35   35   28 1
    36   36    5 1
    37   37   32 1
    38   38   34 1
    39   39    7 1
    40   40   11 1
    41   41   15 1
    42   42   15 1
    43   43   18 1
    44   44   21 1
    45   45   21 1
    46   46   22 1
    47   47   23 1
    48   48   24 1
    49   49   24 1
    50   50   25 1
    51   51   25 1
    52   52   27 1
    53   53   28 1
    54   54   28 1
    55   55   29 1
    56   56   29 1
    57   57   30 1
    58   58   30 1
    59   59   31 1
    60   60   31 1
    61   61   32 1
    62   62   32 1
    63   63   33 1
    64   64   33 1
    65   65   34 1
    66   66   34 1
    67   67   35 1
    68   68   35 1
    69   69   36 1
    70   70   36 1
    71   71   36 1
    72   72   37 1
    73   73   37 1
    74   74   38 1
    75   75   38 1
    76   76   38 1
    77   14   17 2
    78   30   33 1
    79   35   37 1
@<TRIPOS>SUBSTRUCTURE
     1 RES1 1

@<TRIPOS>CRYSIN
   8.9714   11.7112   26.7180  90.0000  97.2710  90.0000  14 1

