# MOL2 file generated by ConQuest
# Please check atom types

@<TRIPOS>MOLECULE
XAYRIY
    42    44     1
SMALL
USER_CHARGES
****
Generated from CSD

@<TRIPOS>ATOM
      1 O1         5.7468    2.4915   10.4417 O.3       1 RES1    0.0000
      2 O2         4.7570    1.1333   11.9307 O.3       1 RES1    0.0000
      3 O3         4.3797    3.7485   14.4157 O.3       1 RES1    0.0000
      4 O4         4.1373    1.9497   15.7291 O.2       1 RES1    0.0000
      5 O5         4.9290    4.3155   11.6040 O.3       1 RES1    0.0000
      6 O6         5.2434    7.7393   19.8872 O.2       1 RES1    0.0000
      7 O7         5.8995    6.0438   21.0111 O.2       1 RES1    0.0000
      8 N1         5.4679    6.5556   20.0065 N.pl3     1 RES1    0.0000
      9 N2         1.6400    4.8148   13.1067 N.2       1 RES1    0.0000
     10 N3         1.0540    5.6646   13.7556 N.1       1 RES1    1.0000
     11 N4         0.4194    6.3685   14.3664 N.2       1 RES1   -1.0000
     12 C1         5.7792    3.2003   11.6589 C.3       1 RES1    0.0000
     13 C2         5.1977    2.2367   12.6948 C.3       1 RES1    0.0000
     14 C3         3.9934    2.9671   13.2647 C.3       1 RES1    0.0000
     15 C4         3.6651    3.9419   12.1521 C.3       1 RES1    0.0000
     16 C5         2.9426    5.2051   12.5550 C.3       1 RES1    0.0000
     17 C6         5.5160    1.1222   10.7217 C.3       1 RES1    0.0000
     18 C7         6.8115    0.3855   10.8984 C.3       1 RES1    0.0000
     19 H1         7.3169    0.7919   11.6070 H         1 RES1    0.0000
     20 H2         7.3156    0.4239   10.0827 H         1 RES1    0.0000
     21 H3         6.6311   -0.5314   11.1202 H         1 RES1    0.0000
     22 C8         4.6801    0.5321    9.6332 C.3       1 RES1    0.0000
     23 H4         3.8592    1.0237    9.5575 H         1 RES1    0.0000
     24 H5         4.4862   -0.3855    9.8411 H         1 RES1    0.0000
     25 H6         5.1585    0.5775    8.8017 H         1 RES1    0.0000
     26 C9         4.3790    3.1186   15.5998 C.2       1 RES1    0.0000
     27 C10        4.6829    4.0480   16.7178 C.ar      1 RES1    0.0000
     28 C11        4.8723    3.5013   17.9737 C.ar      1 RES1    0.0000
     29 C12        5.1498    4.3162   19.0608 C.ar      1 RES1    0.0000
     30 C13        5.2056    5.6702   18.8478 C.ar      1 RES1    0.0000
     31 C14        5.0018    6.2512   17.6220 C.ar      1 RES1    0.0000
     32 C15        4.7493    5.4209   16.5407 C.ar      1 RES1    0.0000
     33 H7         6.6811    3.5474   11.8229 H         1 RES1    0.0000
     34 H8         5.8279    2.0321   13.3728 H         1 RES1    0.0000
     35 H9         3.3272    2.3603   13.4533 H         1 RES1    0.0000
     36 H10        3.1519    3.4706   11.5557 H         1 RES1    0.0000
     37 H11        2.8596    5.7680   11.7845 H         1 RES1    0.0000
     38 H12        3.4636    5.6981   13.2319 H         1 RES1    0.0000
     39 H13        4.7584    2.5558   18.1653 H         1 RES1    0.0000
     40 H14        5.2731    3.8895   19.9092 H         1 RES1    0.0000
     41 H15        5.0455    7.1715   17.5212 H         1 RES1    0.0000
     42 H16        4.6531    5.8308   15.6931 H         1 RES1    0.0000
@<TRIPOS>BOND
     1    1   12 1
     2    2   13 1
     3    3   14 1
     4    4   26 2
     5    5   12 1
     6    6    8 2
     7    7    8 2
     8    8   30 1
     9    9   10 2
    10   10   11 2
    11   12   13 1
    12   13   14 1
    13   14   15 1
    14   15    5 1
    15   16    9 1
    16   17    1 1
    17   18   17 1
    18   19   18 1
    19   20   18 1
    20   21   18 1
    21   22   17 1
    22   23   22 1
    23   24   22 1
    24   25   22 1
    25   26    3 1
    26   27   26 1
    27   28   27 ar
    28   29   28 ar
    29   30   29 ar
    30   31   30 ar
    31   32   27 ar
    32   33   12 1
    33   34   13 1
    34   35   14 1
    35   36   15 1
    36   37   16 1
    37   38   16 1
    38   39   28 1
    39   40   29 1
    40   41   31 1
    41   42   32 1
    42    2   17 1
    43   15   16 1
    44   31   32 ar
@<TRIPOS>SUBSTRUCTURE
     1 RES1 1

@<TRIPOS>CRYSIN
   6.7760    6.9830   18.2990  90.0000  90.2300  90.0000   4 1

