# MOL2 file generated by ConQuest
# Please check atom types

@<TRIPOS>MOLECULE
XAYYAA
    33    33     1
SMALL
NO_CHARGES
****
Generated from CSD

@<TRIPOS>ATOM
      1 N1         7.3286    6.1021    7.6604 N.pl3     1 RES1    0.0000
      2 O1         7.6390    4.9230    7.6574 O.2       1 RES1    0.0000
      3 O2         8.0485    7.0053    7.2475 O.2       1 RES1    0.0000
      4 O3         3.9984    4.4323   11.5322 O.2       1 RES1    0.0000
      5 O4         3.3648    4.7582    8.2925 O.2       1 RES1    0.0000
      6 C1         5.6770    5.7434    9.4999 C.3       1 RES1    0.0000
      7 H1         5.6345    4.7641    9.3033 H         1 RES1    0.0000
      8 C2         6.7581    5.9737   10.5452 C.ar      1 RES1    0.0000
      9 C3         7.5627    4.9189   10.9614 C.ar      1 RES1    0.0000
     10 H2         7.4480    4.0601   10.5727 H         1 RES1    0.0000
     11 C4         8.5306    5.1050   11.9368 C.ar      1 RES1    0.0000
     12 H3         9.0672    4.3728   12.2172 H         1 RES1    0.0000
     13 C5         8.7166    6.3529   12.5040 C.ar      1 RES1    0.0000
     14 H4         9.3723    6.4789   13.1792 H         1 RES1    0.0000
     15 C6         7.9401    7.4154   12.0794 C.ar      1 RES1    0.0000
     16 H5         8.0714    8.2765   12.4570 H         1 RES1    0.0000
     17 C7         6.9700    7.2304   11.1038 C.ar      1 RES1    0.0000
     18 H6         6.4468    7.9688   10.8153 H         1 RES1    0.0000
     19 C8         5.9861    6.4812    8.1947 C.3       1 RES1    0.0000
     20 H7         5.2922    6.2641    7.5233 H         1 RES1    0.0000
     21 H8         5.9609    7.4574    8.3554 H         1 RES1    0.0000
     22 C9         4.2806    6.2033    9.9697 C.3       1 RES1    0.0000
     23 H9         4.2538    7.2022   10.0071 H         1 RES1    0.0000
     24 C10        3.1729    5.6960    9.0313 C.2       1 RES1    0.0000
     25 C11        1.8462    6.3804    9.1206 C.3       1 RES1    0.0000
     26 H10        1.2441    6.0159    8.4387 H         1 RES1    0.0000
     27 H11        1.9642    7.3424    8.9718 H         1 RES1    0.0000
     28 H12        1.4614    6.2318   10.0099 H         1 RES1    0.0000
     29 C12        3.9625    5.6286   11.3628 C.2       1 RES1    0.0000
     30 C13        3.6065    6.5911   12.4447 C.3       1 RES1    0.0000
     31 H13        3.3334    6.0966   13.2454 H         1 RES1    0.0000
     32 H14        2.8687    7.1608   12.1453 H         1 RES1    0.0000
     33 H15        4.3851    7.1487   12.6559 H         1 RES1    0.0000
@<TRIPOS>BOND
     1    1    2 2
     2    3    1 2
     3    4   29 2
     4    5   24 2
     5    6    7 1
     6    8    6 1
     7    9    8 ar
     8   10    9 1
     9   11    9 ar
    10   12   11 1
    11   13   11 ar
    12   14   13 1
    13   15   13 ar
    14   16   15 1
    15   17    8 ar
    16   18   17 1
    17   19    1 1
    18   20   19 1
    19   21   19 1
    20   22    6 1
    21   23   22 1
    22   24   22 1
    23   25   24 1
    24   26   25 1
    25   27   25 1
    26   28   25 1
    27   29   22 1
    28   30   29 1
    29   31   30 1
    30   32   30 1
    31   33   30 1
    32    6   19 1
    33   15   17 ar
@<TRIPOS>SUBSTRUCTURE
     1 RES1 1

@<TRIPOS>CRYSIN
   8.8677   10.0871   14.1044  90.0000  90.0000  90.0000  19 1

