# MOL2 file generated by ConQuest
# Please check atom types

@<TRIPOS>MOLECULE
XAYZAB
    61    66     1
SMALL
NO_CHARGES
****
Generated from CSD

@<TRIPOS>ATOM
      1 O1         5.6318   15.2270    2.1102 O.3       1 RES1    0.0000
      2 N1         3.6292   15.2818    3.2258 N.3       1 RES1    0.0000
      3 N2         6.0204   15.1820    0.6943 N.3       1 RES1    0.0000
      4 N3         3.7979   15.9460    0.9696 N.2       1 RES1    0.0000
      5 C1         4.2739   15.4988    2.0742 C.2       1 RES1    0.0000
      6 C2         5.5081   17.5669    0.3283 C.ar      1 RES1    0.0000
      7 C3         3.3130   13.6004    4.9727 C.ar      1 RES1    0.0000
      8 C4         4.9992   16.1315    0.1360 C.3       1 RES1    0.0000
      9 C5         2.0121   14.0499    5.2031 C.ar      1 RES1    0.0000
     10 C6         6.6300   12.8288    1.1005 C.ar      1 RES1    0.0000
     11 C7         4.7461   15.8579   -1.3421 C.ar      1 RES1    0.0000
     12 C8         2.1970   15.6112    3.2801 C.3       1 RES1    0.0000
     13 H1         1.7043   15.0298    2.6801 H         1 RES1    0.0000
     14 H2         2.0606   16.5283    2.9932 H         1 RES1    0.0000
     15 C9         6.8231   17.8668    0.6665 C.ar      1 RES1    0.0000
     16 H3         7.4505   17.1861    0.7507 H         1 RES1    0.0000
     17 C10        4.9646   19.9266    0.3687 C.ar      1 RES1    0.0000
     18 H4         4.3457   20.6124    0.2565 H         1 RES1    0.0000
     19 C11        5.7760   13.7733    0.2910 C.3       1 RES1    0.0000
     20 H5         5.9791   13.6662   -0.6515 H         1 RES1    0.0000
     21 H6         4.8396   13.5565    0.4233 H         1 RES1    0.0000
     22 C12        4.2686   14.5810    4.3465 C.3       1 RES1    0.0000
     23 H7         4.5537   15.2263    5.0123 H         1 RES1    0.0000
     24 H8         5.0541   14.1093    4.0288 H         1 RES1    0.0000
     25 C13        4.5866   18.6057    0.1676 C.ar      1 RES1    0.0000
     26 H9         3.7112   18.4104   -0.0771 H         1 RES1    0.0000
     27 C14        1.1041   13.2173    5.8461 C.ar      1 RES1    0.0000
     28 H10        0.2366   13.5131    6.0069 H         1 RES1    0.0000
     29 C15        3.6934   12.3172    5.3548 C.ar      1 RES1    0.0000
     30 H11        4.5559   12.0147    5.1823 H         1 RES1    0.0000
     31 C16        1.6817   15.4353    4.7061 C.3       1 RES1    0.0000
     32 H12        2.0909   16.0965    5.2862 H         1 RES1    0.0000
     33 H13        0.7211   15.5689    4.7259 H         1 RES1    0.0000
     34 C17        3.4985   15.4293   -1.7868 C.ar      1 RES1    0.0000
     35 H14        2.8064   15.3017   -1.1787 H         1 RES1    0.0000
     36 C18        1.4911   11.9421    6.2501 C.ar      1 RES1    0.0000
     37 H15        0.8840   11.3934    6.6915 H         1 RES1    0.0000
     38 C19        6.0837   12.1002    2.1522 C.ar      1 RES1    0.0000
     39 H16        5.1863   12.2089    2.3716 H         1 RES1    0.0000
     40 C20        6.2731   20.2220    0.7381 C.ar      1 RES1    0.0000
     41 H17        6.5285   21.1034    0.8892 H         1 RES1    0.0000
     42 C21        5.7753   16.0543   -2.2649 C.ar      1 RES1    0.0000
     43 H18        6.6068   16.3524   -1.9735 H         1 RES1    0.0000
     44 C22        2.7764   11.4869    5.9983 C.ar      1 RES1    0.0000
     45 H19        3.0265   10.6305    6.2587 H         1 RES1    0.0000
     46 C23        7.1965   19.1943    0.8792 C.ar      1 RES1    0.0000
     47 H20        8.0731   19.3926    1.1189 H         1 RES1    0.0000
     48 C24        7.9724   12.6605    0.7939 C.ar      1 RES1    0.0000
     49 H21        8.3523   13.1477    0.0976 H         1 RES1    0.0000
     50 C25        6.8696   11.2107    2.8796 C.ar      1 RES1    0.0000
     51 H22        6.4946   10.7265    3.5802 H         1 RES1    0.0000
     52 C26        3.2887   15.1916   -3.1456 C.ar      1 RES1    0.0000
     53 H23        2.4529   14.9111   -3.4433 H         1 RES1    0.0000
     54 C27        8.2030   11.0453    2.5638 C.ar      1 RES1    0.0000
     55 H24        8.7277   10.4501    3.0499 H         1 RES1    0.0000
     56 C28        8.7545   11.7687    1.5216 C.ar      1 RES1    0.0000
     57 H25        9.6529   11.6584    1.3062 H         1 RES1    0.0000
     58 C29        5.5627   15.8060   -3.6185 C.ar      1 RES1    0.0000
     59 H26        6.2529   15.9321   -4.2286 H         1 RES1    0.0000
     60 C30        4.3194   15.3718   -4.0536 C.ar      1 RES1    0.0000
     61 H27        4.1773   15.2012   -4.9573 H         1 RES1    0.0000
@<TRIPOS>BOND
     1    1    3 1
     2    2    5 1
     3    3    8 1
     4    4    5 2
     5    5    1 1
     6    6    8 1
     7    7    9 ar
     8    8    4 1
     9    9   27 ar
    10   10   19 1
    11   11    8 1
    12   12    2 1
    13   13   12 1
    14   14   12 1
    15   15    6 ar
    16   16   15 1
    17   17   18 1
    18   19    3 1
    19   20   19 1
    20   21   19 1
    21   22    2 1
    22   23   22 1
    23   24   22 1
    24   25    6 ar
    25   26   25 1
    26   27   28 1
    27   29    7 ar
    28   30   29 1
    29   31    9 1
    30   32   31 1
    31   33   31 1
    32   34   11 ar
    33   35   34 1
    34   36   27 ar
    35   37   36 1
    36   38   10 ar
    37   39   38 1
    38   40   17 ar
    39   41   40 1
    40   42   11 ar
    41   43   42 1
    42   44   29 ar
    43   45   44 1
    44   46   15 ar
    45   47   46 1
    46   48   10 ar
    47   49   48 1
    48   50   38 ar
    49   51   50 1
    50   52   34 ar
    51   53   52 1
    52   54   50 ar
    53   55   54 1
    54   56   48 ar
    55   57   56 1
    56   58   42 ar
    57   59   58 1
    58   60   52 ar
    59   61   60 1
    60    7   22 1
    61   12   31 1
    62   17   25 ar
    63   36   44 ar
    64   40   46 ar
    65   54   56 ar
    66   58   60 ar
@<TRIPOS>SUBSTRUCTURE
     1 RES1 1

@<TRIPOS>CRYSIN
   6.4312   22.8417   15.8232  90.0000  95.9720  90.0000  14 1

