# MOL2 file generated by ConQuest
# Please check atom types

@<TRIPOS>MOLECULE
XAZFOU
    48    50     1
SMALL
NO_CHARGES
****
Generated from CSD

@<TRIPOS>ATOM
      1 O1         0.3145    1.5714    3.6930 O.3       1 RES1    0.0000
      2 N1         2.6050    1.2855    4.2188 N.3       1 RES1    0.0000
      3 O2        -0.7089    3.5539    0.9685 O.3       1 RES1    0.0000
      4 O3        -1.8733    2.1648    2.2637 O.2       1 RES1    0.0000
      5 O4         1.7589    1.6274    0.5116 O.2       1 RES1    0.0000
      6 C1         2.7913    2.1253    5.2928 C.ar      1 RES1    0.0000
      7 C2         4.0671    2.6391    5.4997 C.ar      1 RES1    0.0000
      8 H1         4.7502    2.4240    4.9061 H         1 RES1    0.0000
      9 C3        -0.8380    2.6451    1.9070 C.2       1 RES1    0.0000
     10 C4         0.5126    2.2912    2.4954 C.3       1 RES1    0.0000
     11 H2         1.0174    3.1104    2.6815 H         1 RES1    0.0000
     12 C5         3.3157    3.7325    7.4692 C.ar      1 RES1    0.0000
     13 C6         1.3912    0.6098    3.8231 C.3       1 RES1    0.0000
     14 C7         1.3524    1.3541    1.6089 C.2       1 RES1    0.0000
     15 C8         2.0474    3.2581    7.2596 C.ar      1 RES1    0.0000
     16 H3         1.3665    3.4774    7.8545 H         1 RES1    0.0000
     17 C9         4.3316    3.4573    6.5658 C.ar      1 RES1    0.0000
     18 H4         5.1787    3.8223    6.6817 H         1 RES1    0.0000
     19 N2         3.6200    4.5659    8.6264 N.pl3     1 RES1    0.0000
     20 O5         4.7156    5.0741    8.7345 O.2       1 RES1    0.0000
     21 C10        1.7758    2.4592    6.1714 C.ar      1 RES1    0.0000
     22 H5         0.9125    2.1448    6.0269 H         1 RES1    0.0000
     23 C11        1.5410    0.0764    2.3873 C.3       1 RES1    0.0000
     24 C12       -0.2672   -1.2079    4.4063 C.3       1 RES1    0.0000
     25 H6        -1.0303   -0.6107    4.3685 H         1 RES1    0.0000
     26 H7        -0.4600   -1.9016    5.0571 H         1 RES1    0.0000
     27 O6         2.7443    4.7041    9.4582 O.2       1 RES1    0.0000
     28 C13        2.8265   -0.6749    2.0645 C.3       1 RES1    0.0000
     29 H8         2.8179   -0.9423    1.1416 H         1 RES1    0.0000
     30 H9         2.8906   -1.4541    2.6216 H         1 RES1    0.0000
     31 H10        3.5806   -0.1027    2.2246 H         1 RES1    0.0000
     32 C14        0.2938   -0.7773    2.0190 C.3       1 RES1    0.0000
     33 H11       -0.4680   -0.1866    1.9148 H         1 RES1    0.0000
     34 H12        0.4515   -1.2062    1.1637 H         1 RES1    0.0000
     35 C15       -0.0535   -1.8428    3.0395 C.3       1 RES1    0.0000
     36 H13        0.6646   -2.4922    3.0903 H         1 RES1    0.0000
     37 H14       -0.8609   -2.3061    2.7661 H         1 RES1    0.0000
     38 C16        0.9587   -0.4329    4.8463 C.3       1 RES1    0.0000
     39 H15        1.6904   -1.0528    4.9934 H         1 RES1    0.0000
     40 H16        0.7692    0.0088    5.6885 H         1 RES1    0.0000
     41 C17       -1.9446    4.1100    0.4178 C.3       1 RES1    0.0000
     42 H17       -2.6150    3.4132    0.3450 H         1 RES1    0.0000
     43 H18       -1.7781    4.4668   -0.4686 H         1 RES1    0.0000
     44 C18       -2.4435    5.2043    1.3212 C.3       1 RES1    0.0000
     45 H19       -2.6688    4.8348    2.1778 H         1 RES1    0.0000
     46 H20       -3.2222    5.6098    0.9333 H         1 RES1    0.0000
     47 H21       -1.7579    5.8680    1.4306 H         1 RES1    0.0000
     48 H22        3.2656    1.3632    3.6448 H         1 RES1    0.0000
@<TRIPOS>BOND
     1    1   10 1
     2    2    6 1
     3    3    9 1
     4    4    9 2
     5    5   14 2
     6    6    7 ar
     7    7    8 1
     8    9   10 1
     9   10   11 1
    10   12   15 ar
    11   13    1 1
    12   14   10 1
    13   15   16 1
    14   17    7 ar
    15   18   17 1
    16   19   12 1
    17   20   19 2
    18   21    6 ar
    19   22   21 1
    20   23   13 1
    21   24   25 1
    22   26   24 1
    23   27   19 2
    24   28   23 1
    25   29   28 1
    26   30   28 1
    27   31   28 1
    28   32   23 1
    29   33   32 1
    30   34   32 1
    31   35   24 1
    32   36   35 1
    33   37   35 1
    34   38   13 1
    35   39   38 1
    36   40   38 1
    37   41    3 1
    38   42   41 1
    39   43   41 1
    40   44   41 1
    41   45   44 1
    42   46   44 1
    43   47   44 1
    44   48    2 1
    45    2   13 1
    46   12   17 ar
    47   14   23 1
    48   15   21 ar
    49   24   38 1
    50   32   35 1
@<TRIPOS>SUBSTRUCTURE
     1 RES1 1

@<TRIPOS>CRYSIN
   6.6119   10.4176   13.0721  91.0490  95.0240  95.5840   2 1

