# MOL2 file generated by ConQuest
# Please check atom types

@<TRIPOS>MOLECULE
XAZFIO
    36    38     1
SMALL
NO_CHARGES
****
Generated from CSD

@<TRIPOS>ATOM
      1 O1         0.5328    1.2699    3.0152 O.3       1 RES1    0.0000
      2 N1        -1.4870    0.7725    4.1286 N.3       1 RES1    0.0000
      3 C1        -0.4905   -1.9673    7.0587 C.ar      1 RES1    0.0000
      4 C2        -1.1095   -0.1352    5.0899 C.ar      1 RES1    0.0000
      5 C3         0.4556   -1.0651    6.6429 C.ar      1 RES1    0.0000
      6 H1         1.3040   -1.0738    7.0252 H         1 RES1    0.0000
      7 N2        -0.1597   -2.9202    8.1093 N.pl3     1 RES1    0.0000
      8 C4        -0.6722    1.8155    3.5775 C.3       1 RES1    0.0000
      9 C5        -2.0459   -1.0896    5.5308 C.ar      1 RES1    0.0000
     10 H2        -2.8903   -1.1094    5.1444 H         1 RES1    0.0000
     11 C6         0.1604   -0.1566    5.6746 C.ar      1 RES1    0.0000
     12 H3         0.8061    0.4531    5.3997 H         1 RES1    0.0000
     13 C7        -1.3384    2.5406    2.4082 C.3       1 RES1    0.0000
     14 O2        -0.9969   -3.7473    8.4288 O.2       1 RES1    0.0000
     15 O3         0.9317   -2.8775    8.6283 O.2       1 RES1    0.0000
     16 C8        -1.7419   -1.9808    6.5061 C.ar      1 RES1    0.0000
     17 H4        -2.3781   -2.5944    6.7964 H         1 RES1    0.0000
     18 C9        -0.2471    2.8901    4.5695 C.3       1 RES1    0.0000
     19 H5        -0.9596    3.0854    5.1974 H         1 RES1    0.0000
     20 H6         0.5423    2.6149    5.0620 H         1 RES1    0.0000
     21 C10       -0.8222    1.7831    1.2069 C.2       1 RES1    0.0000
     22 C11       -2.8617    2.6205    2.3971 C.3       1 RES1    0.0000
     23 H7        -3.1487    3.1851    1.6757 H         1 RES1    0.0000
     24 H8        -3.1699    2.9858    3.2300 H         1 RES1    0.0000
     25 H9        -3.2287    1.7404    2.2799 H         1 RES1    0.0000
     26 O4        -1.1890    1.9033    0.0963 O.2       1 RES1    0.0000
     27 C12        0.0486    4.0802    3.7016 C.3       1 RES1    0.0000
     28 H10       -0.2073    4.8962    4.1593 H         1 RES1    0.0000
     29 H11        0.9982    4.1229    3.5077 H         1 RES1    0.0000
     30 C13        0.2415    0.8540    1.6953 C.3       1 RES1    0.0000
     31 H12       -0.0750   -0.0633    1.6883 H         1 RES1    0.0000
     32 H13        1.0319    0.9149    1.1357 H         1 RES1    0.0000
     33 C14       -0.7007    3.9457    2.4752 C.3       1 RES1    0.0000
     34 H14       -0.1110    4.0746    1.7162 H         1 RES1    0.0000
     35 H15       -1.3946    4.6226    2.4403 H         1 RES1    0.0000
     36 H16       -2.2394    0.5614    3.7812 H         1 RES1    0.0000
@<TRIPOS>BOND
     1    1    8 1
     2    2    4 1
     3    3    5 ar
     4    4    9 ar
     5    5    6 1
     6    7    3 1
     7    8    2 1
     8    9   10 1
     9   11    4 ar
    10   12   11 1
    11   13    8 1
    12   14    7 2
    13   15    7 2
    14   16    3 ar
    15   17   16 1
    16   18    8 1
    17   19   18 1
    18   20   18 1
    19   21   13 1
    20   22   13 1
    21   23   22 1
    22   24   22 1
    23   25   22 1
    24   26   21 2
    25   27   18 1
    26   28   27 1
    27   29   27 1
    28   30    1 1
    29   31   30 1
    30   32   30 1
    31   33   13 1
    32   34   33 1
    33   35   33 1
    34   36    2 1
    35    5   11 ar
    36    9   16 ar
    37   21   30 1
    38   27   33 1
@<TRIPOS>SUBSTRUCTURE
     1 RES1 1

@<TRIPOS>CRYSIN
  12.4574    7.9073   14.8060  90.0000 109.5470  90.0000 231 1

