# MOL2 file generated by ConQuest
# Please check atom types

@<TRIPOS>MOLECULE
XAZGAI
    18    19     1
SMALL
NO_CHARGES
****
Generated from CSD

@<TRIPOS>ATOM
      1 N1         5.7936    6.3129   12.9199 N.pl3     1 RES1    0.0000
      2 O1         3.9986    0.0922    9.8445 O.2       1 RES1    0.0000
      3 C1         4.2659    1.1518   10.3035 C.2       1 RES1    0.0000
      4 O2         4.0445    2.3016    9.5636 O.3       1 RES1    0.0000
      5 C2         4.4461    3.3850   10.3189 C.ar      1 RES1    0.0000
      6 O3         6.2334    5.9832   14.0043 O.2       1 RES1    0.0000
      7 C3         4.9377    3.0072   11.5579 C.ar      1 RES1    0.0000
      8 O4         5.7646    7.4682   12.5613 O.2       1 RES1    0.0000
      9 C4         4.8468    1.5271   11.6432 C.3       1 RES1    0.0000
     10 H1         4.2644    1.2517   12.3683 H         1 RES1    0.0000
     11 H2         5.7221    1.1286   11.7698 H         1 RES1    0.0000
     12 C5         4.3628    4.6902    9.8961 C.ar      1 RES1    0.0000
     13 H3         4.0235    4.9113    9.0592 H         1 RES1    0.0000
     14 C6         4.8061    5.6557   10.7746 C.ar      1 RES1    0.0000
     15 H4         4.7734    6.5543   10.5381 H         1 RES1    0.0000
     16 C7         5.3014    5.2788   12.0136 C.ar      1 RES1    0.0000
     17 C8         5.3826    3.9681   12.4333 C.ar      1 RES1    0.0000
     18 H5         5.7233    3.7452   13.2700 H         1 RES1    0.0000
@<TRIPOS>BOND
     1    1    6 2
     2    2    3 2
     3    3    4 1
     4    4    5 1
     5    5    7 ar
     6    7    9 1
     7    8    1 2
     8    9    3 1
     9   10    9 1
    10   11    9 1
    11   12    5 ar
    12   13   12 1
    13   14   12 ar
    14   15   14 1
    15   16    1 1
    16   17    7 ar
    17   18   17 1
    18   14   16 ar
    19   16   17 ar
@<TRIPOS>SUBSTRUCTURE
     1 RES1 1

@<TRIPOS>CRYSIN
   7.4510    8.9150   11.2490  90.0000  93.4500  90.0000  14 1

