# MOL2 file generated by ConQuest
# Please check atom types

@<TRIPOS>MOLECULE
XAZJOA
    52    57     1
SMALL
USER_CHARGES
****
Generated from CSD

@<TRIPOS>ATOM
      1 C1        10.6992    8.8476    3.3503 C.3       1 RES1    0.0000
      2 H1        11.4386    9.2022    3.8515 H         1 RES1    0.0000
      3 H2        10.7973    9.0821    2.4248 H         1 RES1    0.0000
      4 H3        10.6827    7.8915    3.4397 H         1 RES1    0.0000
      5 C2         9.1866    9.2309    5.1679 C.ar      1 RES1    0.0000
      6 C3         9.9759    8.5835    6.0891 C.ar      1 RES1    0.0000
      7 H4        10.7848    8.2116    5.8209 H         1 RES1    0.0000
      8 C4         9.5796    8.4774    7.4110 C.ar      1 RES1    0.0000
      9 H5        10.1187    8.0448    8.0336 H         1 RES1    0.0000
     10 C5         8.3684    9.0275    7.7905 C.ar      1 RES1    0.0000
     11 C6         7.5613    9.6598    6.8680 C.ar      1 RES1    0.0000
     12 H6         6.7464   10.0215    7.1331 H         1 RES1    0.0000
     13 C7         7.9603    9.7545    5.5672 C.ar      1 RES1    0.0000
     14 H7         7.4098   10.1702    4.9433 H         1 RES1    0.0000
     15 C8         7.5032    8.0266    9.9548 C.2       1 RES1    0.0000
     16 C9         7.5028    8.5159   11.2674 C.2       1 RES1    0.0000
     17 C10        7.1418    6.7035    9.4939 C.2       1 RES1    0.0000
     18 C11        6.7195    5.0770    8.2707 C.2       1 RES1    0.0000
     19 C12        6.5145    4.0947    7.1826 C.3       1 RES1    0.0000
     20 H8         7.0833    3.3256    7.3452 H         1 RES1    0.0000
     21 H9         5.5944    3.7904    7.2059 H         1 RES1    0.0000
     22 C13        8.1194    5.0493    5.4653 C.3       1 RES1    0.0000
     23 H10        8.6639    5.4042    6.1994 H         1 RES1    0.0000
     24 C14        7.7289    6.1019    4.4358 C.3       1 RES1    0.0000
     25 H11        8.1203    6.9727    4.6563 H         1 RES1    0.0000
     26 C15        8.2526    5.5919    3.1257 C.2       1 RES1    0.0000
     27 C16        8.8133    3.9597    4.6694 C.2       1 RES1    0.0000
     28 C17        9.3873    3.5323    2.2799 C.ar      1 RES1    0.0000
     29 C18        8.6331    3.2512    1.1604 C.ar      1 RES1    0.0000
     30 H12        7.7809    3.6117    1.0627 H         1 RES1    0.0000
     31 C19        9.1718    2.4080    0.1684 C.ar      1 RES1    0.0000
     32 H13        8.6768    2.2155   -0.5948 H         1 RES1    0.0000
     33 C20       10.4317    1.8683    0.3265 C.ar      1 RES1    0.0000
     34 H14       10.7798    1.3035   -0.3265 H         1 RES1    0.0000
     35 C21       11.1527    2.1563    1.4183 C.ar      1 RES1    0.0000
     36 H15       11.9994    1.7838    1.5119 H         1 RES1    0.0000
     37 C22       10.6640    3.0021    2.4207 C.ar      1 RES1    0.0000
     38 H16       11.1832    3.2046    3.1652 H         1 RES1    0.0000
     39 N1         8.0117    9.0195    9.1830 N.pl3     1 RES1    1.0000
     40 N2         8.2854   10.1146    9.8348 N.2       1 RES1    0.0000
     41 N3         6.9223    5.7477   10.3644 N.2       1 RES1    0.0000
     42 N4         7.0201    6.3407    8.1783 N.2       1 RES1    0.0000
     43 N5         6.7972    4.6097    5.8833 N.3       1 RES1    0.0000
     44 N6         5.8167    5.3460    5.2822 N.2       1 RES1    0.0000
     45 N7         6.2716    6.1631    4.4462 N.2       1 RES1    0.0000
     46 N8         8.8384    4.3437    3.3291 N.am      1 RES1    0.0000
     47 O1         9.4807    9.3934    3.8540 O.3       1 RES1    0.0000
     48 O2         7.9646    9.8478   11.1368 O.3       1 RES1    0.0000
     49 O3         7.2469    8.0631   12.3627 O.2       1 RES1   -1.0000
     50 O4         6.6312    4.6419    9.5392 O.3       1 RES1    0.0000
     51 O5         8.1674    6.1381    2.0609 O.2       1 RES1    0.0000
     52 O6         9.2135    2.9327    5.1084 O.2       1 RES1    0.0000
@<TRIPOS>BOND
     1    1    2 1
     2    3    1 1
     3    4    1 1
     4    5    6 ar
     5    6    7 1
     6    8    6 ar
     7    9    8 1
     8   10    8 ar
     9   11   10 ar
    10   12   11 1
    11   13    5 ar
    12   14   13 1
    13   15   16 2
    14   16   48 1
    15   17   15 1
    16   18   19 1
    17   19   20 1
    18   21   19 1
    19   22   23 1
    20   24   22 1
    21   25   24 1
    22   26   24 1
    23   27   22 1
    24   28   29 ar
    25   29   30 1
    26   31   29 ar
    27   32   31 1
    28   33   31 ar
    29   34   33 1
    30   35   33 ar
    31   36   35 1
    32   37   28 ar
    33   38   37 1
    34   39   10 1
    35   40   39 2
    36   41   17 2
    37   42   17 1
    38   43   19 1
    39   44   43 1
    40   45   24 1
    41   46   26 1
    42   47    1 1
    43   48   40 1
    44   49   16 1
    45   50   18 1
    46   51   26 2
    47   52   27 2
    48    5   47 1
    49   11   13 ar
    50   15   39 1
    51   18   42 2
    52   22   43 1
    53   27   46 1
    54   28   46 1
    55   35   37 ar
    56   41   50 1
    57   44   45 2
@<TRIPOS>SUBSTRUCTURE
     1 RES1 1

@<TRIPOS>CRYSIN
   6.1547    9.0707   21.2020  79.4380  83.5990  74.7720   2 1

