# MOL2 file generated by ConQuest
# Please check atom types

@<TRIPOS>MOLECULE
XAZJOZ
    44    46     1
SMALL
NO_CHARGES
****
Generated from CSD

@<TRIPOS>ATOM
      1 O1        -3.9218    2.1638    3.8410 O.2       1 RES1    0.0000
      2 O2        -2.7643    2.1548    6.1370 O.3       1 RES1    0.0000
      3 O3        -0.4593    2.7759   12.8279 O.2       1 RES1    0.0000
      4 O4         0.8214    1.3222   13.7197 O.2       1 RES1    0.0000
      5 N1        -4.3671   -0.0168    3.1113 N.am      1 RES1    0.0000
      6 N2        -4.1140   -1.3135    3.5765 N.2       1 RES1    0.0000
      7 N3         0.0681    1.6878   12.8341 N.pl3     1 RES1    0.0000
      8 C1        -5.0205    0.1361    1.8593 C.ar      1 RES1    0.0000
      9 C2        -5.3198   -0.9753    1.1034 C.ar      1 RES1    0.0000
     10 C3        -5.9684   -0.8376   -0.1032 C.ar      1 RES1    0.0000
     11 C4        -6.3304    0.3901   -0.6057 C.ar      1 RES1    0.0000
     12 C5        -6.0134    1.4874    0.1595 C.ar      1 RES1    0.0000
     13 C6        -5.3658    1.3845    1.3799 C.ar      1 RES1    0.0000
     14 C7        -7.0523    0.5291   -1.9217 C.3       1 RES1    0.0000
     15 C8        -3.4860   -1.1958    4.7081 C.2       1 RES1    0.0000
     16 C9        -3.0551   -2.4182    5.4324 C.3       1 RES1    0.0000
     17 C10       -3.3094    0.1756    5.0649 C.2       1 RES1    0.0000
     18 C11       -3.8802    0.9125    3.9772 C.2       1 RES1    0.0000
     19 C12       -2.7675    0.8449    6.1443 C.2       1 RES1    0.0000
     20 C13       -2.2006    0.2264    7.3215 C.2       1 RES1    0.0000
     21 C14       -1.7451    0.9072    8.3552 C.2       1 RES1    0.0000
     22 C15       -1.1197    0.3877    9.5653 C.ar      1 RES1    0.0000
     23 C16       -0.8230    1.2462   10.6131 C.ar      1 RES1    0.0000
     24 C17       -0.2140    0.7570   11.7427 C.ar      1 RES1    0.0000
     25 C18        0.1251   -0.5590   11.8933 C.ar      1 RES1    0.0000
     26 C19       -0.1681   -1.4185   10.8538 C.ar      1 RES1    0.0000
     27 C20       -0.7818   -0.9550    9.7162 C.ar      1 RES1    0.0000
     28 H1        -5.0833   -1.8216    1.4087 H         1 RES1    0.0000
     29 H2        -3.1366    2.4252    5.4583 H         1 RES1    0.0000
     30 H3        -6.1688   -1.6005   -0.5952 H         1 RES1    0.0000
     31 H4        -6.2426    2.3322   -0.1545 H         1 RES1    0.0000
     32 H5        -5.1657    2.1483    1.8715 H         1 RES1    0.0000
     33 H6        -6.7286   -0.1346   -2.5355 H         1 RES1    0.0000
     34 H7        -6.8936    1.4039   -2.2833 H         1 RES1    0.0000
     35 H8        -7.9943    0.4055   -1.7846 H         1 RES1    0.0000
     36 H9        -3.5200   -2.4749    6.2697 H         1 RES1    0.0000
     37 H10       -2.1093   -2.3779    5.5930 H         1 RES1    0.0000
     38 H11       -3.2562   -3.1923    4.9009 H         1 RES1    0.0000
     39 H12       -2.1546   -0.7020    7.3516 H         1 RES1    0.0000
     40 H13       -1.8339    1.8317    8.3061 H         1 RES1    0.0000
     41 H14       -1.0358    2.1495   10.5513 H         1 RES1    0.0000
     42 H15        0.5385   -0.8641   12.6686 H         1 RES1    0.0000
     43 H16        0.0521   -2.3193   10.9243 H         1 RES1    0.0000
     44 H17       -0.9765   -1.5519    9.0301 H         1 RES1    0.0000
@<TRIPOS>BOND
     1    1   18 2
     2    2   19 1
     3    3    7 2
     4    4    7 2
     5    5    6 1
     6    6   15 2
     7    7   24 1
     8    8    5 1
     9    9    8 ar
    10   10    9 ar
    11   11   10 ar
    12   12   11 ar
    13   13    8 ar
    14   14   11 1
    15   15   16 1
    16   16   36 1
    17   17   15 1
    18   18    5 1
    19   19   17 2
    20   20   19 1
    21   21   20 2
    22   22   21 1
    23   23   22 ar
    24   24   23 ar
    25   25   24 ar
    26   26   25 ar
    27   27   22 ar
    28   28    9 1
    29   29    2 1
    30   30   10 1
    31   31   12 1
    32   32   13 1
    33   33   14 1
    34   34   14 1
    35   35   14 1
    36   37   16 1
    37   38   16 1
    38   39   20 1
    39   40   21 1
    40   41   23 1
    41   42   25 1
    42   43   26 1
    43   44   27 1
    44   12   13 ar
    45   17   18 1
    46   26   27 ar
@<TRIPOS>SUBSTRUCTURE
     1 RES1 1

@<TRIPOS>CRYSIN
  19.8712   12.1917   16.7330  90.0000 121.1880  90.0000  15 1

