# MOL2 file generated by ConQuest
# Please check atom types

@<TRIPOS>MOLECULE
XAZJIU
    46    50     1
SMALL
USER_CHARGES
****
Generated from CSD

@<TRIPOS>ATOM
      1 C1        -0.3301    7.0655    9.0774 C.3       1 RES1    0.0000
      2 H1         0.1650    7.8102    9.4262 H         1 RES1    0.0000
      3 H2        -1.1938    7.0326    9.4963 H         1 RES1    0.0000
      4 H3        -0.4369    7.1668    8.1297 H         1 RES1    0.0000
      5 C2         1.6364    5.7389    8.8621 C.ar      1 RES1    0.0000
      6 C3         2.2730    6.7132    8.1004 C.ar      1 RES1    0.0000
      7 H4         1.8407    7.5116    7.9019 H         1 RES1    0.0000
      8 C4         3.5561    6.4803    7.6417 C.ar      1 RES1    0.0000
      9 H5         3.9941    7.1200    7.1278 H         1 RES1    0.0000
     10 C5         4.1772    5.2947    7.9523 C.ar      1 RES1    0.0000
     11 C6         3.5654    4.3204    8.7240 C.ar      1 RES1    0.0000
     12 H6         4.0075    3.5277    8.9293 H         1 RES1    0.0000
     13 C7         2.2921    4.5533    9.1763 C.ar      1 RES1    0.0000
     14 H7         1.8632    3.9136    9.6970 H         1 RES1    0.0000
     15 C8         6.6816    4.8202    8.0293 C.2       1 RES1    0.0000
     16 C9         7.6602    4.7677    7.0095 C.2       1 RES1    0.0000
     17 C10        6.9110    4.6874    9.4522 C.2       1 RES1    0.0000
     18 C11        7.9455    4.2996   11.2029 C.2       1 RES1    0.0000
     19 C12        8.8698    3.8864   12.3054 C.3       1 RES1    0.0000
     20 H8         8.6186    4.3394   13.1247 H         1 RES1    0.0000
     21 H9         8.7893    2.9311   12.4526 H         1 RES1    0.0000
     22 C13       11.1873    3.4480   11.4015 C.2       1 RES1    0.0000
     23 H10       11.1110    2.5604   11.1337 H         1 RES1    0.0000
     24 C14       12.2785    4.2559   11.2925 C.2       1 RES1    0.0000
     25 C15       13.6300    3.9782   10.7703 C.ar      1 RES1    0.0000
     26 C16       14.6658    4.8620   11.0318 C.ar      1 RES1    0.0000
     27 H11       14.5034    5.6313   11.5287 H         1 RES1    0.0000
     28 C17       15.9454    4.6026   10.5555 C.ar      1 RES1    0.0000
     29 H12       16.6395    5.1872   10.7562 H         1 RES1    0.0000
     30 C18       16.1876    3.4948    9.7967 C.ar      1 RES1    0.0000
     31 H13       17.0414    3.3360    9.4629 H         1 RES1    0.0000
     32 C19       15.1787    2.6236    9.5298 C.ar      1 RES1    0.0000
     33 H14       15.3471    1.8670    9.0153 H         1 RES1    0.0000
     34 C20       13.9015    2.8558   10.0181 C.ar      1 RES1    0.0000
     35 H15       13.2214    2.2478    9.8356 H         1 RES1    0.0000
     36 N1         5.5081    5.0765    7.4099 N.pl3     1 RES1    1.0000
     37 N2         5.5976    5.1967    6.1164 N.2       1 RES1    0.0000
     38 N3         8.1461    4.3141    9.9291 N.2       1 RES1    0.0000
     39 N4         6.0111    4.9000   10.3709 N.2       1 RES1    0.0000
     40 N5        10.2452    4.2110   11.9776 N.pl3     1 RES1    0.0000
     41 N6        10.7107    5.4453   12.2108 N.2       1 RES1    0.0000
     42 N7        11.9524    5.4757   11.7955 N.2       1 RES1    0.0000
     43 O1         0.3739    5.8591    9.3498 O.3       1 RES1    0.0000
     44 O2         6.9197    5.0347    5.8297 O.3       1 RES1    0.0000
     45 O3         8.8498    4.5881    6.9493 O.2       1 RES1   -1.0000
     46 O4         6.7179    4.6431   11.5671 O.3       1 RES1    0.0000
@<TRIPOS>BOND
     1    1    2 1
     2    3    1 1
     3    4    1 1
     4    5    6 ar
     5    6    7 1
     6    8    6 ar
     7    9    8 1
     8   10    8 ar
     9   11   10 ar
    10   12   11 1
    11   13    5 ar
    12   14   13 1
    13   15   16 2
    14   16   44 1
    15   17   15 1
    16   18   19 1
    17   19   20 1
    18   21   19 1
    19   22   23 1
    20   24   22 2
    21   25   24 1
    22   26   25 ar
    23   27   26 1
    24   28   26 ar
    25   29   28 1
    26   30   28 ar
    27   31   30 1
    28   32   30 ar
    29   33   32 1
    30   34   25 ar
    31   35   34 1
    32   36   10 1
    33   37   36 2
    34   38   17 1
    35   39   17 2
    36   40   19 1
    37   41   40 1
    38   42   24 1
    39   43    1 1
    40   44   37 1
    41   45   16 1
    42   46   18 1
    43    5   43 1
    44   11   13 ar
    45   15   36 1
    46   18   38 2
    47   22   40 1
    48   32   34 ar
    49   39   46 1
    50   41   42 2
@<TRIPOS>SUBSTRUCTURE
     1 RES1 1

@<TRIPOS>CRYSIN
  18.8858    6.3266   16.4448  90.0000 104.4010  90.0000  14 1

