# MOL2 file generated by ConQuest
# Please check atom types

@<TRIPOS>MOLECULE
XEBHET
    26    26     1
SMALL
NO_CHARGES
****
Generated from CSD

@<TRIPOS>ATOM
      1 O1         0.0715    3.4923    3.4828 O.2       1 RES1    0.0000
      2 O2         1.4946    2.9234    7.1124 O.3       1 RES1    0.0000
      3 O3         4.9042    0.9105    6.4994 O.2       1 RES1    0.0000
      4 O4         5.4837    0.4454    4.4844 O.2       1 RES1    0.0000
      5 N1         1.9061    2.3467    2.8458 N.2       1 RES1    0.0000
      6 N2         1.1382    2.8856    3.6758 N.pl3     1 RES1    0.0000
      7 N3         0.8180    3.2120    5.9775 N.2       1 RES1    0.0000
      8 N4         2.6888    2.2868    6.8536 N.2       1 RES1    0.0000
      9 N5         3.7104    1.6238    4.8019 N.pl3     1 RES1    0.0000
     10 N6         4.7690    0.9370    5.3136 N.pl3     1 RES1    0.0000
     11 C1         2.6273    1.6886    0.7200 C.3       1 RES1    0.0000
     12 H1         2.6354    0.7781    1.0235 H         1 RES1    0.0000
     13 H2         3.4719    2.0996    0.9191 H         1 RES1    0.0000
     14 H3         2.4763    1.7087   -0.2275 H         1 RES1    0.0000
     15 C2         0.2046    1.7453    1.1688 C.3       1 RES1    0.0000
     16 H4        -0.4926    2.2348    1.6108 H         1 RES1    0.0000
     17 H5         0.2379    0.8512    1.5157 H         1 RES1    0.0000
     18 H6         0.0266    1.7169    0.2256 H         1 RES1    0.0000
     19 C3         1.5059    3.8677    0.9559 C.3       1 RES1    0.0000
     20 H7         0.8006    4.3326    1.4132 H         1 RES1    0.0000
     21 H8         1.3486    3.8997    0.0093 H         1 RES1    0.0000
     22 H9         2.3461    4.2869    1.1540 H         1 RES1    0.0000
     23 C4         1.5389    2.4330    1.4115 C.3       1 RES1    0.0000
     24 C5         1.5570    2.7485    5.0353 C.2       1 RES1    0.0000
     25 C6         2.7257    2.1698    5.5621 C.2       1 RES1    0.0000
     26 H10        3.6162    1.5526    3.9413 H         1 RES1    0.0000
@<TRIPOS>BOND
     1    1    6 1
     2    2    7 1
     3    3   10 2
     4    4   10 2
     5    5    6 2
     6    6   24 1
     7    7   24 2
     8    8    2 1
     9    9   10 1
    10   11   12 1
    11   13   11 1
    12   14   11 1
    13   15   16 1
    14   17   15 1
    15   18   15 1
    16   19   20 1
    17   21   19 1
    18   22   19 1
    19   23    5 1
    20   24   25 1
    21   25    8 2
    22   26    9 1
    23    9   25 1
    24   11   23 1
    25   15   23 1
    26   19   23 1
@<TRIPOS>SUBSTRUCTURE
     1 RES1 1

@<TRIPOS>CRYSIN
   6.2509    9.1327   18.6566  90.0000  92.1340  90.0000 231 1

