# MOL2 file generated by ConQuest
# Please check atom types

@<TRIPOS>MOLECULE
XEBNOJ
    45    46     1
SMALL
NO_CHARGES
****
Generated from CSD

@<TRIPOS>ATOM
      1 C1         2.0298    3.4365    1.6307 C.3       1 RES1    0.0000
      2 H1         1.5318    4.2530    1.4178 H         1 RES1    0.0000
      3 C2         2.4322    3.4910    3.1284 C.3       1 RES1    0.0000
      4 H2         2.9492    2.6825    3.3265 H         1 RES1    0.0000
      5 C3         1.2115    3.4921    4.0347 C.2       1 RES1    0.0000
      6 C4         0.2384    2.3750    3.7523 C.3       1 RES1    0.0000
      7 H3        -0.5465    2.4817    4.3111 H         1 RES1    0.0000
      8 H4         0.6503    1.5246    3.9711 H         1 RES1    0.0000
      9 C5        -0.1768    2.3738    2.2975 C.3       1 RES1    0.0000
     10 C6         1.0964    2.2338    1.4075 C.3       1 RES1    0.0000
     11 H5         1.5710    1.4156    1.6647 H         1 RES1    0.0000
     12 C7         3.2772    3.4078    0.7747 C.ar      1 RES1    0.0000
     13 C8         3.5110    4.4097   -0.1612 C.ar      1 RES1    0.0000
     14 H6         2.8720    5.0718   -0.2913 H         1 RES1    0.0000
     15 C9         4.6752    4.4383   -0.9018 C.ar      1 RES1    0.0000
     16 H7         4.8019    5.1085   -1.5331 H         1 RES1    0.0000
     17 C10        5.6418    3.4899   -0.7126 C.ar      1 RES1    0.0000
     18 H8         6.4360    3.5117   -1.1961 H         1 RES1    0.0000
     19 C11        5.4018    2.5018    0.2144 C.ar      1 RES1    0.0000
     20 C12        4.2419    2.4329    0.9447 C.ar      1 RES1    0.0000
     21 H9         4.1065    1.7380    1.5479 H         1 RES1    0.0000
     22 C13        0.6911    2.1225   -0.0310 C.2       1 RES1    0.0000
     23 C14        0.2810    0.5784   -1.7653 C.3       1 RES1    0.0000
     24 H10       -0.6650    0.7391   -1.8037 H         1 RES1    0.0000
     25 H11        0.4580   -0.3385   -1.9885 H         1 RES1    0.0000
     26 H12        0.7287    1.1522   -2.3906 H         1 RES1    0.0000
     27 C15        3.3153    4.6742    3.4063 C.2       1 RES1    0.0000
     28 C16        5.3418    5.3851    4.3703 C.3       1 RES1    0.0000
     29 H13        5.7070    5.7374    3.5557 H         1 RES1    0.0000
     30 H14        6.0504    5.0391    4.9173 H         1 RES1    0.0000
     31 H15        4.8856    6.0840    4.8449 H         1 RES1    0.0000
     32 C17       -1.1872    1.2560    2.0388 C.3       1 RES1    0.0000
     33 H16       -1.9319    1.3547    2.6346 H         1 RES1    0.0000
     34 H17       -0.7680    0.4051    2.1866 H         1 RES1    0.0000
     35 H18       -1.4955    1.3071    1.1310 H         1 RES1    0.0000
     36 N1         6.4431    1.5028    0.4554 N.pl3     1 RES1    0.0000
     37 O1         1.0519    4.3178    4.8951 O.2       1 RES1    0.0000
     38 O2         3.0532    5.8017    3.0959 O.2       1 RES1    0.0000
     39 O3         4.4108    4.3253    4.0628 O.3       1 RES1    0.0000
     40 O4         0.3181    3.0222   -0.7203 O.2       1 RES1    0.0000
     41 O5        -0.7770    3.6488    2.0988 O.3       1 RES1    0.0000
     42 H19       -1.1170    3.6781    1.3528 H         1 RES1    0.0000
     43 O6         0.7564    0.8487   -0.4462 O.3       1 RES1    0.0000
     44 O7         6.1869    0.5767    1.2079 O.2       1 RES1    0.0000
     45 O8         7.5098    1.6221   -0.1035 O.2       1 RES1    0.0000
@<TRIPOS>BOND
     1    1    2 1
     2    3    1 1
     3    4    3 1
     4    5    3 1
     5    6    5 1
     6    7    6 1
     7    8    6 1
     8    9    6 1
     9   10    1 1
    10   11   10 1
    11   12    1 1
    12   13   12 ar
    13   14   13 1
    14   15   13 ar
    15   16   15 1
    16   17   15 ar
    17   18   17 1
    18   19   17 ar
    19   20   12 ar
    20   21   20 1
    21   22   10 1
    22   23   24 1
    23   25   23 1
    24   26   23 1
    25   27    3 1
    26   28   29 1
    27   30   28 1
    28   31   28 1
    29   32    9 1
    30   33   32 1
    31   34   32 1
    32   35   32 1
    33   36   19 1
    34   37    5 2
    35   38   27 2
    36   39   27 1
    37   40   22 2
    38   41    9 1
    39   42   41 1
    40   43   22 1
    41   44   36 2
    42   45   36 2
    43    9   10 1
    44   19   20 ar
    45   23   43 1
    46   28   39 1
@<TRIPOS>SUBSTRUCTURE
     1 RES1 1

@<TRIPOS>CRYSIN
  20.1842    5.7380   15.5771  90.0000 108.3570  90.0000   9 1

