# MOL2 file generated by ConQuest
# Please check atom types

@<TRIPOS>MOLECULE
XEBSII
    28    30     1
SMALL
NO_CHARGES
****
Generated from CSD

@<TRIPOS>ATOM
      1 N1         6.7022    1.2666   10.5552 N.3       1 RES1    0.0000
      2 N2         7.7758    0.5565   10.1799 N.2       1 RES1    0.0000
      3 N3         8.4113    0.1983   11.2660 N.2       1 RES1    0.0000
      4 C1         7.7023    0.6655   12.3465 C.ar      1 RES1    0.0000
      5 C2         7.9300    0.4969   13.7228 C.ar      1 RES1    0.0000
      6 H1         8.6831    0.0157   14.0450 H         1 RES1    0.0000
      7 C3         7.0171    1.0566   14.5773 C.ar      1 RES1    0.0000
      8 H2         7.1362    0.9531   15.5153 H         1 RES1    0.0000
      9 C4         5.9053    1.7840   14.1032 C.ar      1 RES1    0.0000
     10 H3         5.3050    2.1688   14.7332 H         1 RES1    0.0000
     11 C5         5.6602    1.9540   12.7639 C.ar      1 RES1    0.0000
     12 H4         4.9081    2.4384   12.4427 H         1 RES1    0.0000
     13 C6         6.5897    1.3670   11.9039 C.ar      1 RES1    0.0000
     14 O1         5.7855    1.6759    9.6208 O.3       1 RES1    0.0000
     15 C7         6.3355    2.7817    8.8386 C.3       1 RES1    0.0000
     16 H5         7.1351    2.4855    8.3366 H         1 RES1    0.0000
     17 H6         6.5955    3.5295    9.4336 H         1 RES1    0.0000
     18 C8         5.2584    3.2144    7.8983 C.ar      1 RES1    0.0000
     19 C9         5.3190    2.8860    6.5540 C.ar      1 RES1    0.0000
     20 H7         6.0447    2.3655    6.2290 H         1 RES1    0.0000
     21 C10        4.3314    3.3077    5.6772 C.ar      1 RES1    0.0000
     22 H8         4.3854    3.0812    4.7562 H         1 RES1    0.0000
     23 C11        3.2700    4.0578    6.1414 C.ar      1 RES1    0.0000
     24 H9         2.5968    4.3509    5.5383 H         1 RES1    0.0000
     25 C12        3.1869    4.3807    7.4801 C.ar      1 RES1    0.0000
     26 H10        2.4473    4.8824    7.8034 H         1 RES1    0.0000
     27 C13        4.1812    3.9731    8.3521 C.ar      1 RES1    0.0000
     28 H11        4.1291    4.2122    9.2711 H         1 RES1    0.0000
@<TRIPOS>BOND
     1    1    2 1
     2    2    3 2
     3    3    4 1
     4    4    5 ar
     5    5    6 1
     6    7    5 ar
     7    8    7 1
     8    9    7 ar
     9   10    9 1
    10   11    9 ar
    11   12   11 1
    12   13    1 1
    13   14    1 1
    14   15   14 1
    15   16   15 1
    16   17   15 1
    17   18   15 1
    18   19   18 ar
    19   20   19 1
    20   21   19 ar
    21   22   21 1
    22   23   21 ar
    23   24   23 1
    24   25   23 ar
    25   26   25 1
    26   27   18 ar
    27   28   27 1
    28    4   13 ar
    29   11   13 ar
    30   25   27 ar
@<TRIPOS>SUBSTRUCTURE
     1 RES1 1

@<TRIPOS>CRYSIN
  11.2417    7.8381   25.3933  90.0000  90.0000  90.0000  61 1

