# MOL2 file generated by ConQuest
# Please check atom types

@<TRIPOS>MOLECULE
XECKOG
    29    30     1
SMALL
NO_CHARGES
****
Generated from CSD

@<TRIPOS>ATOM
      1 O1         6.1705    4.8725    7.9386 O.2       1 RES1    0.0000
      2 O2         8.5237    6.7796   11.1381 O.3       1 RES1    0.0000
      3 O3        10.0027    5.5321   13.0711 O.2       1 RES1    0.0000
      4 O4         9.4108    3.5804   12.2178 O.3       1 RES1    0.0000
      5 N1         7.6248    7.1446   10.1267 N.2       1 RES1    0.0000
      6 C1         8.5153    5.4361   11.2423 C.2       1 RES1    0.0000
      7 C2         7.6839    4.9198   10.3369 C.2       1 RES1    0.0000
      8 C3         7.1477    6.0308    9.6668 C.2       1 RES1    0.0000
      9 C4         6.2127    5.9403    8.4973 C.2       1 RES1    0.0000
     10 C5         5.3837    7.0878    8.0607 C.ar      1 RES1    0.0000
     11 C6         4.5567    6.9040    6.9739 C.ar      1 RES1    0.0000
     12 C7         3.7416    7.9015    6.5212 C.ar      1 RES1    0.0000
     13 C8         3.7454    9.1098    7.1409 C.ar      1 RES1    0.0000
     14 C9         4.5454    9.3152    8.2062 C.ar      1 RES1    0.0000
     15 C10        5.3642    8.3069    8.6841 C.ar      1 RES1    0.0000
     16 C11        9.4062    4.8833   12.2770 C.2       1 RES1    0.0000
     17 C12       10.1300    2.8384   13.3280 C.3       1 RES1    0.0000
     18 C13       11.0345    2.2437   12.9040 C.3       1 RES1    0.0000
     19 H1         7.4995    4.0061   10.1788 H         1 RES1    0.0000
     20 H2         4.5414    6.0619    6.5373 H         1 RES1    0.0000
     21 H3         3.1789    7.7501    5.7720 H         1 RES1    0.0000
     22 H4         3.1879    9.8072    6.8230 H         1 RES1    0.0000
     23 H5         4.5489   10.1586    8.6428 H         1 RES1    0.0000
     24 H6         5.9196    8.4637    9.4440 H         1 RES1    0.0000
     25 H7        10.4042    3.4277   14.0052 H         1 RES1    0.0000
     26 H8         9.5279    2.1815   13.7142 H         1 RES1    0.0000
     27 H9        11.5075    1.7936   13.5813 H         1 RES1    0.0000
     28 H10       10.7746    1.6476   12.2231 H         1 RES1    0.0000
     29 H11       11.6485    2.8992   12.5016 H         1 RES1    0.0000
@<TRIPOS>BOND
     1    1    9 2
     2    2    5 1
     3    3   16 2
     4    4   16 1
     5    5    8 2
     6    6    2 1
     7    7    6 2
     8    8    7 1
     9    9    8 1
    10   10    9 1
    11   11   10 ar
    12   12   11 ar
    13   13   12 ar
    14   14   13 ar
    15   15   10 ar
    16   16    6 1
    17   17    4 1
    18   18   17 1
    19   19    7 1
    20   20   11 1
    21   21   12 1
    22   22   13 1
    23   23   14 1
    24   24   15 1
    25   25   17 1
    26   26   17 1
    27   27   18 1
    28   28   18 1
    29   29   18 1
    30   14   15 ar
@<TRIPOS>SUBSTRUCTURE
     1 RES1 1

@<TRIPOS>CRYSIN
   9.8870   13.5160   18.1110  90.0000  97.2890  90.0000  15 1

