# MOL2 file generated by ConQuest
# Please check atom types

@<TRIPOS>MOLECULE
XECYIO
    60    65     1
SMALL
NO_CHARGES
****
Generated from CSD

@<TRIPOS>ATOM
      1 N1         1.3771   15.3884    7.6364 N.3       1 RES1    0.0000
      2 C1         0.1259   15.1847    8.2359 C.ar      1 RES1    0.0000
      3 C2        -0.1661   14.8135    9.5328 C.ar      1 RES1    0.0000
      4 H1         0.5097   14.5961   10.1341 H         1 RES1    0.0000
      5 C3        -1.5017   14.7748    9.9112 C.ar      1 RES1    0.0000
      6 H2        -1.7237   14.5259   10.7786 H         1 RES1    0.0000
      7 C4        -2.5140   15.1020    9.0104 C.ar      1 RES1    0.0000
      8 H3        -3.4017   15.0806    9.2849 H         1 RES1    0.0000
      9 C5        -2.2019   15.4597    7.7071 C.ar      1 RES1    0.0000
     10 H4        -2.8767   15.6876    7.1089 H         1 RES1    0.0000
     11 C6        -0.8904   15.4756    7.3069 C.ar      1 RES1    0.0000
     12 C7        -0.2483   15.8626    5.9933 C.3       1 RES1    0.0000
     13 C8         1.1898   15.2713    6.1981 C.3       1 RES1    0.0000
     14 O1         1.0895   13.8562    5.8204 O.3       1 RES1    0.0000
     15 C9         1.9442   12.9785    6.4339 C.ar      1 RES1    0.0000
     16 C10        2.0626   11.7142    5.8701 C.ar      1 RES1    0.0000
     17 H5         1.5831   11.5072    5.1012 H         1 RES1    0.0000
     18 C11        2.8811   10.7659    6.4341 C.ar      1 RES1    0.0000
     19 H6         2.9630    9.9259    6.0459 H         1 RES1    0.0000
     20 C12        3.5878   11.0760    7.5970 C.ar      1 RES1    0.0000
     21 C13        3.4672   12.3332    8.1622 C.ar      1 RES1    0.0000
     22 H7         3.9363   12.5285    8.9407 H         1 RES1    0.0000
     23 C14        2.6610   13.3105    7.5918 C.ar      1 RES1    0.0000
     24 C15        2.5556   14.6936    8.1562 C.3       1 RES1    0.0000
     25 H8         2.4998   14.6429    9.1242 H         1 RES1    0.0000
     26 H9         3.3530   15.1959    7.9277 H         1 RES1    0.0000
     27 C16       -0.2086   17.3992    5.9124 C.3       1 RES1    0.0000
     28 H10       -1.0988   17.7354    5.7881 H         1 RES1    0.0000
     29 H11        0.3415   17.6670    5.1724 H         1 RES1    0.0000
     30 H12        0.1560   17.7534    6.7267 H         1 RES1    0.0000
     31 C17       -0.9455   15.3043    4.7475 C.3       1 RES1    0.0000
     32 H13       -1.8192   15.6948    4.6675 H         1 RES1    0.0000
     33 H14       -1.0270   14.3512    4.8267 H         1 RES1    0.0000
     34 H15       -0.4273   15.5165    3.9684 H         1 RES1    0.0000
     35 C18        2.3007   15.9161    5.3865 C.ar      1 RES1    0.0000
     36 C19        3.0485   16.9637    5.9117 C.ar      1 RES1    0.0000
     37 H16        2.8842   17.2635    6.7768 H         1 RES1    0.0000
     38 C20        4.0412   17.5618    5.1445 C.ar      1 RES1    0.0000
     39 H17        4.5418   18.2632    5.4954 H         1 RES1    0.0000
     40 C21        4.2862   17.1126    3.8521 C.ar      1 RES1    0.0000
     41 H18        4.9499   17.5121    3.3391 H         1 RES1    0.0000
     42 C22        3.5385   16.0653    3.3268 C.ar      1 RES1    0.0000
     43 H19        3.7016   15.7650    2.4626 H         1 RES1    0.0000
     44 C23        2.5457   15.4669    4.0941 C.ar      1 RES1    0.0000
     45 H20        2.0453   14.7654    3.7425 H         1 RES1    0.0000
     46 N2         4.4626   10.1809    8.2777 N.2       1 RES1    0.0000
     47 N3         4.6391    9.0974    7.6937 N.2       1 RES1    0.0000
     48 C24        5.5301    8.2157    8.3967 C.ar      1 RES1    0.0000
     49 C25        5.7869    6.9969    7.7852 C.ar      1 RES1    0.0000
     50 H21        5.3776    6.7901    6.9769 H         1 RES1    0.0000
     51 C26        6.6464    6.0901    8.3705 C.ar      1 RES1    0.0000
     52 H22        6.8312    5.2754    7.9626 H         1 RES1    0.0000
     53 C27        7.2203    6.4198    9.5700 C.ar      1 RES1    0.0000
     54 C28        6.9784    7.6006   10.1917 C.ar      1 RES1    0.0000
     55 H23        7.3814    7.7916   11.0075 H         1 RES1    0.0000
     56 C29        6.1303    8.5192    9.6033 C.ar      1 RES1    0.0000
     57 H24        5.9633    9.3351   10.0173 H         1 RES1    0.0000
     58 N4         8.1276    5.4382   10.2041 N.pl3     1 RES1    0.0000
     59 O2         8.4895    4.4748    9.5709 O.2       1 RES1    0.0000
     60 O3         8.4771    5.6627   11.3370 O.2       1 RES1    0.0000
@<TRIPOS>BOND
     1    1    2 1
     2    2    3 ar
     3    3    4 1
     4    5    3 ar
     5    6    5 1
     6    7    5 ar
     7    8    7 1
     8    9    7 ar
     9   10    9 1
    10   11    2 ar
    11   12   11 1
    12   13    1 1
    13   14   13 1
    14   15   14 1
    15   16   15 ar
    16   17   16 1
    17   18   16 ar
    18   19   18 1
    19   20   18 ar
    20   21   20 ar
    21   22   21 1
    22   23   15 ar
    23   24    1 1
    24   25   24 1
    25   26   24 1
    26   27   12 1
    27   28   27 1
    28   29   27 1
    29   30   27 1
    30   31   12 1
    31   32   31 1
    32   33   31 1
    33   34   31 1
    34   35   13 1
    35   36   35 ar
    36   37   36 1
    37   38   36 ar
    38   39   38 1
    39   40   38 ar
    40   41   40 1
    41   42   40 ar
    42   43   42 1
    43   44   35 ar
    44   45   44 1
    45   46   20 1
    46   47   46 2
    47   48   47 1
    48   49   48 ar
    49   50   49 1
    50   51   49 ar
    51   52   51 1
    52   53   51 ar
    53   54   53 ar
    54   55   54 1
    55   56   48 ar
    56   57   56 1
    57   58   53 1
    58   59   58 2
    59   60   58 2
    60    9   11 ar
    61   12   13 1
    62   21   23 ar
    63   23   24 1
    64   42   44 ar
    65   54   56 ar
@<TRIPOS>SUBSTRUCTURE
     1 RES1 1

@<TRIPOS>CRYSIN
   8.7976   18.0110   15.6800  90.0000 104.7400  90.0000  14 1

