# MOL2 file generated by ConQuest
# Please check atom types

@<TRIPOS>MOLECULE
XEDVUA
    33    34     1
SMALL
NO_CHARGES
****
Generated from CSD

@<TRIPOS>ATOM
      1 O1         6.8849    3.4750    3.1022 O.3       1 RES1    0.0000
      2 O2         7.4950    4.2487    6.4013 O.3       1 RES1    0.0000
      3 N1         7.9254    4.4188    3.1068 N.2       1 RES1    0.0000
      4 C1         8.8036    4.1293    3.9993 C.2       1 RES1    0.0000
      5 C2         9.9817    5.0177    4.1038 C.ar      1 RES1    0.0000
      6 C3        10.7084    5.0544    5.2964 C.ar      1 RES1    0.0000
      7 H1        10.4469    4.5047    6.0261 H         1 RES1    0.0000
      8 C4        11.8122    5.8919    5.4222 C.ar      1 RES1    0.0000
      9 H2        12.2973    5.9169    6.2388 H         1 RES1    0.0000
     10 C5        12.2060    6.6928    4.3557 C.ar      1 RES1    0.0000
     11 H3        12.9596    7.2645    4.4432 H         1 RES1    0.0000
     12 C6        11.4966    6.6568    3.1604 C.ar      1 RES1    0.0000
     13 H4        11.7682    7.2014    2.4311 H         1 RES1    0.0000
     14 C7        10.3917    5.8249    3.0322 C.ar      1 RES1    0.0000
     15 H5         9.9109    5.8026    2.2133 H         1 RES1    0.0000
     16 C8         8.6914    2.9290    4.8806 C.ar      1 RES1    0.0000
     17 C9         7.9877    3.0084    6.0929 C.ar      1 RES1    0.0000
     18 C10        7.8333    1.8772    6.8940 C.ar      1 RES1    0.0000
     19 H6         7.3586    1.9310    7.7148 H         1 RES1    0.0000
     20 C11        8.3847    0.6633    6.4744 C.ar      1 RES1    0.0000
     21 H7         8.2673   -0.1128    7.0105 H         1 RES1    0.0000
     22 C12        9.1023    0.5706    5.2878 C.ar      1 RES1    0.0000
     23 H8         9.4850   -0.2555    5.0188 H         1 RES1    0.0000
     24 C13        9.2502    1.7159    4.4965 C.ar      1 RES1    0.0000
     25 H9         9.7406    1.6629    3.6842 H         1 RES1    0.0000
     26 C14        6.7389    4.3509    7.6086 C.3       1 RES1    0.0000
     27 H10        5.9708    3.7438    7.5658 H         1 RES1    0.0000
     28 H11        6.4222    5.2719    7.7186 H         1 RES1    0.0000
     29 H12        7.3047    4.1073    8.3706 H         1 RES1    0.0000
     30 C15        5.9091    3.8810    2.1411 C.3       1 RES1    0.0000
     31 H13        5.5264    4.7428    2.4082 H         1 RES1    0.0000
     32 H14        5.1972    3.2084    2.0936 H         1 RES1    0.0000
     33 H15        6.3337    3.9701    1.2620 H         1 RES1    0.0000
@<TRIPOS>BOND
     1    1    3 1
     2    2   17 1
     3    3    4 2
     4    4    5 1
     5    5    6 ar
     6    6    7 1
     7    8    6 ar
     8    9    8 1
     9   10    8 ar
    10   11   10 1
    11   12   10 ar
    12   13   12 1
    13   14    5 ar
    14   15   14 1
    15   16    4 1
    16   17   16 ar
    17   18   17 ar
    18   19   18 1
    19   20   18 ar
    20   21   20 1
    21   22   20 ar
    22   23   22 1
    23   24   16 ar
    24   25   24 1
    25   26    2 1
    26   27   26 1
    27   28   26 1
    28   29   26 1
    29   30    1 1
    30   31   30 1
    31   32   30 1
    32   33   30 1
    33   12   14 ar
    34   22   24 ar
@<TRIPOS>SUBSTRUCTURE
     1 RES1 1

@<TRIPOS>CRYSIN
  12.6130    7.8850   12.8330  90.0000  97.0910  90.0000  14 1

