# MOL2 file generated by ConQuest
# Please check atom types

@<TRIPOS>MOLECULE
XEFPOQ
    92    98     1
SMALL
NO_CHARGES
****
Generated from CSD

@<TRIPOS>ATOM
      1 N1         5.0902    3.5711    5.7375 N.pl3     1 RES1    0.0000
      2 C1         3.6473    3.4983    5.5487 C.3       1 RES1    0.0000
      3 H1         3.2559    3.0275    6.3008 H         1 RES1    0.0000
      4 H2         3.4607    2.9830    4.7486 H         1 RES1    0.0000
      5 C2         8.3506    3.8357    4.2809 C.ar      1 RES1    0.0000
      6 O1        10.2548    4.1969    2.3937 O.2       1 RES1    0.0000
      7 C3         7.2014    3.7347    6.6282 C.ar      1 RES1    0.0000
      8 N2         9.1392    3.8808    1.9869 N.pl3     1 RES1    0.0000
      9 C4         8.1846    3.8083    7.6146 C.ar      1 RES1    0.0000
     10 C5         5.9749    3.6528    4.6872 C.ar      1 RES1    0.0000
     11 C6         9.6188    3.8757    7.1980 C.ar      1 RES1    0.0000
     12 C7         5.8121    3.6316    6.9379 C.ar      1 RES1    0.0000
     13 C8         7.2943    3.7477    5.1855 C.ar      1 RES1    0.0000
     14 C9         8.0430    3.8060    2.9342 C.ar      1 RES1    0.0000
     15 C10        5.6928    3.6429    3.3175 C.ar      1 RES1    0.0000
     16 C11        2.9883    4.8560    5.4225 C.3       1 RES1    0.0000
     17 H3         3.3403    5.3097    4.6407 H         1 RES1    0.0000
     18 H4         3.2076    5.3906    6.2024 H         1 RES1    0.0000
     19 C12        6.7448    3.7022    2.4445 C.ar      1 RES1    0.0000
     20 C13       10.2998    2.7109    6.8988 C.ar      1 RES1    0.0000
     21 H5         9.8779    1.8878    6.9975 H         1 RES1    0.0000
     22 C14       10.2607    5.0917    7.0345 C.ar      1 RES1    0.0000
     23 H6         9.8138    5.8844    7.2261 H         1 RES1    0.0000
     24 O2         8.9298    3.6029    0.8147 O.2       1 RES1    0.0000
     25 C15        1.4808    4.7492    5.2995 C.3       1 RES1    0.0000
     26 H7         1.1308    4.3162    6.0929 H         1 RES1    0.0000
     27 H8         1.2659    4.1879    4.5375 H         1 RES1    0.0000
     28 C16        0.7756    6.9454    6.3494 C.3       1 RES1    0.0000
     29 H9         1.6826    7.0426    6.6785 H         1 RES1    0.0000
     30 H10        0.2586    6.4954    7.0356 H         1 RES1    0.0000
     31 C17       12.2391    3.9647    6.2959 C.ar      1 RES1    0.0000
     32 H11       13.1183    3.9936    5.9945 H         1 RES1    0.0000
     33 C18       11.6107    2.7650    6.4521 C.ar      1 RES1    0.0000
     34 H12       12.0656    1.9775    6.2580 H         1 RES1    0.0000
     35 C19       11.5751    5.1259    6.5838 C.ar      1 RES1    0.0000
     36 H13       12.0068    5.9430    6.4770 H         1 RES1    0.0000
     37 C20        0.7916    6.1039    5.1271 C.3       1 RES1    0.0000
     38 H14        1.2416    6.5925    4.4201 H         1 RES1    0.0000
     39 H15       -0.1239    5.9519    4.8423 H         1 RES1    0.0000
     40 C21        0.1877    8.3187    6.1100 C.3       1 RES1    0.0000
     41 H16        0.7091    8.7791    5.4485 H         1 RES1    0.0000
     42 H17        0.1976    8.8184    6.9293 H         1 RES1    0.0000
     43 H18       -0.7159    8.2304    5.7993 H         1 RES1    0.0000
     44 H19        9.2545    3.9298    4.5899 H         1 RES1    0.0000
     45 H20        4.6901    3.5888    3.0187 H         1 RES1    0.0000
     46 H21        6.5746    3.6926    1.5538 H         1 RES1    0.0000
     47 N1B        8.4519    3.8437   10.1335 N.pl3     1 RES1    0.0000
     48 C1B        9.8948    3.9165   10.3224 C.3       1 RES1    0.0000
     49 H1B       10.2863    4.3873    9.5702 H         1 RES1    0.0000
     50 H2B       10.0815    4.4318   11.1224 H         1 RES1    0.0000
     51 C2B        5.1916    3.5791   11.5902 C.ar      1 RES1    0.0000
     52 O1B        3.2873    3.2179   13.4774 O.2       1 RES1    0.0000
     53 C3B        6.3408    3.6801    9.2428 C.ar      1 RES1    0.0000
     54 N2B        4.4029    3.5340   13.8842 N.pl3     1 RES1    0.0000
     55 C4B        5.3575    3.6065    8.2564 C.ar      1 RES1    0.0000
     56 C5B        7.5672    3.7620   11.1839 C.ar      1 RES1    0.0000
     57 C6B        3.9234    3.5391    8.6731 C.ar      1 RES1    0.0000
     58 C7B        7.7300    3.7832    8.9332 C.ar      1 RES1    0.0000
     59 C8B        6.2479    3.6671   10.6855 C.ar      1 RES1    0.0000
     60 C9B        5.4992    3.6088   12.9368 C.ar      1 RES1    0.0000
     61 C10B       7.8494    3.7719   12.5535 C.ar      1 RES1    0.0000
     62 C11B      10.5538    2.5588   10.4485 C.3       1 RES1    0.0000
     63 H3B       10.2018    2.1051   11.2304 H         1 RES1    0.0000
     64 H4B       10.3345    2.0242    9.6686 H         1 RES1    0.0000
     65 C12B       6.7974    3.7126   13.4266 C.ar      1 RES1    0.0000
     66 C13B       3.2423    4.7039    8.9722 C.ar      1 RES1    0.0000
     67 H5B        3.6642    5.5270    8.8735 H         1 RES1    0.0000
     68 C14B       3.2814    2.3231    8.8365 C.ar      1 RES1    0.0000
     69 H6B        3.7283    1.5304    8.6450 H         1 RES1    0.0000
     70 O2B        4.6123    3.8119   15.0564 O.2       1 RES1    0.0000
     71 C15B      12.0613    2.6656   10.5715 C.3       1 RES1    0.0000
     72 H7B       12.4113    3.0986    9.7782 H         1 RES1    0.0000
     73 H8B       12.2762    3.2269   11.3335 H         1 RES1    0.0000
     74 C16B      12.7665    0.4694    9.5217 C.3       1 RES1    0.0000
     75 H9B       11.8595    0.3722    9.1925 H         1 RES1    0.0000
     76 H10B      13.2835    0.9194    8.8354 H         1 RES1    0.0000
     77 C17B       1.3030    3.4501    9.5752 C.ar      1 RES1    0.0000
     78 H11B       0.4238    3.4212    9.8766 H         1 RES1    0.0000
     79 C18B       1.9314    4.6498    9.4190 C.ar      1 RES1    0.0000
     80 H12B       1.4766    5.4373    9.6131 H         1 RES1    0.0000
     81 C19B       1.9670    2.2889    9.2873 C.ar      1 RES1    0.0000
     82 H13B       1.5354    1.4718    9.3941 H         1 RES1    0.0000
     83 C20B      12.7505    1.3109   10.7439 C.3       1 RES1    0.0000
     84 H14B      12.3005    0.8223   11.4510 H         1 RES1    0.0000
     85 H15B      13.6660    1.4629   11.0288 H         1 RES1    0.0000
     86 C21B      13.3544   -0.9039    9.7610 C.3       1 RES1    0.0000
     87 H16B      12.8331   -1.3643   10.4225 H         1 RES1    0.0000
     88 H17B      13.3445   -1.4036    8.9418 H         1 RES1    0.0000
     89 H18B      14.2581   -0.8156   10.0718 H         1 RES1    0.0000
     90 H19B       4.2876    3.4850   11.2811 H         1 RES1    0.0000
     91 H20B       8.8520    3.8260   12.8524 H         1 RES1    0.0000
     92 H21B       6.9676    3.7222   14.3173 H         1 RES1    0.0000
@<TRIPOS>BOND
     1    1    2 1
     2    2    3 1
     3    4    2 1
     4    5   13 ar
     5    6    8 2
     6    7    9 ar
     7    8   14 1
     8    9   11 1
     9   10    1 1
    10   11   20 ar
    11   12    1 1
    12   13    7 1
    13   14    5 ar
    14   15   10 ar
    15   16    2 1
    16   17   16 1
    17   18   16 1
    18   19   14 ar
    19   20   21 1
    20   22   11 ar
    21   23   22 1
    22   24    8 2
    23   25   16 1
    24   26   25 1
    25   27   25 1
    26   28   29 1
    27   30   28 1
    28   31   32 1
    29   33   20 ar
    30   34   33 1
    31   35   22 ar
    32   36   35 1
    33   37   25 1
    34   38   37 1
    35   39   37 1
    36   40   28 1
    37   41   40 1
    38   42   40 1
    39   43   40 1
    40   44    5 1
    41   45   15 1
    42   46   19 1
    43   47   48 1
    44   48   49 1
    45   50   48 1
    46   51   59 ar
    47   52   54 2
    48   53   55 ar
    49   54   60 1
    50   55   12 ar
    51   56   47 1
    52   57   55 1
    53   58    9 ar
    54   59   53 1
    55   60   51 ar
    56   61   56 ar
    57   62   48 1
    58   63   62 1
    59   64   62 1
    60   65   60 ar
    61   66   57 ar
    62   67   66 1
    63   68   57 ar
    64   69   68 1
    65   70   54 2
    66   71   62 1
    67   72   71 1
    68   73   71 1
    69   74   75 1
    70   76   74 1
    71   77   78 1
    72   79   66 ar
    73   80   79 1
    74   81   68 ar
    75   82   81 1
    76   83   71 1
    77   84   83 1
    78   85   83 1
    79   86   74 1
    80   87   86 1
    81   88   86 1
    82   89   86 1
    83   90   51 1
    84   91   61 1
    85   92   65 1
    86    7   12 ar
    87   10   13 ar
    88   15   19 ar
    89   28   37 1
    90   31   33 ar
    91   31   35 ar
    92   47   58 1
    93   53   58 ar
    94   56   59 ar
    95   61   65 ar
    96   74   83 1
    97   77   79 ar
    98   77   81 ar
@<TRIPOS>SUBSTRUCTURE
     1 RES1 1

@<TRIPOS>CRYSIN
  14.8902    7.4148   15.9282  90.0000  94.8550  90.0000  14 1

