# MOL2 file generated by ConQuest
# Please check atom types

@<TRIPOS>MOLECULE
XEFQEH
    50    54     1
SMALL
NO_CHARGES
****
Generated from CSD

@<TRIPOS>ATOM
      1 N1         0.6781    5.2149    7.3416 N.3       1 RES1    0.0000
      2 N2         1.5397    2.8498    9.1129 N.pl3     1 RES1    0.0000
      3 C1         1.2123    5.4512    5.1300 C.ar      1 RES1    0.0000
      4 N3         3.8493    1.1046    5.4077 N.pl3     1 RES1    0.0000
      5 C2         1.9304    3.0406    7.7210 C.ar      1 RES1    0.0000
      6 C3         1.4507    4.1291    7.0009 C.ar      1 RES1    0.0000
      7 C4         3.3837    0.8897    7.6352 C.ar      1 RES1    0.0000
      8 C5         3.1080    2.1965    5.7715 C.ar      1 RES1    0.0000
      9 C6         2.7691    2.1031    7.1563 C.ar      1 RES1    0.0000
     10 N4         2.9732    3.4690    3.6362 N.pl3     1 RES1    0.0000
     11 C7         1.8106    4.2271    5.6161 C.ar      1 RES1    0.0000
     12 C8         4.2294   -0.8817    8.9700 C.ar      1 RES1    0.0000
     13 C9         3.4993    0.2887    8.8538 C.ar      1 RES1    0.0000
     14 C10        1.2077    6.0905    3.9061 C.ar      1 RES1    0.0000
     15 O1         2.1131    3.2494    2.8070 O.2       1 RES1    0.0000
     16 C11        4.8599   -1.4484    7.8550 C.ar      1 RES1    0.0000
     17 C12        4.7608   -0.8615    6.6221 C.ar      1 RES1    0.0000
     18 C13        0.5518    6.0133    6.2039 C.ar      1 RES1    0.0000
     19 C14        2.6207    3.2729    5.0621 C.ar      1 RES1    0.0000
     20 C15        4.4301    0.7951    4.1187 C.3       1 RES1    0.0000
     21 H1         3.8957    1.2107    3.4236 H         1 RES1    0.0000
     22 H2         4.4003   -0.1645    3.9811 H         1 RES1    0.0000
     23 C16        4.0500    0.3190    6.5381 C.ar      1 RES1    0.0000
     24 C17       -0.1630    7.2193    6.1039 C.ar      1 RES1    0.0000
     25 H3        -0.6248    7.5819    6.8240 H         1 RES1    0.0000
     26 O2         5.1298   -2.4161   10.5424 O.2       1 RES1    0.0000
     27 C18        0.5261    7.2885    3.7828 C.ar      1 RES1    0.0000
     28 H4         0.5145    7.7317    2.9644 H         1 RES1    0.0000
     29 O3         2.2685    3.1990    9.9772 O.2       1 RES1    0.0000
     30 O4         4.0687    3.9182    3.3897 O.2       1 RES1    0.0000
     31 C19        0.1333    5.5473    8.6412 C.3       1 RES1    0.0000
     32 H5         0.1573    6.5095    8.7574 H         1 RES1    0.0000
     33 H6         0.6921    5.1517    9.3291 H         1 RES1    0.0000
     34 C20       -1.2707    5.0692    8.8199 C.3       1 RES1    0.0000
     35 H7        -1.5673    5.2733    9.7097 H         1 RES1    0.0000
     36 H8        -1.3066    4.1197    8.6805 H         1 RES1    0.0000
     37 H9        -1.8430    5.5076    8.1856 H         1 RES1    0.0000
     38 O5         0.4983    2.3442    9.3434 O.2       1 RES1    0.0000
     39 C21       -0.1375    7.8310    4.8692 C.ar      1 RES1    0.0000
     40 H10       -0.5845    8.6395    4.7620 H         1 RES1    0.0000
     41 C22        4.4224   -1.4357   10.2976 C.2       1 RES1    0.0000
     42 C23        5.8640    1.2685    3.9883 C.3       1 RES1    0.0000
     43 H11        6.1980    1.0408    3.1163 H         1 RES1    0.0000
     44 H12        6.4047    0.8434    4.6583 H         1 RES1    0.0000
     45 H13        5.8992    2.2207    4.1044 H         1 RES1    0.0000
     46 H14        3.1053    0.6044    9.5990 H         1 RES1    0.0000
     47 H15        5.1920   -1.3161    5.7608 H         1 RES1    0.0000
     48 H16        1.6472    5.7883    3.1270 H         1 RES1    0.0000
     49 H17        5.1430   -2.1824    8.0051 H         1 RES1    0.0000
     50 H18        3.8639   -0.9200   11.2929 H         1 RES1    0.0000
@<TRIPOS>BOND
     1    1    6 1
     2    2    5 1
     3    3   11 1
     4    4    8 1
     5    5    6 ar
     6    6   11 ar
     7    7    9 1
     8    8    9 ar
     9    9    5 ar
    10   10   15 2
    11   11   19 ar
    12   12   13 ar
    13   13    7 ar
    14   14    3 ar
    15   16   12 ar
    16   17   16 ar
    17   18    1 1
    18   19    8 ar
    19   20    4 1
    20   21   20 1
    21   22   20 1
    22   23    4 1
    23   24   18 ar
    24   25   24 1
    25   26   41 2
    26   27   14 ar
    27   28   27 1
    28   29    2 2
    29   30   10 2
    30   31    1 1
    31   32   31 1
    32   33   31 1
    33   34   31 1
    34   35   34 1
    35   36   34 1
    36   37   34 1
    37   38    2 2
    38   39   24 ar
    39   40   39 1
    40   41   12 1
    41   42   20 1
    42   43   42 1
    43   44   42 1
    44   45   42 1
    45   46   13 1
    46   47   17 1
    47   48   14 1
    48   49   16 1
    49   50   41 1
    50    3   18 ar
    51    7   23 ar
    52   10   19 1
    53   17   23 ar
    54   27   39 ar
@<TRIPOS>SUBSTRUCTURE
     1 RES1 1

@<TRIPOS>CRYSIN
  16.1220    6.7150   18.4260  90.0000 104.1300  90.0000  14 1

