# MOL2 file generated by ConQuest
# Please check atom types

@<TRIPOS>MOLECULE
XEGDUJ
    48    50     1
SMALL
NO_CHARGES
****
Generated from CSD

@<TRIPOS>ATOM
      1 C1        -1.6948    8.8244   11.1245 C.2       1 RES1    0.0000
      2 H1        -2.5123    9.2774   10.9519 H         1 RES1    0.0000
      3 C2        -1.6994    7.3327   11.0785 C.3       1 RES1    0.0000
      4 C3        -1.6009    6.9084    9.6040 C.2       1 RES1    0.0000
      5 C4        -1.6839    4.8344   10.6698 C.3       1 RES1    0.0000
      6 H2        -1.6725    3.8530   10.4793 H         1 RES1    0.0000
      7 C5        -0.4120    5.2296   11.4024 C.3       1 RES1    0.0000
      8 H3         0.3677    5.1152   10.8021 H         1 RES1    0.0000
      9 H4        -0.2855    4.6418   12.1896 H         1 RES1    0.0000
     10 C6        -0.5018    6.7131   11.8664 C.3       1 RES1    0.0000
     11 C7         0.7304    7.4922   11.4017 C.3       1 RES1    0.0000
     12 H5         0.8135    7.3845   10.4115 H         1 RES1    0.0000
     13 C8         2.0403    7.1403   12.0243 C.2       1 RES1    0.0000
     14 H6         2.0223    6.7494   12.8905 H         1 RES1    0.0000
     15 C9         3.2294    7.3296   11.4662 C.2       1 RES1    0.0000
     16 C10        4.5013    6.9975   12.1937 C.3       1 RES1    0.0000
     17 H7         4.2892    6.6743   13.0938 H         1 RES1    0.0000
     18 H8         5.0586    7.8005   12.2591 H         1 RES1    0.0000
     19 H9         4.9856    6.3015   11.7027 H         1 RES1    0.0000
     20 C11        3.4388    7.9242   10.1064 C.3       1 RES1    0.0000
     21 H10        2.5752    8.0205    9.6554 H         1 RES1    0.0000
     22 H11        4.0179    7.3368    9.5787 H         1 RES1    0.0000
     23 H12        3.8615    8.8040   10.1957 H         1 RES1    0.0000
     24 C12       -3.0265    6.7295   11.5795 C.3       1 RES1    0.0000
     25 H13       -3.7838    7.0912   11.0536 H         1 RES1    0.0000
     26 H14       -3.1686    6.9622   12.5320 H         1 RES1    0.0000
     27 C13       -2.9519    5.1986   11.4151 C.3       1 RES1    0.0000
     28 H15       -2.9549    4.7655   12.3055 H         1 RES1    0.0000
     29 H16       -3.7415    4.8768   10.9109 H         1 RES1    0.0000
     30 C14       -0.6972    6.7181   13.4014 C.3       1 RES1    0.0000
     31 H17       -1.4579    6.1178   13.6020 H         1 RES1    0.0000
     32 H18        0.1091    6.3042   13.8018 H         1 RES1    0.0000
     33 C15       -0.9467    8.0241   14.1396 C.3       1 RES1    0.0000
     34 H19       -0.2171    8.6591   13.9302 H         1 RES1    0.0000
     35 H20       -1.7951    8.4206   13.8196 H         1 RES1    0.0000
     36 C16       -1.0232    7.8376   15.6362 C.3       1 RES1    0.0000
     37 H21       -0.1873    7.4207   15.9633 H         1 RES1    0.0000
     38 H22       -1.1217    8.7183   16.0774 H         1 RES1    0.0000
     39 C17       -2.3686    7.0011   17.3597 C.3       1 RES1    0.0000
     40 H23       -1.5667    6.6928   17.8305 H         1 RES1    0.0000
     41 H24       -3.1130    6.3925   17.5505 H         1 RES1    0.0000
     42 H25       -2.5985    7.9047   17.6629 H         1 RES1    0.0000
     43 N1        -0.6550    9.5357   11.3831 N.pl3     1 RES1    0.0000
     44 O1         0.5965    8.9296   11.7018 O.3       1 RES1    0.0000
     45 O2        -0.5627   10.7917   11.4482 O.2       1 RES1    0.0000
     46 O3        -1.6907    5.5847    9.4077 O.3       1 RES1    0.0000
     47 O4        -1.4863    7.6598    8.6620 O.2       1 RES1    0.0000
     48 O5        -2.1183    7.0194   15.9635 O.3       1 RES1    0.0000
@<TRIPOS>BOND
     1    1    2 1
     2    3    1 1
     3    4    3 1
     4    5    6 1
     5    7    5 1
     6    8    7 1
     7    9    7 1
     8   10    3 1
     9   11   10 1
    10   12   11 1
    11   13   11 1
    12   14   13 1
    13   15   13 2
    14   16   15 1
    15   17   16 1
    16   18   16 1
    17   19   16 1
    18   20   15 1
    19   21   20 1
    20   22   20 1
    21   23   20 1
    22   24    3 1
    23   25   24 1
    24   26   24 1
    25   27    5 1
    26   28   27 1
    27   29   27 1
    28   30   10 1
    29   31   30 1
    30   32   30 1
    31   33   30 1
    32   34   33 1
    33   35   33 1
    34   36   33 1
    35   37   36 1
    36   38   36 1
    37   39   40 1
    38   41   39 1
    39   42   39 1
    40   43    1 2
    41   44   11 1
    42   45   43 2
    43   46    4 1
    44   47    4 2
    45   48   36 1
    46    5   46 1
    47    7   10 1
    48   24   27 1
    49   39   48 1
    50   43   44 1
@<TRIPOS>SUBSTRUCTURE
     1 RES1 1

@<TRIPOS>CRYSIN
  21.0502    8.8331   18.6791  90.0000 107.3000  90.0000  15 1

