# MOL2 file generated by ConQuest
# Please check atom types

@<TRIPOS>MOLECULE
XEGHUP
    60    63     1
SMALL
NO_CHARGES
****
Generated from CSD

@<TRIPOS>ATOM
      1 O1         4.5624    5.6009   18.0006 O.2       1 RES1    0.0000
      2 O2         4.1658    1.6665   18.4633 O.2       1 RES1    0.0000
      3 N1         3.6936    6.3945   17.5350 N.3       1 RES1    0.0000
      4 N2         1.9939    7.1528   16.2936 N.2       1 RES1    0.0000
      5 N3         3.5660    0.8165   17.7308 N.3       1 RES1    0.0000
      6 N4         2.2304   -0.0106   16.1425 N.2       1 RES1    0.0000
      7 C1         2.6474    6.1018   16.6497 C.2       1 RES1    0.0000
      8 C2         3.5706    7.8010   18.0026 C.3       1 RES1    0.0000
      9 C3         2.6428    8.3619   16.8940 C.3       1 RES1    0.0000
     10 C4         2.8635    7.7039   19.3648 C.3       1 RES1    0.0000
     11 C5         4.9195    8.4277   18.1692 C.3       1 RES1    0.0000
     12 C6         1.5739    9.3295   17.3746 C.3       1 RES1    0.0000
     13 C7         3.4246    9.0071   15.7672 C.3       1 RES1    0.0000
     14 C8         2.6821    1.0733   16.6615 C.2       1 RES1    0.0000
     15 C9         3.8878   -0.6309   17.7776 C.3       1 RES1    0.0000
     16 C10        2.6865   -1.1684   16.9443 C.3       1 RES1    0.0000
     17 C11        3.9858   -1.1072   19.2123 C.3       1 RES1    0.0000
     18 C12        5.2388   -0.7619   17.0729 C.3       1 RES1    0.0000
     19 C13        1.4872   -1.5420   17.8223 C.3       1 RES1    0.0000
     20 C14        3.0277   -2.3297   16.0466 C.3       1 RES1    0.0000
     21 C15        2.3562    4.7335   16.2511 C.2       1 RES1    0.0000
     22 C16        2.9360    3.5820   16.8124 C.2       1 RES1    0.0000
     23 C17        2.3623    2.4328   16.2643 C.2       1 RES1    0.0000
     24 C18        1.4021    2.8238   15.2937 C.2       1 RES1    0.0000
     25 C19        0.6346    1.9736   14.4989 C.2       1 RES1    0.0000
     26 C20       -0.3111    2.2838   13.5249 C.2       1 RES1    0.0000
     27 C21       -0.7535    3.5373   13.1079 C.2       1 RES1    0.0000
     28 C22       -0.3599    4.7837   13.5469 C.2       1 RES1    0.0000
     29 C23        0.5806    5.1252   14.5095 C.2       1 RES1    0.0000
     30 C24        1.3901    4.3080   15.2846 C.2       1 RES1    0.0000
     31 H1         1.9191    7.5974   19.2278 H         1 RES1    0.0000
     32 H2         3.0232    8.5022   19.8746 H         1 RES1    0.0000
     33 H3         3.2041    6.9450   19.8436 H         1 RES1    0.0000
     34 H4         4.8328    9.3706   18.3304 H         1 RES1    0.0000
     35 H5         5.3802    8.0187   18.9054 H         1 RES1    0.0000
     36 H6         5.4183    8.2863   17.3612 H         1 RES1    0.0000
     37 H7         1.2196    9.8131   16.6250 H         1 RES1    0.0000
     38 H8         0.8668    8.8337   17.7982 H         1 RES1    0.0000
     39 H9         1.9526    9.9469   18.0041 H         1 RES1    0.0000
     40 H10        2.8331    9.1865   15.0322 H         1 RES1    0.0000
     41 H11        3.8200    9.8283   16.0675 H         1 RES1    0.0000
     42 H12        4.1150    8.4049   15.4809 H         1 RES1    0.0000
     43 H13        3.2893   -0.6919   19.7270 H         1 RES1    0.0000
     44 H14        4.8404   -0.8592   19.5716 H         1 RES1    0.0000
     45 H15        3.8869   -2.0621   19.2511 H         1 RES1    0.0000
     46 H16        5.9246   -0.3908   17.6331 H         1 RES1    0.0000
     47 H17        5.2145   -0.2859   16.2404 H         1 RES1    0.0000
     48 H18        5.4304   -1.6880   16.9066 H         1 RES1    0.0000
     49 H19        1.2652   -0.7968   18.3868 H         1 RES1    0.0000
     50 H20        0.7330   -1.7594   17.2699 H         1 RES1    0.0000
     51 H21        1.7138   -2.2993   18.3673 H         1 RES1    0.0000
     52 H22        2.2354   -2.6977   15.6480 H         1 RES1    0.0000
     53 H23        3.6147   -2.0119   15.3566 H         1 RES1    0.0000
     54 H24        3.4733   -3.0079   16.5590 H         1 RES1    0.0000
     55 H25        3.6041    3.5873   17.4583 H         1 RES1    0.0000
     56 H26        0.7892    1.0660   14.6340 H         1 RES1    0.0000
     57 H27       -0.7117    1.5557   13.1054 H         1 RES1    0.0000
     58 H28       -1.3990    3.5326   12.4372 H         1 RES1    0.0000
     59 H29       -0.7892    5.5004   13.1384 H         1 RES1    0.0000
     60 H30        0.6843    6.0372   14.6574 H         1 RES1    0.0000
@<TRIPOS>BOND
     1    1    3 1
     2    2    5 1
     3    3    7 1
     4    4    7 2
     5    5   14 1
     6    6   14 2
     7    7   21 1
     8    8    3 1
     9    9    4 1
    10   10    8 1
    11   11    8 1
    12   12    9 1
    13   13    9 1
    14   14   23 1
    15   15    5 1
    16   16    6 1
    17   17   15 1
    18   18   15 1
    19   19   16 1
    20   20   16 1
    21   21   22 2
    22   22   23 1
    23   23   24 2
    24   24   25 1
    25   25   26 2
    26   26   27 1
    27   27   28 2
    28   28   29 1
    29   29   30 2
    30   30   21 1
    31   31   10 1
    32   32   10 1
    33   33   10 1
    34   34   11 1
    35   35   11 1
    36   36   11 1
    37   37   12 1
    38   38   12 1
    39   39   12 1
    40   40   13 1
    41   41   13 1
    42   42   13 1
    43   43   17 1
    44   44   17 1
    45   45   17 1
    46   46   18 1
    47   47   18 1
    48   48   18 1
    49   49   19 1
    50   50   19 1
    51   51   19 1
    52   52   20 1
    53   53   20 1
    54   54   20 1
    55   55   22 1
    56   56   25 1
    57   57   26 1
    58   58   27 1
    59   59   28 1
    60   60   29 1
    61    8    9 1
    62   15   16 1
    63   24   30 1
@<TRIPOS>SUBSTRUCTURE
     1 RES1 1

@<TRIPOS>CRYSIN
  15.2070   15.2070   19.4240  90.0000  90.0000  90.0000 114 1

