# MOL2 file generated by ConQuest
# Please check atom types

@<TRIPOS>MOLECULE
XEGVIO
    60    63     1
SMALL
NO_CHARGES
****
Generated from CSD

@<TRIPOS>ATOM
      1 C1         2.7237   10.8198   18.9806 C.3       1 RES1    0.0000
      2 C2         2.2814   10.8438   20.4575 C.3       1 RES1    0.0000
      3 C3         2.5278    9.5185   21.1450 C.3       1 RES1    0.0000
      4 O1         2.4106    9.6615   22.6005 O.3       1 RES1    0.0000
      5 C4         1.2158    9.8357   23.1568 C.2       1 RES1    0.0000
      6 O2         0.1881    9.8141   22.5285 O.2       1 RES1    0.0000
      7 C5         1.3036   10.0484   24.6369 C.3       1 RES1    0.0000
      8 C6         3.9241    9.0103   20.9282 C.3       1 RES1    0.0000
      9 C7         4.3593    9.0223   19.4601 C.3       1 RES1    0.0000
     10 C8         5.7464    8.4564   19.2887 C.3       1 RES1    0.0000
     11 C9         6.1409    8.3771   17.8322 C.3       1 RES1    0.0000
     12 C10        6.0040    9.7192   17.1082 C.3       1 RES1    0.0000
     13 C11        4.6394   10.3572   17.3435 C.2       1 RES1    0.0000
     14 C12        4.1915   10.4317   18.8192 C.3       1 RES1    0.0000
     15 C13        3.9837   10.9531   16.3444 C.2       1 RES1    0.0000
     16 C14        4.4569   11.1009   14.9127 C.3       1 RES1    0.0000
     17 C15        5.9612   10.8258   14.8179 C.3       1 RES1    0.0000
     18 C16        6.2224    9.5438   15.6256 C.3       1 RES1    0.0000
     19 C17        7.5589    9.0163   15.1048 C.3       1 RES1    0.0000
     20 C18        7.5077    9.4837   13.6864 C.2       1 RES1    0.0000
     21 C19        6.5958   10.4317   13.4806 C.2       1 RES1    0.0000
     22 C20        6.3768   11.0805   12.1855 C.2       1 RES1    0.0000
     23 N1         5.4502   11.9672   12.1194 N.2       1 RES1    0.0000
     24 O3         5.3533   12.4755   10.8077 O.3       1 RES1    0.0000
     25 C21        7.2051   10.6792   11.0073 C.3       1 RES1    0.0000
     26 C22        6.7278   12.0429   15.3417 C.3       1 RES1    0.0000
     27 C23        5.0830   11.4998   19.4979 C.3       1 RES1    0.0000
     28 H1         2.1719   10.1878   18.4943 H         1 RES1    0.0000
     29 H2         2.5826   11.6981   18.5930 H         1 RES1    0.0000
     30 H3         2.7672   11.5407   20.9242 H         1 RES1    0.0000
     31 H4         1.3359   11.0553   20.5049 H         1 RES1    0.0000
     32 H5         1.8820    8.8541   20.8256 H         1 RES1    0.0000
     33 H6         0.5791   10.6095   24.9231 H         1 RES1    0.0000
     34 H7         2.1389   10.4701   24.8516 H         1 RES1    0.0000
     35 H8         1.2481    9.2013   25.0859 H         1 RES1    0.0000
     36 H9         3.9830    8.1031   21.2647 H         1 RES1    0.0000
     37 H10        4.5390    9.5570   21.4423 H         1 RES1    0.0000
     38 H11        3.7507    8.4215   18.9828 H         1 RES1    0.0000
     39 H12        5.7815    7.5684   19.6809 H         1 RES1    0.0000
     40 H13        6.3817    9.0163   19.7623 H         1 RES1    0.0000
     41 H14        5.5821    7.7186   17.3892 H         1 RES1    0.0000
     42 H15        7.0605    8.0755   17.7691 H         1 RES1    0.0000
     43 H16        6.6920   10.3259   17.4509 H         1 RES1    0.0000
     44 H17        3.1512   11.3136   16.5480 H         1 RES1    0.0000
     45 H18        4.2708   11.9997   14.5991 H         1 RES1    0.0000
     46 H19        3.9760   10.4785   14.3450 H         1 RES1    0.0000
     47 H20        5.5470    8.8985   15.3293 H         1 RES1    0.0000
     48 H21        8.3079    9.4068   15.5834 H         1 RES1    0.0000
     49 H22        7.6088    8.0490   15.1616 H         1 RES1    0.0000
     50 H23        8.0566    9.1472   13.0154 H         1 RES1    0.0000
     51 H24        4.6808   12.9393   10.7433 H         1 RES1    0.0000
     52 H25        6.7502   10.9243   10.1982 H         1 RES1    0.0000
     53 H26        7.3434    9.7300   11.0221 H         1 RES1    0.0000
     54 H27        8.0531   11.1274   11.0468 H         1 RES1    0.0000
     55 H28        6.6506   12.7651   14.7126 H         1 RES1    0.0000
     56 H29        7.6537   11.8146   15.4527 H         1 RES1    0.0000
     57 H30        6.3606   12.3145   16.1853 H         1 RES1    0.0000
     58 H31        4.8886   12.3625   19.1259 H         1 RES1    0.0000
     59 H32        6.0075   11.2872   19.3479 H         1 RES1    0.0000
     60 H33        4.9068   11.5119   20.4407 H         1 RES1    0.0000
@<TRIPOS>BOND
     1    1    2 1
     2    2    3 1
     3    3    4 1
     4    4    5 1
     5    5    6 2
     6    7    5 1
     7    8    3 1
     8    9    8 1
     9   10    9 1
    10   11   10 1
    11   12   11 1
    12   13   12 1
    13   14    1 1
    14   15   13 2
    15   16   15 1
    16   17   16 1
    17   18   12 1
    18   19   18 1
    19   20   19 1
    20   21   17 1
    21   22   21 1
    22   23   22 2
    23   24   23 1
    24   25   22 1
    25   26   17 1
    26   27   14 1
    27   28    1 1
    28   29    1 1
    29   30    2 1
    30   31    2 1
    31   32    3 1
    32   33    7 1
    33   34    7 1
    34   35    7 1
    35   36    8 1
    36   37    8 1
    37   38    9 1
    38   39   10 1
    39   40   10 1
    40   41   11 1
    41   42   11 1
    42   43   12 1
    43   44   15 1
    44   45   16 1
    45   46   16 1
    46   47   18 1
    47   48   19 1
    48   49   19 1
    49   50   20 1
    50   51   24 1
    51   52   25 1
    52   53   25 1
    53   54   25 1
    54   55   26 1
    55   56   26 1
    56   57   26 1
    57   58   27 1
    58   59   27 1
    59   60   27 1
    60    9   14 1
    61   13   14 1
    62   17   18 1
    63   20   21 2
@<TRIPOS>SUBSTRUCTURE
     1 RES1 1

@<TRIPOS>CRYSIN
   7.0198   12.0153   24.6690  90.0000  90.0000  90.0000  19 1

