# MOL2 file generated by ConQuest
# Please check atom types

@<TRIPOS>MOLECULE
XEHTUZ
    42    44     1
SMALL
NO_CHARGES
****
Generated from CSD

@<TRIPOS>ATOM
      1 N1         0.8122    6.2266    6.1204 N.3       1 RES1    0.0000
      2 O1         0.9007    4.4768    2.8787 O.3       1 RES1    0.0000
      3 O2         2.6464    5.0406    4.1745 O.2       1 RES1    0.0000
      4 C1         0.3800    5.6581    4.8376 C.3       1 RES1    0.0000
      5 H1        -0.2639    4.9467    5.0393 H         1 RES1    0.0000
      6 C2        -0.3900    6.7683    4.0527 C.3       1 RES1    0.0000
      7 H2        -0.8530    6.4312    3.2576 H         1 RES1    0.0000
      8 C3        -1.3056    7.4967    5.0154 C.2       1 RES1    0.0000
      9 H3        -2.2048    7.3026    5.1513 H         1 RES1    0.0000
     10 C4        -0.6324    8.4478    5.6309 C.2       1 RES1    0.0000
     11 H4        -0.9812    9.0389    6.2582 H         1 RES1    0.0000
     12 C5         0.7981    8.4185    5.1490 C.3       1 RES1    0.0000
     13 H5         1.2080    9.3089    5.1533 H         1 RES1    0.0000
     14 O3         1.5827    7.4486    5.8969 O.3       1 RES1    0.0000
     15 C6         0.6247    7.8745    3.7404 C.3       1 RES1    0.0000
     16 H6         1.4531    7.5191    3.3816 H         1 RES1    0.0000
     17 H7         0.2636    8.5406    3.1336 H         1 RES1    0.0000
     18 C7         1.4645    5.0463    3.9541 C.2       1 RES1    0.0000
     19 C8         1.7805    3.7481    1.9747 C.3       1 RES1    0.0000
     20 H8         2.1273    2.9547    2.4127 H         1 RES1    0.0000
     21 H9         2.5287    4.3075    1.7118 H         1 RES1    0.0000
     22 C9         0.9789    3.3695    0.7849 C.3       1 RES1    0.0000
     23 H10        1.5291    2.8764    0.1720 H         1 RES1    0.0000
     24 H11        0.6510    4.1627    0.3550 H         1 RES1    0.0000
     25 H12        0.2376    2.8242    1.0589 H         1 RES1    0.0000
     26 C10        1.6753    5.4195    6.9833 C.3       1 RES1    0.0000
     27 H13        2.5678    5.3524    6.5841 H         1 RES1    0.0000
     28 C11        1.0749    4.0168    7.1401 C.3       1 RES1    0.0000
     29 H14        1.0007    3.6017    6.2772 H         1 RES1    0.0000
     30 H15        0.2043    4.0844    7.5390 H         1 RES1    0.0000
     31 H16        1.6442    3.4856    7.7020 H         1 RES1    0.0000
     32 C12        1.7766    6.0705    8.3526 C.ar      1 RES1    0.0000
     33 C13        2.9212    5.8637    9.1177 C.ar      1 RES1    0.0000
     34 H17        3.6376    5.3967    8.7518 H         1 RES1    0.0000
     35 C14        3.0100    6.3425   10.4146 C.ar      1 RES1    0.0000
     36 H18        3.7776    6.1833   10.9156 H         1 RES1    0.0000
     37 C15        1.9684    7.0495   10.9658 C.ar      1 RES1    0.0000
     38 H19        2.0248    7.3665   11.8384 H         1 RES1    0.0000
     39 C16        0.8282    7.2873   10.2041 C.ar      1 RES1    0.0000
     40 H20        0.1241    7.7761   10.5646 H         1 RES1    0.0000
     41 C17        0.7394    6.7980    8.9117 C.ar      1 RES1    0.0000
     42 H21       -0.0284    6.9608    8.4119 H         1 RES1    0.0000
@<TRIPOS>BOND
     1    1    4 1
     2    2   18 1
     3    3   18 2
     4    4    5 1
     5    6    4 1
     6    7    6 1
     7    8    6 1
     8    9    8 1
     9   10    8 2
    10   11   10 1
    11   12   10 1
    12   13   12 1
    13   14    1 1
    14   15    6 1
    15   16   15 1
    16   17   15 1
    17   18    4 1
    18   19    2 1
    19   20   19 1
    20   21   19 1
    21   22   19 1
    22   23   22 1
    23   24   22 1
    24   25   22 1
    25   26    1 1
    26   27   26 1
    27   28   26 1
    28   29   28 1
    29   30   28 1
    30   31   28 1
    31   32   26 1
    32   33   32 ar
    33   34   33 1
    34   35   33 ar
    35   36   35 1
    36   37   35 ar
    37   38   37 1
    38   39   37 ar
    39   40   39 1
    40   41   32 ar
    41   42   41 1
    42   12   14 1
    43   12   15 1
    44   39   41 ar
@<TRIPOS>SUBSTRUCTURE
     1 RES1 1

@<TRIPOS>CRYSIN
   6.0730   13.0450   10.1040  90.0000  98.2800  90.0000   4 1

