# MOL2 file generated by ConQuest
# Please check atom types

@<TRIPOS>MOLECULE
XEJLOP
    50    51     1
SMALL
NO_CHARGES
****
Generated from CSD

@<TRIPOS>ATOM
      1 N1         4.2435    4.5250    1.3505 N.2       1 RES1    0.0000
      2 N2         8.4962    9.2984    2.1369 N.pl3     1 RES1    0.0000
      3 O1         8.1682   10.2623    1.4496 O.2       1 RES1    0.0000
      4 N3         3.6556    3.2359    1.4161 N.2       1 RES1    0.0000
      5 O2         9.4599    9.3105    2.9018 O.2       1 RES1    0.0000
      6 N4         0.8704    4.0510    3.6410 N.3       1 RES1    0.0000
      7 O3         0.3497    6.4550    5.1074 O.3       1 RES1    0.0000
      8 C1         2.4107    3.2732    1.1595 C.2       1 RES1    0.0000
      9 H1         2.0002    4.1133    0.9966 H         1 RES1    0.0000
     10 C2         6.5045    8.0921    1.3547 C.ar      1 RES1    0.0000
     11 H2         6.1910    8.8943    0.9540 H         1 RES1    0.0000
     12 C3         5.4273    4.5265    1.8283 C.2       1 RES1    0.0000
     13 H3         5.7974    3.7175    2.1615 H         1 RES1    0.0000
     14 C4         0.4425    2.1315    2.1445 C.2       1 RES1    0.0000
     15 C5         7.7073    8.0655    2.0322 C.ar      1 RES1    0.0000
     16 C6         5.7689    6.9292    1.2725 C.ar      1 RES1    0.0000
     17 H4         4.9422    6.9284    0.8050 H         1 RES1    0.0000
     18 C7         7.4462    5.7556    2.5390 C.ar      1 RES1    0.0000
     19 H5         7.7694    4.9565    2.9374 H         1 RES1    0.0000
     20 C8         6.2255    5.7518    1.8703 C.ar      1 RES1    0.0000
     21 C9         1.5716    2.0266    1.1051 C.3       1 RES1    0.0000
     22 C10        0.9969    1.9438   -0.3175 C.3       1 RES1    0.0000
     23 H6         0.4625    2.7452   -0.5012 H         1 RES1    0.0000
     24 H7         0.4296    1.1485   -0.3948 H         1 RES1    0.0000
     25 H8         1.7318    1.8861   -0.9637 H         1 RES1    0.0000
     26 C11       -0.7912    1.8018    1.8623 C.2       1 RES1    0.0000
     27 C12        2.4076    0.7763    1.3875 C.3       1 RES1    0.0000
     28 H9         2.7759    0.8272    2.2950 H         1 RES1    0.0000
     29 H10        3.1410    0.7201    0.7392 H         1 RES1    0.0000
     30 H11        1.8401   -0.0197    1.3100 H         1 RES1    0.0000
     31 C13       -0.4849    4.6017    3.7902 C.3       1 RES1    0.0000
     32 H12       -0.9252    4.1885    4.5745 H         1 RES1    0.0000
     33 H13       -1.0198    4.3814    2.9878 H         1 RES1    0.0000
     34 C14        8.1924    6.9170    2.6259 C.ar      1 RES1    0.0000
     35 H14        9.0246    6.9238    3.0845 H         1 RES1    0.0000
     36 C15        1.6922    4.4612    4.7827 C.3       1 RES1    0.0000
     37 H15        2.6226    4.1505    4.6500 H         1 RES1    0.0000
     38 H16        1.3419    4.0434    5.6098 H         1 RES1    0.0000
     39 C16        0.8309    2.5903    3.5315 C.3       1 RES1    0.0000
     40 H17        0.1814    2.2325    4.1856 H         1 RES1    0.0000
     41 H18        1.7227    2.2234    3.7579 H         1 RES1    0.0000
     42 C17       -0.4380    6.0997    3.9698 C.3       1 RES1    0.0000
     43 H19       -0.0510    6.5159    3.1580 H         1 RES1    0.0000
     44 H20       -1.3572    6.4461    4.0849 H         1 RES1    0.0000
     45 C18       -2.0130    1.4638    1.5728 C.2       1 RES1    0.0000
     46 C19        1.6773    5.9607    4.9300 C.3       1 RES1    0.0000
     47 H21        2.2310    6.2189    5.7104 H         1 RES1    0.0000
     48 H22        2.0763    6.3731    4.1237 H         1 RES1    0.0000
     49 H23       -2.3116    0.5849    1.7048 H         1 RES1    0.0000
     50 H24       -2.6727    2.1345    1.2346 H         1 RES1    0.0000
@<TRIPOS>BOND
     1    1    4 1
     2    2    3 2
     3    4    8 2
     4    5    2 2
     5    6   31 1
     6    7   42 1
     7    8    9 1
     8   10   11 1
     9   12    1 2
    10   13   12 1
    11   14   21 1
    12   15    2 1
    13   16   10 ar
    14   17   16 1
    15   18   19 1
    16   20   12 1
    17   21    8 1
    18   22   21 1
    19   23   22 1
    20   24   22 1
    21   25   22 1
    22   26   14 2
    23   27   21 1
    24   28   27 1
    25   29   27 1
    26   30   27 1
    27   31   32 1
    28   33   31 1
    29   34   15 ar
    30   35   34 1
    31   36    6 1
    32   37   36 1
    33   38   36 1
    34   39    6 1
    35   40   39 1
    36   41   39 1
    37   42   31 1
    38   43   42 1
    39   44   42 1
    40   45   26 2
    41   46    7 1
    42   47   46 1
    43   48   46 1
    44   49   45 1
    45   50   45 1
    46   10   15 ar
    47   14   39 1
    48   16   20 ar
    49   18   20 ar
    50   18   34 ar
    51   36   46 1
@<TRIPOS>SUBSTRUCTURE
     1 RES1 1

@<TRIPOS>CRYSIN
  26.0840    7.5961   23.1020  90.0000 123.1100  90.0000  15 1

