# MOL2 file generated by ConQuest
# Please check atom types

@<TRIPOS>MOLECULE
XEJQEJ
    53    52     2
SMALL
NO_CHARGES
****
Generated from CSD

@<TRIPOS>ATOM
      1 O1         4.0853    2.5680   11.8515 O.3       1 RES1    0.0000
      2 O2         3.0371    3.6623   13.5572 O.3       1 RES1    0.0000
      3 O3         3.2012    4.5194   10.0282 O.3       1 RES1    0.0000
      4 O4         2.0555    2.8572    9.0932 O.2       1 RES1    0.0000
      5 O5         0.8602    5.8606   10.8837 O.3       1 RES1    0.0000
      6 O6         1.3771    8.0027   10.6947 O.2       1 RES1    0.0000
      7 O7         1.1601    6.7643   13.7269 O.3       1 RES1    0.0000
      8 O8        -1.0149    6.5270   13.3002 O.2       1 RES1    0.0000
      9 O9         9.4502   -0.3475   13.0436 O.2       1 RES1    0.0000
     10 O10        9.1572    0.6060   14.9426 O.2       1 RES1    0.0000
     11 O11        6.3490    0.3517    9.3162 O.3       1 RES1    0.0000
     12 H1         6.9363    0.9121    9.2039 H         1 RES1    0.0000
     13 N1         8.8089    0.3687   13.7943 N.pl3     1 RES1    0.0000
     14 C1         3.6301    3.8308   12.2878 C.3       1 RES1    0.0000
     15 H2         4.3708    4.4707   12.3331 H         1 RES1    0.0000
     16 C2         2.5825    4.2948   11.3029 C.3       1 RES1    0.0000
     17 H3         1.8833    3.6126   11.2168 H         1 RES1    0.0000
     18 C3         1.9719    5.5989   11.7533 C.3       1 RES1    0.0000
     19 H4         2.6309    6.3214   11.6878 H         1 RES1    0.0000
     20 C4         1.4720    5.4686   13.1908 C.3       1 RES1    0.0000
     21 H5         0.6778    4.8955   13.2182 H         1 RES1    0.0000
     22 C5         2.5429    4.9018   14.0703 C.3       1 RES1    0.0000
     23 H6         3.2735    5.5354   14.1370 H         1 RES1    0.0000
     24 H7         2.1863    4.7609   14.9614 H         1 RES1    0.0000
     25 C6         5.2756    2.0913   12.3543 C.ar      1 RES1    0.0000
     26 C7         5.9528    1.1918   11.5409 C.ar      1 RES1    0.0000
     27 C8         7.1293    0.6356   12.0330 C.ar      1 RES1    0.0000
     28 H8         7.6104    0.0318   11.5137 H         1 RES1    0.0000
     29 C9         7.5846    0.9768   13.2893 C.ar      1 RES1    0.0000
     30 C10        6.9187    1.8614   14.0750 C.ar      1 RES1    0.0000
     31 H9         7.2463    2.0828   14.9165 H         1 RES1    0.0000
     32 C11        5.7447    2.4303   13.6084 C.ar      1 RES1    0.0000
     33 H10        5.2763    3.0362   14.1358 H         1 RES1    0.0000
     34 C12        5.4247    0.8359   10.1773 C.3       1 RES1    0.0000
     35 H11        4.7927    0.1208   10.2855 H         1 RES1    0.0000
     36 H12        4.9562    1.5902    9.8127 H         1 RES1    0.0000
     37 C13        2.8472    3.7556    8.9834 C.2       1 RES1    0.0000
     38 C14        3.5578    4.1454    7.7686 C.3       1 RES1    0.0000
     39 H13        4.1287    4.8934    7.9582 H         1 RES1    0.0000
     40 H14        2.9227    4.3912    7.0918 H         1 RES1    0.0000
     41 H15        4.0878    3.4081    7.4573 H         1 RES1    0.0000
     42 C15        0.6552    7.0990   10.4337 C.2       1 RES1    0.0000
     43 C16       -0.5816    7.1817    9.6000 C.3       1 RES1    0.0000
     44 H16       -0.9853    6.3130    9.5407 H         1 RES1    0.0000
     45 H17       -0.3540    7.4900    8.7204 H         1 RES1    0.0000
     46 H18       -1.1998    7.7951   10.0054 H         1 RES1    0.0000
     47 C17       -0.1245    7.1647   13.7721 C.2       1 RES1    0.0000
     48 C18       -0.2698    8.4784   14.4246 C.3       1 RES1    0.0000
     49 H19        0.5898    8.7845   14.7212 H         1 RES1    0.0000
     50 H20       -0.8589    8.3979   15.1784 H         1 RES1    0.0000
     51 H21       -0.6357    9.1077   13.7986 H         1 RES1    0.0000
     52 O12        5.6045    1.8095    9.2631 Du        2 SUP2    0.0000
     53 H22        6.4056    1.9652    9.1852 Du        2 SUP2    0.0000
@<TRIPOS>BOND
     1    1   14 1
     2    2   14 1
     3    3   16 1
     4    4   37 2
     5    5   18 1
     6    6   42 2
     7    7   20 1
     8    8   47 2
     9    9   13 2
    10   10   13 2
    11   11   12 1
    12   13   29 1
    13   14   15 1
    14   16   14 1
    15   17   16 1
    16   18   16 1
    17   19   18 1
    18   20   18 1
    19   21   20 1
    20   22    2 1
    21   23   22 1
    22   24   22 1
    23   25    1 1
    24   26   25 ar
    25   27   26 ar
    26   28   27 1
    27   29   27 ar
    28   30   29 ar
    29   31   30 1
    30   32   25 ar
    31   33   32 1
    32   34   11 1
    33   35   34 1
    34   36   34 1
    35   37    3 1
    36   38   37 1
    37   39   38 1
    38   40   38 1
    39   41   38 1
    40   42    5 1
    41   43   42 1
    42   44   43 1
    43   45   43 1
    44   46   43 1
    45   47    7 1
    46   48   47 1
    47   49   48 1
    48   50   48 1
    49   51   48 1
    50   20   22 1
    51   26   34 1
    52   30   32 ar
@<TRIPOS>SUBSTRUCTURE
     1 RES1 1
     2 SUP2 52

@<TRIPOS>CRYSIN
   6.2880   10.5940   31.1890  90.0000  90.0000  90.0000  19 1

