# MOL2 file generated by ConQuest
# Please check atom types

@<TRIPOS>MOLECULE
XEKMAC
    54    55     1
SMALL
NO_CHARGES
****
Generated from CSD

@<TRIPOS>ATOM
      1 O1         3.5691    3.8561    8.1288 O.2       1 RES1    0.0000
      2 O2         1.8763    3.6888    6.8173 O.2       1 RES1    0.0000
      3 O3         7.7691    2.2269    2.8598 O.2       1 RES1    0.0000
      4 O4         6.0298    2.7024    1.4992 O.3       1 RES1    0.0000
      5 N1         3.0735    3.6530    7.0373 N.pl3     1 RES1    0.0000
      6 C1         3.9778    3.3468    5.9099 C.ar      1 RES1    0.0000
      7 C2         5.3277    3.2080    6.1679 C.ar      1 RES1    0.0000
      8 H1         5.6667    3.2889    7.0519 H         1 RES1    0.0000
      9 C3         6.1726    2.9472    5.1023 C.ar      1 RES1    0.0000
     10 H2         7.1051    2.8462    5.2524 H         1 RES1    0.0000
     11 C4         5.6608    2.8331    3.8096 C.ar      1 RES1    0.0000
     12 C5         4.2939    2.9484    3.5868 C.ar      1 RES1    0.0000
     13 H3         3.9456    2.8462    2.7085 H         1 RES1    0.0000
     14 C6         3.4376    3.2123    4.6463 C.ar      1 RES1    0.0000
     15 H4         2.5022    3.2977    4.5058 H         1 RES1    0.0000
     16 C7         6.6284    2.5533    2.6999 C.2       1 RES1    0.0000
     17 C8         6.7626    2.3665    0.3282 C.2       1 RES1    0.0000
     18 C9         6.2156    1.4984   -0.5226 C.2       1 RES1    0.0000
     19 C10        6.8922    1.1579   -1.8105 C.3       1 RES1    0.0000
     20 H5         7.6956    1.7092   -1.9128 H         1 RES1    0.0000
     21 H6         6.2801    1.3300   -2.5564 H         1 RES1    0.0000
     22 H7         7.1442    0.2113   -1.8064 H         1 RES1    0.0000
     23 C11        4.9066    0.8189   -0.2608 C.3       1 RES1    0.0000
     24 H8         4.6297    0.9885    0.6631 H         1 RES1    0.0000
     25 H9         5.0061   -0.1464   -0.4002 H         1 RES1    0.0000
     26 H10        4.2281    1.1694   -0.8746 H         1 RES1    0.0000
     27 C12        7.9754    3.0846    0.1156 C.1       1 RES1    0.0000
     28 O1A       13.3993    2.8990   -8.1288 O.2       1 RES1    0.0000
     29 O2A       15.0921    3.0663   -6.8173 O.2       1 RES1    0.0000
     30 O3A        9.1993    4.5282   -2.8598 O.2       1 RES1    0.0000
     31 O4A       10.9386    4.0527   -1.4992 O.3       1 RES1    0.0000
     32 N1A       13.8948    3.1021   -7.0373 N.pl3     1 RES1    0.0000
     33 C1A       12.9906    3.4083   -5.9099 C.ar      1 RES1    0.0000
     34 C2A       11.6407    3.5471   -6.1679 C.ar      1 RES1    0.0000
     35 H1A       11.3017    3.4662   -7.0519 H         1 RES1    0.0000
     36 C3A       10.7957    3.8079   -5.1023 C.ar      1 RES1    0.0000
     37 H2A        9.8632    3.9089   -5.2524 H         1 RES1    0.0000
     38 C4A       11.3075    3.9220   -3.8096 C.ar      1 RES1    0.0000
     39 C5A       12.6745    3.8066   -3.5868 C.ar      1 RES1    0.0000
     40 H3A       13.0228    3.9089   -2.7085 H         1 RES1    0.0000
     41 C6A       13.5308    3.5428   -4.6463 C.ar      1 RES1    0.0000
     42 H4A       14.4662    3.4573   -4.5058 H         1 RES1    0.0000
     43 C7A       10.3400    4.2017   -2.6999 C.2       1 RES1    0.0000
     44 C8A       10.2058    4.3886   -0.3282 C.2       1 RES1    0.0000
     45 C9A       10.7528    5.2567    0.5226 C.2       1 RES1    0.0000
     46 C10A      10.0762    5.5972    1.8105 C.3       1 RES1    0.0000
     47 H5A        9.2727    5.0459    1.9128 H         1 RES1    0.0000
     48 H6A       10.6882    5.4251    2.5564 H         1 RES1    0.0000
     49 H7A        9.8242    6.5438    1.8064 H         1 RES1    0.0000
     50 C11A      12.0618    5.9362    0.2608 C.3       1 RES1    0.0000
     51 H8A       12.3387    5.7666   -0.6631 H         1 RES1    0.0000
     52 H9A       11.9623    6.9015    0.4002 H         1 RES1    0.0000
     53 H10A      12.7402    5.5857    0.8746 H         1 RES1    0.0000
     54 C12A       8.9929    3.6705   -0.1156 C.1       1 RES1    0.0000
@<TRIPOS>BOND
     1    1    5 2
     2    2    5 2
     3    3   16 2
     4    4   16 1
     5    5    6 1
     6    6    7 ar
     7    7    8 1
     8    9    7 ar
     9   10    9 1
    10   11    9 ar
    11   12   11 ar
    12   13   12 1
    13   14    6 ar
    14   15   14 1
    15   16   11 1
    16   17    4 1
    17   18   17 2
    18   19   18 1
    19   20   19 1
    20   21   19 1
    21   22   19 1
    22   23   18 1
    23   24   23 1
    24   25   23 1
    25   26   23 1
    26   27   17 1
    27   28   32 2
    28   29   32 2
    29   30   43 2
    30   31   43 1
    31   32   33 1
    32   33   34 ar
    33   34   35 1
    34   36   34 ar
    35   37   36 1
    36   38   36 ar
    37   39   38 ar
    38   40   39 1
    39   41   33 ar
    40   42   41 1
    41   43   38 1
    42   44   31 1
    43   45   44 2
    44   46   45 1
    45   47   46 1
    46   48   46 1
    47   49   46 1
    48   50   45 1
    49   51   50 1
    50   52   50 1
    51   53   50 1
    52   54   27 3
    53   12   14 ar
    54   39   41 ar
    55   44   54 1
@<TRIPOS>SUBSTRUCTURE
     1 RES1 1

@<TRIPOS>CRYSIN
   6.9790    7.3955   11.8680  75.1500  88.1630  65.9800   2 1

