# MOL2 file generated by ConQuest
# Please check atom types

@<TRIPOS>MOLECULE
XEKWIW
    16    16     1
SMALL
NO_CHARGES
****
Generated from CSD

@<TRIPOS>ATOM
      1 C1        -0.7384    9.1458   11.9958 C.ar      1 RES1    0.0000
      2 H1        -1.0840    8.8822   11.1738 H         1 RES1    0.0000
      3 C2        -0.3752    8.2176   12.9310 C.ar      1 RES1    0.0000
      4 C3        -0.5831   10.4749   12.2954 C.ar      1 RES1    0.0000
      5 H2        -0.8117   11.1258   11.6722 H         1 RES1    0.0000
      6 N1         0.0859   12.1801   13.8726 N.2       1 RES1    0.0000
      7 N2        -0.5309    6.8008   12.6180 N.pl3     1 RES1    0.0000
      8 C4        -0.0853   10.8391   13.5299 C.ar      1 RES1    0.0000
      9 C5         0.1294    8.5624   14.1567 C.ar      1 RES1    0.0000
     10 H3         0.3678    7.9074   14.7734 H         1 RES1    0.0000
     11 C6         0.2759    9.8896   14.4568 C.ar      1 RES1    0.0000
     12 H4         0.6171   10.1483   15.2822 H         1 RES1    0.0000
     13 O1        -0.1128    5.9766   13.3978 O.2       1 RES1    0.0000
     14 O2        -0.3972   14.3715   13.2286 O.2       1 RES1    0.0000
     15 O3        -1.0744    6.5004   11.5769 O.2       1 RES1    0.0000
     16 C7        -0.1880   13.2578   13.4763 C.2       1 RES1    0.0000
@<TRIPOS>BOND
     1    1    2 1
     2    3    1 ar
     3    4    1 ar
     4    5    4 1
     5    6    8 1
     6    7    3 1
     7    8    4 ar
     8    9    3 ar
     9   10    9 1
    10   11    8 ar
    11   12   11 1
    12   13    7 2
    13   14   16 2
    14   15    7 2
    15   16    6 2
    16    9   11 ar
@<TRIPOS>SUBSTRUCTURE
     1 RES1 1

@<TRIPOS>CRYSIN
   3.7123   13.1200   15.0410  90.0000  93.6480  90.0000 231 1

