# MOL2 file generated by ConQuest
# Please check atom types

@<TRIPOS>MOLECULE
XELDIB
    25    27     1
SMALL
USER_CHARGES
****
Generated from CSD

@<TRIPOS>ATOM
      1 C1        -2.9967    4.7532    8.6749 C.ar      1 RES1    0.0000
      2 H1        -3.2648    3.8725    8.9391 H         1 RES1    0.0000
      3 C2        -3.6334    5.9077    9.0075 C.ar      1 RES1    0.0000
      4 H2        -4.4106    5.8774    9.5307 H         1 RES1    0.0000
      5 C3        -3.1349    7.1123    8.5637 C.ar      1 RES1    0.0000
      6 H3        -3.5371    7.9325    8.7539 H         1 RES1    0.0000
      7 C4        -1.9998    7.1065    7.7864 C.ar      1 RES1    0.0000
      8 H4        -1.6023    7.8871    7.4327 H         1 RES1    0.0000
      9 C5        -1.3548    5.9299    7.4557 C.ar      1 RES1    0.0000
     10 C6        -0.1677    5.9509    6.6191 C.2       1 RES1    0.0000
     11 C7         1.6177    5.3334    5.4832 C.ar      1 RES1    0.0000
     12 C8         2.7020    4.7136    4.8824 C.ar      1 RES1    0.0000
     13 H5         2.8296    3.7536    5.0303 H         1 RES1    0.0000
     14 C9         3.5690    5.5081    4.1773 C.ar      1 RES1    0.0000
     15 H6         4.3196    5.1365    3.7551 H         1 RES1    0.0000
     16 C10        3.3658    6.8945    4.0645 C.ar      1 RES1    0.0000
     17 H7         4.0403    7.3581    3.5613 H         1 RES1    0.0000
     18 C11        2.2974    7.5038    4.6516 C.ar      1 RES1    0.0000
     19 H8         2.1775    8.4556    4.5665 H         1 RES1    0.0000
     20 C12        1.4021    6.7232    5.3790 C.ar      1 RES1    0.0000
     21 N1        -1.8657    4.7510    7.9170 N.pl3     1 RES1    1.0000
     22 N2         0.5936    4.8761    6.2689 N.pl3     1 RES1    0.0000
     23 H9         0.4867    4.0123    6.6171 H         1 RES1    0.0000
     24 N3         0.2817    7.0833    6.1011 N.2       1 RES1    0.0000
     25 O1        -1.2987    3.6045    7.6417 O.2       1 RES1   -1.0000
@<TRIPOS>BOND
     1    1    2 1
     2    3    1 ar
     3    4    3 1
     4    5    3 ar
     5    6    5 1
     6    7    5 ar
     7    8    7 1
     8    9    7 ar
     9   10    9 1
    10   11   12 ar
    11   12   13 1
    12   14   12 ar
    13   15   14 1
    14   16   14 ar
    15   17   16 1
    16   18   16 ar
    17   19   18 1
    18   20   11 ar
    19   21    1 ar
    20   22   10 1
    21   23   22 1
    22   24   10 2
    23   25   21 1
    24    9   21 ar
    25   11   22 1
    26   18   20 ar
    27   20   24 1
@<TRIPOS>SUBSTRUCTURE
     1 RES1 1

@<TRIPOS>CRYSIN
   5.9060   11.6500   14.3600  90.0000  90.0000  90.0000  19 1

