# MOL2 file generated by ConQuest
# Please check atom types

@<TRIPOS>MOLECULE
XELGAX
    54    44     2
SMALL
NO_CHARGES
****
Generated from CSD

@<TRIPOS>ATOM
      1 O1         2.4701    4.8672    3.1242 O.3       1 RES1    0.0000
      2 O2        -1.0415    4.4726    4.4604 O.3       1 RES1    0.0000
      3 O3         2.4309    4.5629   -1.6513 O.2       1 RES1    0.0000
      4 O4         0.9498    3.5375   -2.8262 O.2       1 RES1    0.0000
      5 N1         0.2157    5.6118    2.7218 N.pl3     1 RES1    0.0000
      6 N2         1.1095    3.3891    4.4813 N.3       1 RES1    0.0000
      7 N3         1.3203    4.0645   -1.7804 N.pl3     1 RES1    0.0000
      8 C1         1.5863    5.9755    2.9610 C.3       1 RES1    0.0000
      9 C2        -0.7313    5.7071    3.8132 C.3       1 RES1    0.0000
     10 C3         0.0176    3.9234    5.2462 C.3       1 RES1    0.0000
     11 C4         2.3204    4.1461    4.3522 C.3       1 RES1    0.0000
     12 C5        -1.4141    4.3700    1.3970 C.ar      1 RES1    0.0000
     13 C6        -1.7777    3.7293    0.2240 C.ar      1 RES1    0.0000
     14 C7        -0.8945    3.6080   -0.8370 C.ar      1 RES1    0.0000
     15 C8         0.3684    4.1411   -0.6586 C.ar      1 RES1    0.0000
     16 C9         0.7855    4.7720    0.5030 C.ar      1 RES1    0.0000
     17 C10       -0.1295    4.9167    1.5564 C.ar      1 RES1    0.0000
     18 C11        0.8658    2.3303    3.5968 C.ar      1 RES1    0.0000
     19 O5         2.6142    1.3692    0.1670 O.2       1 RES1    0.0000
     20 O6         1.9595   -0.6791    0.3758 O.2       1 RES1    0.0000
     21 N4         1.9597    0.4972    0.7288 N.pl3     1 RES1    0.0000
     22 C12        1.4876    1.9840    2.6079 C.ar      1 RES1    0.0000
     23 C13        1.1221    0.8695    1.8449 C.ar      1 RES1    0.0000
     24 C14       -0.0166    0.1398    2.0860 C.ar      1 RES1    0.0000
     25 C15       -0.8560    0.5529    3.1014 C.ar      1 RES1    0.0000
     26 C16       -0.5289    1.6550    3.8682 C.ar      1 RES1    0.0000
     27 O7        -2.5157    0.4589    2.7313 Du        2 SUP2    0.0000
     28 O8        -1.5645   -1.0712    1.5127 Du        2 SUP2    0.0000
     29 N5        -1.5222   -0.0532    2.2112 Du        2 SUP2    0.0000
     30 C17       -0.1339    1.6352    3.3235 Du        2 SUP2    0.0000
     31 C18       -0.2316    0.5912    2.4276 Du        2 SUP2    0.0000
     32 C19        0.8693    0.1633    1.6703 Du        2 SUP2    0.0000
     33 C20        2.0727    0.8324    1.8620 Du        2 SUP2    0.0000
     34 C21        2.1924    1.8949    2.7598 Du        2 SUP2    0.0000
     35 H1         1.9047    6.5246    2.2017 H         1 RES1    0.0000
     36 H2         1.6276    6.5370    3.7752 H         1 RES1    0.0000
     37 H3        -0.3696    6.3329    4.4889 H         1 RES1    0.0000
     38 H4        -1.5718    6.0979    3.4639 H         1 RES1    0.0000
     39 H5        -0.3525    3.2023    5.8156 H         1 RES1    0.0000
     40 H6         0.3662    4.6285    5.8460 H         1 RES1    0.0000
     41 H7         2.3663    4.7918    5.1019 H         1 RES1    0.0000
     42 H8         3.0870    3.5264    4.4471 H         1 RES1    0.0000
     43 H9        -2.0435    4.4417    2.1030 H         1 RES1    0.0000
     44 H10       -2.6515    3.3656    0.1443 H         1 RES1    0.0000
     45 H11       -1.1445    3.1801   -1.6456 H         1 RES1    0.0000
     46 H12        1.6734    5.1010    0.5827 H         1 RES1    0.0000
     47 H13        2.2481    2.4899    2.3460 H         1 RES1    0.0000
     48 H14       -0.2218   -0.6283    1.5678 H         1 RES1    0.0000
     49 H15       -1.6604    0.0779    3.2741 H         1 RES1    0.0000
     50 H16       -1.1214    1.9914    4.5306 H         1 RES1    0.0000
     51 H17       -0.9307    1.8529    3.7942 Du        2 SUP2    0.0000
     52 H18        0.7956   -0.5541    1.0515 Du        2 SUP2    0.0000
     53 H19        2.8358    0.5578    1.3666 Du        2 SUP2    0.0000
     54 H20        3.0194    2.3476    2.8774 Du        2 SUP2    0.0000
@<TRIPOS>BOND
     1    1    8 1
     2    2    9 1
     3    3    7 2
     4    4    7 2
     5    5    8 1
     6    6   10 1
     7    7   15 1
     8    8   35 1
     9    9    5 1
    10   10    2 1
    11   11    1 1
    12   12   13 ar
    13   13   14 ar
    14   14   15 ar
    15   15   16 ar
    16   16   17 ar
    17   17    5 1
    18   18    6 1
    19   19   21 2
    20   20   21 2
    21   21   23 1
    22   22   18 ar
    23   23   22 ar
    24   24   23 ar
    25   25   24 ar
    26   26   18 ar
    27   36    8 1
    28   37    9 1
    29   38    9 1
    30   39   10 1
    31   40   10 1
    32   41   11 1
    33   42   11 1
    34   43   12 1
    35   44   13 1
    36   45   14 1
    37   46   16 1
    38   47   22 1
    39   48   24 1
    40   49   25 1
    41   50   26 1
    42    6   11 1
    43   12   17 ar
    44   25   26 ar
@<TRIPOS>SUBSTRUCTURE
     1 RES1 1
     2 SUP2 27

@<TRIPOS>CRYSIN
   6.7000   12.3690   19.0030  90.0000  92.7910  90.0000 231 1

