# MOL2 file generated by ConQuest
# Please check atom types

@<TRIPOS>MOLECULE
XELSIT
    35    37     1
SMALL
NO_CHARGES
****
Generated from CSD

@<TRIPOS>ATOM
      1 C1         1.9755    0.4638    3.8442 C.ar      1 RES1    0.0000
      2 C2         1.0163    0.9411    2.9956 C.ar      1 RES1    0.0000
      3 H1         1.0982    0.7729    2.0740 H         1 RES1    0.0000
      4 C3        -0.0724    1.6650    3.4506 C.ar      1 RES1    0.0000
      5 H2        -0.7100    1.9877    2.8404 H         1 RES1    0.0000
      6 C4        -0.2196    1.9100    4.7778 C.ar      1 RES1    0.0000
      7 H3        -0.9628    2.3999    5.0806 H         1 RES1    0.0000
      8 C5         0.7325    1.4344    5.7138 C.ar      1 RES1    0.0000
      9 C6         0.6019    1.6802    7.0989 C.ar      1 RES1    0.0000
     10 H4        -0.1413    2.1600    7.4172 H         1 RES1    0.0000
     11 C7         1.5339    1.2325    7.9727 C.ar      1 RES1    0.0000
     12 H5         1.4389    1.4175    8.8884 H         1 RES1    0.0000
     13 C8         2.6392    0.4967    7.5255 C.ar      1 RES1    0.0000
     14 H6         3.2696    0.1766    8.1434 H         1 RES1    0.0000
     15 C9         2.8030    0.2433    6.1929 C.ar      1 RES1    0.0000
     16 H7         3.5545   -0.2391    5.8979 H         1 RES1    0.0000
     17 C10        1.8521    0.7011    5.2540 C.ar      1 RES1    0.0000
     18 C11        3.1912   -0.2332    3.3201 C.3       1 RES1    0.0000
     19 H8         3.4085   -0.9976    3.9096 H         1 RES1    0.0000
     20 C12        4.4307    0.6505    3.1636 C.3       1 RES1    0.0000
     21 H9         4.3049    1.5290    3.5800 H         1 RES1    0.0000
     22 H10        5.2297    0.2239    3.5371 H         1 RES1    0.0000
     23 C13        4.5019    0.7484    1.6737 C.2       1 RES1    0.0000
     24 C14        5.4446    1.5983    0.9111 C.2       1 RES1    0.0000
     25 C15        7.4237    2.8831    1.0885 C.3       1 RES1    0.0000
     26 H11        7.0212    3.6882    0.7021 H         1 RES1    0.0000
     27 H12        7.8760    2.3864    0.3751 H         1 RES1    0.0000
     28 C16        8.3889    3.2506    2.1464 C.3       1 RES1    0.0000
     29 H13        7.9330    3.7524    2.8404 H         1 RES1    0.0000
     30 H14        9.0953    3.7963    1.7659 H         1 RES1    0.0000
     31 H15        8.7736    2.4464    2.5296 H         1 RES1    0.0000
     32 N1         3.6911   -0.0034    1.0467 N.2       1 RES1    0.0000
     33 O1         2.9245   -0.7290    1.9644 O.3       1 RES1    0.0000
     34 O2         6.3948    2.0494    1.7131 O.3       1 RES1    0.0000
     35 O3         5.3579    1.8441   -0.2583 O.2       1 RES1    0.0000
@<TRIPOS>BOND
     1    1    2 ar
     2    2    3 1
     3    4    2 ar
     4    5    4 1
     5    6    4 ar
     6    7    6 1
     7    8    6 ar
     8    9    8 ar
     9   10    9 1
    10   11    9 ar
    11   12   11 1
    12   13   11 ar
    13   14   13 1
    14   15   13 ar
    15   16   15 1
    16   17    1 ar
    17   18    1 1
    18   19   18 1
    19   20   18 1
    20   21   20 1
    21   22   20 1
    22   23   20 1
    23   24   23 1
    24   25   26 1
    25   27   25 1
    26   28   25 1
    27   29   28 1
    28   30   28 1
    29   31   28 1
    30   32   23 2
    31   33   18 1
    32   34   24 1
    33   35   24 2
    34    8   17 ar
    35   15   17 ar
    36   25   34 1
    37   32   33 1
@<TRIPOS>SUBSTRUCTURE
     1 RES1 1

@<TRIPOS>CRYSIN
  11.8722    8.4475   26.7964  90.0000  90.0000  90.0000  61 1

