# MOL2 file generated by ConQuest
# Please check atom types

@<TRIPOS>MOLECULE
XEMNOU
    30    32     1
SMALL
NO_CHARGES
****
Generated from CSD

@<TRIPOS>ATOM
      1 N1         3.6011    4.6800    4.5208 N.2       1 RES1    0.0000
      2 O1         2.6433    5.2761    3.7041 O.3       1 RES1    0.0000
      3 N2         2.2173    4.3928    2.7072 N.2       1 RES1    0.0000
      4 C1         2.8355    2.0478    2.1880 C.2       1 RES1    0.0000
      5 C2         4.6926    1.1715    3.6470 C.3       1 RES1    0.0000
      6 H1         4.6211    0.3750    4.2132 H         1 RES1    0.0000
      7 C3         3.6520    1.0606    2.5734 C.2       1 RES1    0.0000
      8 H2         3.5667    0.2413    2.1426 H         1 RES1    0.0000
      9 C4         6.1281    1.2345    3.1131 C.3       1 RES1    0.0000
     10 H3         6.4381    0.3576    2.8404 H         1 RES1    0.0000
     11 H4         6.1954    1.8430    2.3613 H         1 RES1    0.0000
     12 N3         6.8877    1.7285    4.2611 N.3       1 RES1    0.0000
     13 C5         4.6469    2.4256    4.5825 C.3       1 RES1    0.0000
     14 C6         6.1057    2.8680    4.7292 C.3       1 RES1    0.0000
     15 H5         6.2842    3.6526    4.1877 H         1 RES1    0.0000
     16 H6         6.3130    3.0712    5.6543 H         1 RES1    0.0000
     17 C7         3.7358    3.4723    4.0466 C.2       1 RES1    0.0000
     18 C8         2.8895    3.3000    2.9209 C.2       1 RES1    0.0000
     19 C9         8.2483    2.1055    3.9207 C.3       1 RES1    0.0000
     20 H7         8.7273    1.3329    3.6139 H         1 RES1    0.0000
     21 H8         8.6846    2.4651    4.6961 H         1 RES1    0.0000
     22 H9         8.2323    2.7689    3.2267 H         1 RES1    0.0000
     23 O2         1.9103    2.0406    1.1965 O.3       1 RES1    0.0000
     24 C10        1.7652    0.8000    0.4819 C.3       1 RES1    0.0000
     25 H10        1.0798    0.8924   -0.1837 H         1 RES1    0.0000
     26 H11        1.5229    0.1032    1.0964 H         1 RES1    0.0000
     27 H12        2.5969    0.5770    0.0568 H         1 RES1    0.0000
     28 N4         4.0423    1.9677    5.9217 N.pl3     1 RES1    0.0000
     29 O3         4.7773    1.7525    6.8593 O.2       1 RES1    0.0000
     30 O4         2.8365    1.8036    5.9497 O.2       1 RES1    0.0000
@<TRIPOS>BOND
     1    1    2 1
     2    2    3 1
     3    3   18 2
     4    4    7 2
     5    5    6 1
     6    7    5 1
     7    8    7 1
     8    9    5 1
     9   10    9 1
    10   11    9 1
    11   12    9 1
    12   13    5 1
    13   14   12 1
    14   15   14 1
    15   16   14 1
    16   17    1 2
    17   18    4 1
    18   19   12 1
    19   20   19 1
    20   21   19 1
    21   22   19 1
    22   23    4 1
    23   24   23 1
    24   25   24 1
    25   26   24 1
    26   27   24 1
    27   28   13 1
    28   29   28 2
    29   30   28 2
    30   13   14 1
    31   13   17 1
    32   17   18 1
@<TRIPOS>SUBSTRUCTURE
     1 RES1 1

@<TRIPOS>CRYSIN
   8.3955   14.5350   10.2904  90.0000 113.0630  90.0000  14 1

