# MOL2 file generated by ConQuest
# Please check atom types

@<TRIPOS>MOLECULE
XENPUD
    73    76     1
SMALL
NO_CHARGES
****
Generated from CSD

@<TRIPOS>ATOM
      1 O1        -0.8731   11.8536    8.1752 O.3       1 RES1    0.0000
      2 O2         1.7258    8.5649   10.4316 O.3       1 RES1    0.0000
      3 O3         1.8346   10.6940   -0.9863 O.3       1 RES1    0.0000
      4 O4         6.5052   11.9626   -0.3799 O.3       1 RES1    0.0000
      5 O5         0.3949   16.4040    3.4854 O.2       1 RES1    0.0000
      6 O6         0.1592   15.1459    1.7457 O.2       1 RES1    0.0000
      7 N1         0.9104   12.8413    5.6316 N.3       1 RES1    0.0000
      8 N2         0.9414   12.4263    2.6875 N.3       1 RES1    0.0000
      9 N3         0.1085   15.3330    2.9547 N.pl3     1 RES1    0.0000
     10 C1         1.8882   11.9868    4.9433 C.3       1 RES1    0.0000
     11 C2         1.4090   11.4032    3.6241 C.3       1 RES1    0.0000
     12 C3        -0.3934   12.8948    3.0586 C.3       1 RES1    0.0000
     13 C4        -0.3240   14.1805    3.8793 C.3       1 RES1    0.0000
     14 C5         0.7934   14.1431    4.9586 C.3       1 RES1    0.0000
     15 C6         1.3469   13.0915    7.0305 C.3       1 RES1    0.0000
     16 C7         1.4599   11.8519    7.8817 C.ar      1 RES1    0.0000
     17 C8         0.3203   11.2584    8.4672 C.ar      1 RES1    0.0000
     18 C9         0.4467   10.1541    9.3016 C.ar      1 RES1    0.0000
     19 C10        1.7180    9.6378    9.5825 C.ar      1 RES1    0.0000
     20 C11        2.8524   10.2038    9.0223 C.ar      1 RES1    0.0000
     21 C12        2.6938   11.3028    8.1803 C.ar      1 RES1    0.0000
     22 C13       -2.0412   11.3241    8.8010 C.3       1 RES1    0.0000
     23 C14        2.9970    7.9853   10.7156 C.3       1 RES1    0.0000
     24 C15        1.0541   11.9966    1.2900 C.3       1 RES1    0.0000
     25 C16        2.4988   12.0096    0.8230 C.ar      1 RES1    0.0000
     26 C17        2.8668   11.3179   -0.3375 C.ar      1 RES1    0.0000
     27 C18        4.1934   11.2755   -0.7810 C.ar      1 RES1    0.0000
     28 C19        5.1686   11.9549   -0.0503 C.ar      1 RES1    0.0000
     29 C20        4.8208   12.6885    1.0770 C.ar      1 RES1    0.0000
     30 C21        3.4996   12.7063    1.4960 C.ar      1 RES1    0.0000
     31 C22        2.1340    9.9844   -2.1877 C.3       1 RES1    0.0000
     32 C23        6.9426   11.0604   -1.3976 C.3       1 RES1    0.0000
     33 C24       -1.6984   14.5329    4.4289 C.ar      1 RES1    0.0000
     34 C25       -2.0649   14.0922    5.6995 C.ar      1 RES1    0.0000
     35 C26       -3.3384   14.3621    6.1944 C.ar      1 RES1    0.0000
     36 C27       -4.2549   15.0599    5.4313 C.ar      1 RES1    0.0000
     37 C28       -3.9022   15.4858    4.1587 C.ar      1 RES1    0.0000
     38 C29       -2.6317   15.2265    3.6549 C.ar      1 RES1    0.0000
     39 H1         2.1293   11.2412    5.5482 H         1 RES1    0.0000
     40 H2         2.7480   12.5002    4.7742 H         1 RES1    0.0000
     41 H3         0.7093   10.6865    3.7903 H         1 RES1    0.0000
     42 H4         2.1845   10.9398    3.2247 H         1 RES1    0.0000
     43 H5        -0.8873   12.2411    3.6263 H         1 RES1    0.0000
     44 H6        -0.9619   13.0721    2.2515 H         1 RES1    0.0000
     45 H7         0.5913   14.8072    5.5988 H         1 RES1    0.0000
     46 H8         1.6579   14.3926    4.5152 H         1 RES1    0.0000
     47 H9         2.2427   13.5404    7.0380 H         1 RES1    0.0000
     48 H10        0.6848   13.6902    7.4349 H         1 RES1    0.0000
     49 H11       -0.3179    9.7345    9.6834 H         1 RES1    0.0000
     50 H12        3.7289    9.8670    9.2297 H         1 RES1    0.0000
     51 H13        3.4508   11.6692    7.8104 H         1 RES1    0.0000
     52 H14       -2.2010   10.3928    8.5523 H         1 RES1    0.0000
     53 H15       -1.9768   11.3563    9.7753 H         1 RES1    0.0000
     54 H16       -2.7406   11.9014    8.4848 H         1 RES1    0.0000
     55 H17        3.5679    8.6329   11.1532 H         1 RES1    0.0000
     56 H18        2.8042    7.2241   11.3386 H         1 RES1    0.0000
     57 H19        3.4539    7.6713    9.8474 H         1 RES1    0.0000
     58 H20        0.5097   12.6442    0.7372 H         1 RES1    0.0000
     59 H21        0.6829   11.0684    1.1418 H         1 RES1    0.0000
     60 H22        4.4257   10.7709   -1.6154 H         1 RES1    0.0000
     61 H23        5.5101   13.1547    1.5664 H         1 RES1    0.0000
     62 H24        3.2662   13.2238    2.2668 H         1 RES1    0.0000
     63 H25        1.3058    9.6136   -2.4982 H         1 RES1    0.0000
     64 H26        2.5473   10.6078   -2.8370 H         1 RES1    0.0000
     65 H27        2.7704    9.2298   -2.0109 H         1 RES1    0.0000
     66 H28        6.6295   10.1568   -1.1939 H         1 RES1    0.0000
     67 H29        7.9279   11.0857   -1.3625 H         1 RES1    0.0000
     68 H30        6.6143   11.3390   -2.2699 H         1 RES1    0.0000
     69 H31       -1.4451   13.5788    6.2303 H         1 RES1    0.0000
     70 H32       -3.5711   14.0606    7.0870 H         1 RES1    0.0000
     71 H33       -5.1259   15.2467    5.7843 H         1 RES1    0.0000
     72 H34       -4.5539   15.9357    3.6048 H         1 RES1    0.0000
     73 H35       -2.3753   15.5749    2.7649 H         1 RES1    0.0000
@<TRIPOS>BOND
     1    1   17 1
     2    2   19 1
     3    3   26 1
     4    4   28 1
     5    5    9 2
     6    6    9 2
     7    7   10 1
     8    8   11 1
     9    9   13 1
    10   10   11 1
    11   11   41 1
    12   12    8 1
    13   13   12 1
    14   14    7 1
    15   15    7 1
    16   16   15 1
    17   17   16 ar
    18   18   17 ar
    19   19   18 ar
    20   20   19 ar
    21   21   16 ar
    22   22    1 1
    23   23    2 1
    24   24    8 1
    25   25   24 1
    26   26   25 ar
    27   27   26 ar
    28   28   27 ar
    29   29   28 ar
    30   30   25 ar
    31   31    3 1
    32   32    4 1
    33   33   13 1
    34   34   33 ar
    35   35   34 ar
    36   36   35 ar
    37   37   36 ar
    38   38   33 ar
    39   39   10 1
    40   40   10 1
    41   42   11 1
    42   43   12 1
    43   44   12 1
    44   45   14 1
    45   46   14 1
    46   47   15 1
    47   48   15 1
    48   49   18 1
    49   50   20 1
    50   51   21 1
    51   52   22 1
    52   53   22 1
    53   54   22 1
    54   55   23 1
    55   56   23 1
    56   57   23 1
    57   58   24 1
    58   59   24 1
    59   60   27 1
    60   61   29 1
    61   62   30 1
    62   63   31 1
    63   64   31 1
    64   65   31 1
    65   66   32 1
    66   67   32 1
    67   68   32 1
    68   69   34 1
    69   70   35 1
    70   71   36 1
    71   72   37 1
    72   73   38 1
    73   13   14 1
    74   20   21 ar
    75   29   30 ar
    76   37   38 ar
@<TRIPOS>SUBSTRUCTURE
     1 RES1 1

@<TRIPOS>CRYSIN
   8.8932   19.1927   15.3402  90.0000  92.4110  90.0000 231 1

