# MOL2 file generated by ConQuest
# Please check atom types

@<TRIPOS>MOLECULE
XENPOX
    50    52     1
SMALL
NO_CHARGES
****
Generated from CSD

@<TRIPOS>ATOM
      1 O1        17.1929   -0.6418   10.0628 O.2       1 RES1    0.0000
      2 O2        16.5265    1.2763   10.7398 O.2       1 RES1    0.0000
      3 N1        17.6032    0.6303    6.1832 N.3       1 RES1    0.0000
      4 N2        15.4749    2.1130    7.6456 N.3       1 RES1    0.0000
      5 N3        17.0269    0.5600    9.9010 N.pl3     1 RES1    0.0000
      6 C1        16.2823    0.8997    5.5991 C.3       1 RES1    0.0000
      7 C2        15.5854    2.1179    6.1832 C.3       1 RES1    0.0000
      8 C3        16.7713    2.4212    8.2607 C.3       1 RES1    0.0000
      9 C4        17.5698    1.1740    8.6004 C.3       1 RES1    0.0000
     10 C5        17.4616    0.0757    7.5340 C.3       1 RES1    0.0000
     11 C6        19.0201    1.5276    8.9052 C.3       1 RES1    0.0000
     12 H1        19.0489    2.2626    9.5217 H         1 RES1    0.0000
     13 H2        19.4682    1.7758    8.0919 H         1 RES1    0.0000
     14 H3        19.4603    0.7677    9.2934 H         1 RES1    0.0000
     15 C7        18.3605   -0.3021    5.3258 C.3       1 RES1    0.0000
     16 C8        19.8100   -0.3808    5.7285 C.ar      1 RES1    0.0000
     17 C9        20.6534    0.7114    5.5383 C.ar      1 RES1    0.0000
     18 C10       21.9779    0.6751    5.9605 C.ar      1 RES1    0.0000
     19 C11       22.4696   -0.4674    6.5829 C.ar      1 RES1    0.0000
     20 C12       21.6550   -1.5627    6.7512 C.ar      1 RES1    0.0000
     21 C13       20.3315   -1.5227    6.3247 C.ar      1 RES1    0.0000
     22 C14       14.4369    3.0581    8.0821 C.3       1 RES1    0.0000
     23 C15       13.0520    2.6083    7.6918 C.ar      1 RES1    0.0000
     24 C16       12.6009    1.3344    8.0461 C.ar      1 RES1    0.0000
     25 C17       11.2985    0.9415    7.7609 C.ar      1 RES1    0.0000
     26 C18       10.4327    1.8133    7.1073 C.ar      1 RES1    0.0000
     27 C19       10.8729    3.0702    6.7348 C.ar      1 RES1    0.0000
     28 C20       12.1807    3.4620    7.0194 C.ar      1 RES1    0.0000
     29 H4        16.4152    1.0595    4.6118 H         1 RES1    0.0000
     30 H5        15.7129    0.0908    5.7285 H         1 RES1    0.0000
     31 H6        16.0804    2.9485    5.8680 H         1 RES1    0.0000
     32 H7        14.6619    2.1433    5.7907 H         1 RES1    0.0000
     33 H8        16.6442    2.9425    9.0690 H         1 RES1    0.0000
     34 H9        17.3470    2.9546    7.6618 H         1 RES1    0.0000
     35 H10       18.1598   -0.5994    7.7015 H         1 RES1    0.0000
     36 H11       16.6155   -0.3814    7.6468 H         1 RES1    0.0000
     37 H12       18.2636    0.0303    4.3892 H         1 RES1    0.0000
     38 H13       17.9410   -1.2170    5.3003 H         1 RES1    0.0000
     39 H14       20.2969    1.5076    5.1173 H         1 RES1    0.0000
     40 H15       22.5331    1.4652    5.8001 H         1 RES1    0.0000
     41 H16       23.3750   -0.4904    6.8979 H         1 RES1    0.0000
     42 H17       21.9804   -2.3491    7.1809 H         1 RES1    0.0000
     43 H18       19.7567   -2.3068    6.4415 H         1 RES1    0.0000
     44 H19       14.4925    3.1181    9.0633 H         1 RES1    0.0000
     45 H20       14.6409    3.9839    7.6864 H         1 RES1    0.0000
     46 H21       13.2043    0.7144    8.5389 H         1 RES1    0.0000
     47 H22       11.0254    0.0484    8.0655 H         1 RES1    0.0000
     48 H23        9.4973    1.5439    6.9036 H         1 RES1    0.0000
     49 H24       10.3102    3.6751    6.2491 H         1 RES1    0.0000
     50 H25       12.4885    4.3532    6.7489 H         1 RES1    0.0000
@<TRIPOS>BOND
     1    1    5 2
     2    2    5 2
     3    3    6 1
     4    4    7 1
     5    5    9 1
     6    6    7 1
     7    7   31 1
     8    8    4 1
     9    9    8 1
    10   10    3 1
    11   11    9 1
    12   12   11 1
    13   13   11 1
    14   14   11 1
    15   15    3 1
    16   16   15 1
    17   17   16 ar
    18   18   17 ar
    19   19   18 ar
    20   20   19 ar
    21   21   16 ar
    22   22    4 1
    23   23   22 1
    24   24   23 ar
    25   25   24 ar
    26   26   25 ar
    27   27   26 ar
    28   28   23 ar
    29   29    6 1
    30   30    6 1
    31   32    7 1
    32   33    8 1
    33   34    8 1
    34   35   10 1
    35   36   10 1
    36   37   15 1
    37   38   15 1
    38   39   17 1
    39   40   18 1
    40   41   19 1
    41   42   20 1
    42   43   21 1
    43   44   22 1
    44   45   22 1
    45   46   24 1
    46   47   25 1
    47   48   26 1
    48   49   27 1
    49   50   28 1
    50    9   10 1
    51   20   21 ar
    52   27   28 ar
@<TRIPOS>SUBSTRUCTURE
     1 RES1 1

@<TRIPOS>CRYSIN
  32.4876    6.0545   20.2683  90.0000 111.4670  90.0000  15 1

