# MOL2 file generated by ConQuest
# Please check atom types

@<TRIPOS>MOLECULE
XENQOZ
    62    64     2
SMALL
NO_CHARGES
****
Generated from CSD

@<TRIPOS>ATOM
      1 C1         5.4907    7.4834    3.8390 C.3       1 RES1    0.0000
      2 H1         4.7448    7.9815    3.4443 H         1 RES1    0.0000
      3 C2         5.5905    7.7787    5.3881 C.3       1 RES1    0.0000
      4 H2         4.9182    8.4499    5.6284 H         1 RES1    0.0000
      5 C3         6.9453    8.4823    5.1718 C.3       1 RES1    0.0000
      6 H3         7.6628    7.9176    5.5285 H         1 RES1    0.0000
      7 C4         6.8377    8.2632    3.6342 C.3       1 RES1    0.0000
      8 H4         7.5494    7.6798    3.2977 H         1 RES1    0.0000
      9 C5         5.4516    6.0499    3.4010 C.ar      1 RES1    0.0000
     10 C6         4.3996    5.4782    2.6817 C.ar      1 RES1    0.0000
     11 C7         4.3380    4.1236    2.4209 C.ar      1 RES1    0.0000
     12 H5         3.6202    3.7721    1.9461 H         1 RES1    0.0000
     13 C8         5.3302    3.3062    2.8625 C.ar      1 RES1    0.0000
     14 H6         5.2865    2.3918    2.6978 H         1 RES1    0.0000
     15 C9         6.3954    3.8273    3.5526 C.ar      1 RES1    0.0000
     16 H7         7.0802    3.2691    3.8423 H         1 RES1    0.0000
     17 C10        6.4508    5.1771    3.8156 C.ar      1 RES1    0.0000
     18 H8         7.1794    5.5160    4.2847 H         1 RES1    0.0000
     19 C11        5.4980    6.6199    6.3588 C.ar      1 RES1    0.0000
     20 C12        4.3571    5.8285    6.5438 C.ar      1 RES1    0.0000
     21 C13        4.3292    4.7398    7.4120 C.ar      1 RES1    0.0000
     22 H9         3.5524    4.2361    7.5001 H         1 RES1    0.0000
     23 C14        5.4354    4.4107    8.1306 C.ar      1 RES1    0.0000
     24 H10        5.4232    3.6831    8.7101 H         1 RES1    0.0000
     25 C15        6.5687    5.1662    7.9881 C.ar      1 RES1    0.0000
     26 H11        7.3323    4.9487    8.4720 H         1 RES1    0.0000
     27 C16        6.5858    6.2522    7.1296 C.ar      1 RES1    0.0000
     28 H12        7.3644    6.7565    7.0682 H         1 RES1    0.0000
     29 C17        7.0458    9.8674    5.7883 C.2       1 RES1    0.0000
     30 C18        8.2931   10.6679    5.6174 C.ar      1 RES1    0.0000
     31 C19        8.3995   11.8678    6.2966 C.ar      1 RES1    0.0000
     32 H13        7.6867   12.1738    6.8094 H         1 RES1    0.0000
     33 C20        9.5534   12.6126    6.2185 C.ar      1 RES1    0.0000
     34 H14        9.6169   13.4159    6.6818 H         1 RES1    0.0000
     35 C21       10.6096   12.1764    5.4616 C.ar      1 RES1    0.0000
     36 H15       11.3870   12.6841    5.4116 H         1 RES1    0.0000
     37 C22       10.5191   10.9939    4.7802 C.ar      1 RES1    0.0000
     38 H16       11.2361   10.6984    4.2669 H         1 RES1    0.0000
     39 C23        9.3609   10.2343    4.8522 C.ar      1 RES1    0.0000
     40 H17        9.3022    9.4317    4.3856 H         1 RES1    0.0000
     41 C24        6.6192    9.4531    2.7403 C.2       1 RES1    0.0000
     42 C25        6.6604    9.2534    1.2717 C.ar      1 RES1    0.0000
     43 C26        6.3142   10.2953    0.4279 C.ar      1 RES1    0.0000
     44 H18        6.0565   11.1116    0.7907 H         1 RES1    0.0000
     45 C27        6.3464   10.1419   -0.9333 C.ar      1 RES1    0.0000
     46 H19        6.1145   10.8525   -1.4864 H         1 RES1    0.0000
     47 C28        6.7186    8.9425   -1.4795 C.ar      1 RES1    0.0000
     48 H20        6.7398    8.8416   -2.4038 H         1 RES1    0.0000
     49 C29        7.0583    7.8967   -0.6739 C.ar      1 RES1    0.0000
     50 H21        7.3072    7.0834   -1.0492 H         1 RES1    0.0000
     51 C30        7.0334    8.0454    0.7010 C.ar      1 RES1    0.0000
     52 H22        7.2674    7.3292    1.2467 H         1 RES1    0.0000
     53 N1         3.2937    6.2929    2.1610 N.pl3     1 RES1    0.0000
     54 O1         3.5283    7.3479    1.6577 O.2       1 RES1    0.0000
     55 O2         2.1626    5.8054    2.2847 O.2       1 RES1    0.0000
     56 N2         3.1109    6.1044    5.8350 N.pl3     1 RES1    0.0000
     57 O3         2.2173    5.3081    5.8973 O.2       1 RES1    0.0000
     58 O4         2.9700    7.1194    5.2136 O.2       1 RES1    0.0000
     59 O5         6.1554   10.2653    6.5159 O.2       1 RES1    0.0000
     60 O6         6.3384   10.5329    3.2257 O.2       1 RES1    0.0000
     61 O7         2.9054    7.2471    2.5276 Du        2 SUP2    0.0000
     62 O8         3.1479    6.1280    0.8272 Du        2 SUP2    0.0000
@<TRIPOS>BOND
     1    1    2 1
     2    3    1 1
     3    4    3 1
     4    5    3 1
     5    6    5 1
     6    7    1 1
     7    8    7 1
     8    9    1 1
     9   10    9 ar
    10   11   10 ar
    11   12   11 1
    12   13   11 ar
    13   14   13 1
    14   15   13 ar
    15   16   15 1
    16   17    9 ar
    17   18   17 1
    18   19    3 1
    19   20   19 ar
    20   21   20 ar
    21   22   21 1
    22   23   21 ar
    23   24   23 1
    24   25   23 ar
    25   26   25 1
    26   27   19 ar
    27   28   27 1
    28   29    5 1
    29   30   29 1
    30   31   30 ar
    31   32   31 1
    32   33   31 ar
    33   34   33 1
    34   35   33 ar
    35   36   35 1
    36   37   35 ar
    37   38   37 1
    38   39   30 ar
    39   40   39 1
    40   41    7 1
    41   42   41 1
    42   43   42 ar
    43   44   43 1
    44   45   43 ar
    45   46   45 1
    46   47   45 ar
    47   48   47 1
    48   49   47 ar
    49   50   49 1
    50   51   42 ar
    51   52   51 1
    52   53   10 1
    53   54   53 2
    54   55   53 2
    55   56   20 1
    56   57   56 2
    57   58   56 2
    58   59   29 2
    59   60   41 2
    60    5    7 1
    61   15   17 ar
    62   25   27 ar
    63   37   39 ar
    64   49   51 ar
@<TRIPOS>SUBSTRUCTURE
     1 RES1 1
     2 SUP2 61

@<TRIPOS>CRYSIN
   7.2599   10.5614   16.7351  78.8630  87.4720  85.2380   2 1

