# MOL2 file generated by ConQuest
# Please check atom types

@<TRIPOS>MOLECULE
XENXUM
    61    64     1
SMALL
NO_CHARGES
****
Generated from CSD

@<TRIPOS>ATOM
      1 O1        13.7260    6.8337    4.7784 O.3       1 RES1    0.0000
      2 O2        11.9608    5.8935    5.8769 O.3       1 RES1    0.0000
      3 O3        10.5480   11.0716    6.3968 O.3       1 RES1    0.0000
      4 O4        10.6644    9.2851    3.2505 O.3       1 RES1    0.0000
      5 H1         9.8528    9.4086    3.0744 H         1 RES1    0.0000
      6 O5        13.0948    9.7540    3.8976 O.3       1 RES1    0.0000
      7 H2        12.6549    9.8630    3.1897 H         1 RES1    0.0000
      8 O6         8.1793    9.2406    3.8556 O.3       1 RES1    0.0000
      9 H3         7.4427    9.6405    3.8019 H         1 RES1    0.0000
     10 N1        10.4255   12.4800    6.5058 N.2       1 RES1    0.0000
     11 C1        10.8527    9.2950    4.6779 C.3       1 RES1    0.0000
     12 C2        12.3651    8.8833    4.7892 C.3       1 RES1    0.0000
     13 C3        12.5319    7.4332    4.2595 C.3       1 RES1    0.0000
     14 H4        12.6048    7.4683    3.2631 H         1 RES1    0.0000
     15 C4        13.3580    5.7327    5.6345 C.3       1 RES1    0.0000
     16 C5        11.4529    6.4183    4.6273 C.3       1 RES1    0.0000
     17 H5        11.4955    5.6805    3.9539 H         1 RES1    0.0000
     18 C6        10.0187    6.9283    4.6497 C.3       1 RES1    0.0000
     19 H6         9.8484    7.1623    3.6927 H         1 RES1    0.0000
     20 C7         8.9505    5.8206    4.9384 C.3       1 RES1    0.0000
     21 C8         7.5667    6.4626    4.7317 C.3       1 RES1    0.0000
     22 H7         7.4544    6.6782    3.7723 H         1 RES1    0.0000
     23 H8         6.8696    5.8045    4.9763 H         1 RES1    0.0000
     24 C9         7.3531    7.7328    5.5491 C.3       1 RES1    0.0000
     25 H9         7.4088    7.5142    6.5130 H         1 RES1    0.0000
     26 H10        6.4468    8.0886    5.3692 H         1 RES1    0.0000
     27 C10        8.3913    8.8036    5.2130 C.3       1 RES1    0.0000
     28 H11        8.2559    9.5825    5.8243 H         1 RES1    0.0000
     29 C11        9.8497    8.2893    5.3776 C.3       1 RES1    0.0000
     30 C12       10.6610   10.7493    5.0914 C.2       1 RES1    0.0000
     31 C13       10.4694   12.9247    5.2864 C.2       1 RES1    0.0000
     32 C14       10.6149   11.8725    4.3454 C.2       1 RES1    0.0000
     33 H12       10.6675   11.9434    3.3999 H         1 RES1    0.0000
     34 C15       13.0124    9.1070    6.1473 C.3       1 RES1    0.0000
     35 H13       13.9763    8.9434    6.0804 H         1 RES1    0.0000
     36 H14       12.6210    8.4917    6.8018 H         1 RES1    0.0000
     37 H15       12.8567   10.0315    6.4345 H         1 RES1    0.0000
     38 C16       13.6422    4.4246    4.8978 C.3       1 RES1    0.0000
     39 H16       13.1396    4.4077    4.0560 H         1 RES1    0.0000
     40 H17       13.3679    3.6688    5.4569 H         1 RES1    0.0000
     41 H18       14.6010    4.3591    4.7070 H         1 RES1    0.0000
     42 C17       14.1108    5.8177    6.9324 C.3       1 RES1    0.0000
     43 H19       13.8511    6.6337    7.4079 H         1 RES1    0.0000
     44 H20       15.0739    5.8382    6.7508 H         1 RES1    0.0000
     45 H21       13.8997    5.0360    7.4844 H         1 RES1    0.0000
     46 C18        9.1150    4.7171    3.8845 C.3       1 RES1    0.0000
     47 H22        8.3104    4.1582    3.8692 H         1 RES1    0.0000
     48 H23        9.8926    4.1650    4.1090 H         1 RES1    0.0000
     49 H24        9.2459    5.1250    3.0029 H         1 RES1    0.0000
     50 C19        9.0261    5.1510    6.3222 C.3       1 RES1    0.0000
     51 H25        8.3443    4.4508    6.3834 H         1 RES1    0.0000
     52 H26        8.8687    5.8220    7.0191 H         1 RES1    0.0000
     53 H27        9.9132    4.7542    6.4457 H         1 RES1    0.0000
     54 C20       10.0994    8.1834    6.9035 C.3       1 RES1    0.0000
     55 H28        9.2680    7.9281    7.3538 H         1 RES1    0.0000
     56 H29       10.4038    9.0499    7.2456 H         1 RES1    0.0000
     57 H30       10.7854    7.5047    7.0763 H         1 RES1    0.0000
     58 C21       10.3749   14.4044    5.0437 C.3       1 RES1    0.0000
     59 H31       10.3434   14.8747    5.9028 H         1 RES1    0.0000
     60 H32        9.5611   14.6010    4.5345 H         1 RES1    0.0000
     61 H33       11.1581   14.7034    4.5366 H         1 RES1    0.0000
@<TRIPOS>BOND
     1    1   13 1
     2    2   15 1
     3    3   10 1
     4    4    5 1
     5    6    7 1
     6    8    9 1
     7   10   31 2
     8   11    4 1
     9   12    6 1
    10   13   12 1
    11   14   13 1
    12   15    1 1
    13   16    2 1
    14   17   16 1
    15   18   16 1
    16   19   18 1
    17   20   18 1
    18   21   20 1
    19   22   21 1
    20   23   21 1
    21   24   21 1
    22   25   24 1
    23   26   24 1
    24   27    8 1
    25   28   27 1
    26   29   11 1
    27   30    3 1
    28   31   32 1
    29   32   30 2
    30   33   32 1
    31   34   12 1
    32   35   34 1
    33   36   34 1
    34   37   34 1
    35   38   15 1
    36   39   38 1
    37   40   38 1
    38   41   38 1
    39   42   15 1
    40   43   42 1
    41   44   42 1
    42   45   42 1
    43   46   20 1
    44   47   46 1
    45   48   46 1
    46   49   46 1
    47   50   20 1
    48   51   50 1
    49   52   50 1
    50   53   50 1
    51   54   29 1
    52   55   54 1
    53   56   54 1
    54   57   54 1
    55   58   31 1
    56   59   58 1
    57   60   58 1
    58   61   58 1
    59   11   12 1
    60   11   30 1
    61   13   16 1
    62   18   29 1
    63   24   27 1
    64   27   29 1
@<TRIPOS>SUBSTRUCTURE
     1 RES1 1

@<TRIPOS>CRYSIN
  14.7321   13.4832   10.2037  90.0000  90.0000  90.0000  33 1

