# MOL2 file generated by ConQuest
# Please check atom types

@<TRIPOS>MOLECULE
XEPYUN
    36    38     1
SMALL
NO_CHARGES
****
Generated from CSD

@<TRIPOS>ATOM
      1 O1         8.6067    5.5323    7.5255 O.3       1 RES1    0.0000
      2 C1         7.4005    5.2391    8.2348 C.3       1 RES1    0.0000
      3 O2         7.7114    4.9081    9.5873 O.3       1 RES1    0.0000
      4 C2         8.4711    5.8776   10.3128 C.3       1 RES1    0.0000
      5 H1         7.9660    6.2123   11.0830 H         1 RES1    0.0000
      6 C3         8.8993    7.0126    9.4131 C.2       1 RES1    0.0000
      7 C4         9.4355    6.5248    8.1178 C.3       1 RES1    0.0000
      8 H2         9.5654    7.2736    7.4994 H         1 RES1    0.0000
      9 C5         9.7777    5.2119   10.7582 C.3       1 RES1    0.0000
     10 H3        10.3139    5.8813   11.2323 H         1 RES1    0.0000
     11 C6        10.5573    4.7680    9.5264 C.3       1 RES1    0.0000
     12 H4        10.0650    4.0403    9.0921 H         1 RES1    0.0000
     13 C7        10.8116    5.8788    8.4836 C.3       1 RES1    0.0000
     14 H5        11.3716    6.5669    8.8992 H         1 RES1    0.0000
     15 N1        11.8968    4.2356    9.9843 N.pl3     1 RES1    0.0000
     16 O3        12.1146    3.0467    9.8287 O.2       1 RES1    0.0000
     17 O4        12.6636    5.0030   10.5031 O.2       1 RES1    0.0000
     18 C8        11.5327    5.3445    7.2928 C.2       1 RES1    0.0000
     19 C9        12.4769    5.9210    6.5873 C.2       1 RES1    0.0000
     20 H6        12.8393    6.7684    6.7142 H         1 RES1    0.0000
     21 C10       12.8338    4.9652    5.5732 C.2       1 RES1    0.0000
     22 H7        13.4981    5.0811    4.9349 H         1 RES1    0.0000
     23 C11       12.0908    3.9337    5.6889 C.2       1 RES1    0.0000
     24 H8        12.1201    3.1806    5.1439 H         1 RES1    0.0000
     25 O5        11.2252    4.1252    6.7752 O.3       1 RES1    0.0000
     26 O6         9.5489    4.1407   11.6305 O.3       1 RES1    0.0000
     27 O7         9.0146    8.1600    9.8076 O.2       1 RES1    0.0000
     28 C12        6.8845    3.9554    7.6188 C.3       1 RES1    0.0000
     29 H9         6.0536    3.7124    8.0357 H         1 RES1    0.0000
     30 H10        7.5268    3.2549    7.7532 H         1 RES1    0.0000
     31 H11        6.7454    4.0849    6.6782 H         1 RES1    0.0000
     32 C13        6.3904    6.3654    8.1303 C.3       1 RES1    0.0000
     33 H12        6.7600    7.1651    8.5098 H         1 RES1    0.0000
     34 H13        5.5925    6.1249    8.6068 H         1 RES1    0.0000
     35 H14        6.1763    6.5192    7.2070 H         1 RES1    0.0000
     36 H15        9.2781    3.5023   10.9872 H         1 RES1    0.0000
@<TRIPOS>BOND
     1    1    2 1
     2    2    3 1
     3    3    4 1
     4    4    5 1
     5    6    4 1
     6    7    1 1
     7    8    7 1
     8    9    4 1
     9   10    9 1
    10   11    9 1
    11   12   11 1
    12   13    7 1
    13   14   13 1
    14   15   11 1
    15   16   15 2
    16   17   15 2
    17   18   13 1
    18   19   18 2
    19   20   19 1
    20   21   19 1
    21   22   21 1
    22   23   21 2
    23   24   23 1
    24   25   18 1
    25   26    9 1
    26   27    6 2
    27   28    2 1
    28   29   28 1
    29   30   28 1
    30   31   28 1
    31   32    2 1
    32   33   32 1
    33   34   32 1
    34   35   32 1
    35   36   26 1
    36    6    7 1
    37   11   13 1
    38   23   25 1
@<TRIPOS>SUBSTRUCTURE
     1 RES1 1

@<TRIPOS>CRYSIN
  18.3000    6.1987   12.4430  90.0000  90.0000  90.0000  33 1

