# MOL2 file generated by ConQuest
# Please check atom types

@<TRIPOS>MOLECULE
XEPZID
    39    41     1
SMALL
NO_CHARGES
****
Generated from CSD

@<TRIPOS>ATOM
      1 O1        14.5464    6.5303    5.6220 O.2       1 RES1    0.0000
      2 O2        14.5176    7.6106    7.4647 O.2       1 RES1    0.0000
      3 O3        14.9498    1.7892    9.6871 O.3       1 RES1    0.0000
      4 O4        10.7770    2.2637   11.3752 O.3       1 RES1    0.0000
      5 O5        13.3905   -1.3145   12.5035 O.3       1 RES1    0.0000
      6 O6         8.5431   -4.0043   15.4046 O.2       1 RES1    0.0000
      7 O7         9.6317   -3.2399   17.1027 O.2       1 RES1    0.0000
      8 N1        14.5773    6.5722    6.8351 N.pl3     1 RES1    0.0000
      9 N2        12.8151    2.0704   10.4819 N.ar      1 RES1    0.0000
     10 N3        14.1929    0.2290   11.0965 N.ar      1 RES1    0.0000
     11 N4        12.0232    0.4722   12.0591 N.ar      1 RES1    0.0000
     12 N5         9.4860   -3.4010   15.8978 N.pl3     1 RES1    0.0000
     13 C1        14.8046    3.0014    8.9916 C.ar      1 RES1    0.0000
     14 C2        14.7561    4.1938    9.6804 C.ar      1 RES1    0.0000
     15 H1        14.7601    4.2009   10.6299 H         1 RES1    0.0000
     16 C3        14.7021    5.3806    8.9724 C.ar      1 RES1    0.0000
     17 H2        14.6730    6.2168    9.4213 H         1 RES1    0.0000
     18 C4        14.6906    5.3174    7.5889 C.ar      1 RES1    0.0000
     19 C5        14.7410    4.1274    6.8943 C.ar      1 RES1    0.0000
     20 H3        14.7331    4.1188    5.9452 H         1 RES1    0.0000
     21 C6        14.8030    2.9454    7.6124 C.ar      1 RES1    0.0000
     22 H4        14.8441    2.1091    7.1629 H         1 RES1    0.0000
     23 C7        13.9335    1.3637   10.4520 C.ar      1 RES1    0.0000
     24 C8        13.1811   -0.1477   11.8540 C.ar      1 RES1    0.0000
     25 C9        11.9029    1.5627   11.3083 C.ar      1 RES1    0.0000
     26 C10        9.7418    1.7554   12.2502 C.3       1 RES1    0.0000
     27 H5         9.6237    0.7952   12.0948 H         1 RES1    0.0000
     28 H6         8.9004    2.2213   12.0643 H         1 RES1    0.0000
     29 H7        10.0008    1.9054   13.1843 H         1 RES1    0.0000
     30 C11       12.3705   -1.7996   13.3302 C.ar      1 RES1    0.0000
     31 C12       12.5520   -1.6922   14.6877 C.ar      1 RES1    0.0000
     32 H8        13.3251   -1.2650   15.0369 H         1 RES1    0.0000
     33 C13       11.5914   -2.2173   15.5398 C.ar      1 RES1    0.0000
     34 H9        11.6909   -2.1533   16.4835 H         1 RES1    0.0000
     35 C14       10.4873   -2.8332   14.9871 C.ar      1 RES1    0.0000
     36 C15       10.3039   -2.9406   13.6250 C.ar      1 RES1    0.0000
     37 H10        9.5302   -3.3647   13.2759 H         1 RES1    0.0000
     38 C16       11.2648   -2.4202   12.7766 C.ar      1 RES1    0.0000
     39 H11       11.1678   -2.4882   11.8354 H         1 RES1    0.0000
@<TRIPOS>BOND
     1    1    8 2
     2    2    8 2
     3    3   13 1
     4    4   25 1
     5    5   24 1
     6    6   12 2
     7    7   12 2
     8    8   18 1
     9    9   23 ar
    10   10   23 ar
    11   11   24 ar
    12   12   35 1
    13   13   14 ar
    14   14   15 1
    15   16   14 ar
    16   17   16 1
    17   18   16 ar
    18   19   18 ar
    19   20   19 1
    20   21   13 ar
    21   22   21 1
    22   23    3 1
    23   24   10 ar
    24   25    9 ar
    25   26    4 1
    26   27   26 1
    27   28   26 1
    28   29   26 1
    29   30    5 1
    30   31   30 ar
    31   32   31 1
    32   33   31 ar
    33   34   33 1
    34   35   33 ar
    35   36   35 ar
    36   37   36 1
    37   38   30 ar
    38   39   38 1
    39   11   25 ar
    40   19   21 ar
    41   36   38 ar
@<TRIPOS>SUBSTRUCTURE
     1 RES1 1

@<TRIPOS>CRYSIN
  13.8180    7.8964   30.7180  90.0000  96.5200  90.0000  15 1

