# MOL2 file generated by ConQuest
# Please check atom types

@<TRIPOS>MOLECULE
XEQCEE
    42    47     1
SMALL
NO_CHARGES
****
Generated from CSD

@<TRIPOS>ATOM
      1 N1        14.8950   12.4954    5.6226 N.pl3     1 RES1    0.0000
      2 O1         8.7099   12.7325    4.5383 O.2       1 RES1    0.0000
      3 N2        15.6202   12.4854    6.7749 N.2       1 RES1    0.0000
      4 N3         9.2923   12.7239    5.6226 N.pl3     1 RES1    0.0000
      5 C1        16.8599   12.4600    6.3267 C.2       1 RES1    0.0000
      6 C2        18.8931   11.2088    6.3259 C.ar      1 RES1    0.0000
      7 C3        18.9225   13.6610    6.3254 C.ar      1 RES1    0.0000
      8 C4        18.2326   12.4439    6.9525 C.3       1 RES1    0.0000
      9 C5        13.4890   12.5826    5.6226 C.ar      1 RES1    0.0000
     10 C6        19.4077   10.1322    7.0266 C.ar      1 RES1    0.0000
     11 C7        10.7539   12.7094    5.6226 C.ar      1 RES1    0.0000
     12 C8        19.4535   14.7308    7.0276 C.ar      1 RES1    0.0000
     13 C9        11.4244   12.6872    4.4091 C.ar      1 RES1    0.0000
     14 C10       12.8050   12.6201    4.4088 C.ar      1 RES1    0.0000
     15 C11       19.9083    9.0377    6.3153 C.ar      1 RES1    0.0000
     16 C12       19.9833   15.8112    6.3156 C.ar      1 RES1    0.0000
     17 H1        18.2287   12.4491    7.9627 H         1 RES1    0.0000
     18 H2        20.2734    8.2773    6.7640 H         1 RES1    0.0000
     19 H3        19.4175   10.1376    8.0223 H         1 RES1    0.0000
     20 H4        19.4032   14.7212    8.0324 H         1 RES1    0.0000
     21 H5        13.2977   12.5834    3.5895 H         1 RES1    0.0000
     22 H6        10.8967   12.6962    3.5681 H         1 RES1    0.0000
     23 H7        20.3271   16.5815    6.7966 H         1 RES1    0.0000
     24 O1I        8.7099   12.7325    6.7069 O.2       1 RES1    0.0000
     25 N2I       15.6202   12.4854    4.4703 N.2       1 RES1    0.0000
     26 C1I       16.8599   12.4600    4.9185 C.2       1 RES1    0.0000
     27 C2I       18.8931   11.2088    4.9193 C.ar      1 RES1    0.0000
     28 C3I       18.9225   13.6610    4.9198 C.ar      1 RES1    0.0000
     29 C4I       18.2326   12.4439    4.2927 C.3       1 RES1    0.0000
     30 C6I       19.4077   10.1322    4.2186 C.ar      1 RES1    0.0000
     31 C8I       19.4535   14.7308    4.2176 C.ar      1 RES1    0.0000
     32 C9I       11.4244   12.6872    6.8361 C.ar      1 RES1    0.0000
     33 C10I      12.8050   12.6201    6.8364 C.ar      1 RES1    0.0000
     34 C11I      19.9083    9.0377    4.9299 C.ar      1 RES1    0.0000
     35 C12I      19.9833   15.8112    4.9296 C.ar      1 RES1    0.0000
     36 H1I       18.2287   12.4491    3.2825 H         1 RES1    0.0000
     37 H2I       20.2734    8.2773    4.4812 H         1 RES1    0.0000
     38 H3I       19.4175   10.1376    3.2229 H         1 RES1    0.0000
     39 H4I       19.4032   14.7212    3.2128 H         1 RES1    0.0000
     40 H5I       13.2977   12.5834    7.6557 H         1 RES1    0.0000
     41 H6I       10.8967   12.6962    7.6771 H         1 RES1    0.0000
     42 H7I       20.3271   16.5815    4.4486 H         1 RES1    0.0000
@<TRIPOS>BOND
     1    1    3 1
     2    2    4 2
     3    3    5 2
     4    4   11 1
     5    5    8 1
     6    6    8 1
     7    7    8 1
     8    8   17 1
     9    9    1 1
    10   10    6 ar
    11   11   13 ar
    12   12    7 ar
    13   13   14 ar
    14   14    9 ar
    15   15   10 ar
    16   16   12 ar
    17   18   15 1
    18   19   10 1
    19   20   12 1
    20   21   14 1
    21   22   13 1
    22   23   16 1
    23   24    4 2
    24   25    1 1
    25   26    5 1
    26   27    6 ar
    27   28    7 ar
    28   29   26 1
    29   30   27 ar
    30   31   28 ar
    31   32   11 ar
    32   33    9 ar
    33   34   15 ar
    34   35   16 ar
    35   36   29 1
    36   37   34 1
    37   38   30 1
    38   39   31 1
    39   40   33 1
    40   41   32 1
    41   42   35 1
    42   25   26 2
    43   27   29 1
    44   28   29 1
    45   30   34 ar
    46   31   35 ar
    47   32   33 ar
@<TRIPOS>SUBSTRUCTURE
     1 RES1 1

@<TRIPOS>CRYSIN
  17.9046   17.9046   11.2452  90.0000  90.0000  90.0000  87 1

