# MOL2 file generated by ConQuest
# Please check atom types

@<TRIPOS>MOLECULE
XEQYUO
    41    43     1
SMALL
USER_CHARGES
****
Generated from CSD

@<TRIPOS>ATOM
      1 O1         1.8557    5.3544    2.7561 O.3       1 RES1    0.0000
      2 O2         3.0445    3.7153    1.0744 O.2       1 RES1    0.0000
      3 C1        -0.9814    3.8874    0.9543 C.ar      1 RES1    0.0000
      4 O3         1.9850    8.0690   -1.6152 O.3       1 RES1    0.0000
      5 C2         1.1799    5.1334    1.5258 C.3       1 RES1    0.0000
      6 C3         1.8961    3.9741    0.8325 C.2       1 RES1    0.0000
      7 C4         1.2910    6.3895    0.6040 C.3       1 RES1    0.0000
      8 H1         0.7988    6.2196   -0.2145 H         1 RES1    0.0000
      9 H2         0.8718    7.1409    1.0498 H         1 RES1    0.0000
     10 N1        -2.2743    3.5687    1.1286 N.ar      1 RES1    0.0000
     11 C5        -0.2938    4.8189    1.7191 C.ar      1 RES1    0.0000
     12 N2        -1.0216    5.5102    2.6466 N.pl3     1 RES1    1.0000
     13 C6         1.8024    2.5157   -1.1867 C.ar      1 RES1    0.0000
     14 H3         2.7314    2.5327   -1.2118 H         1 RES1    0.0000
     15 C7         1.1275    3.2177   -0.1888 C.ar      1 RES1    0.0000
     16 C8         2.7218    6.7669    0.2453 C.3       1 RES1    0.0000
     17 H4         3.0918    6.0819   -0.3330 H         1 RES1    0.0000
     18 H5         3.2538    6.7873    1.0565 H         1 RES1    0.0000
     19 C9        -0.2668    3.1752   -0.1380 C.ar      1 RES1    0.0000
     20 C10       -2.3074    5.1708    2.8751 C.ar      1 RES1    0.0000
     21 H6        -2.7901    5.5957    3.5466 H         1 RES1    0.0000
     22 C11       -2.8965    4.1951    2.1113 C.ar      1 RES1    0.0000
     23 H7        -3.7794    3.9639    2.2946 H         1 RES1    0.0000
     24 C12       -0.9719    2.4307   -1.0878 C.ar      1 RES1    0.0000
     25 H8        -1.8992    2.3848   -1.0509 H         1 RES1    0.0000
     26 C13        1.1084    1.7984   -2.1354 C.ar      1 RES1    0.0000
     27 H9         1.5626    1.3411   -2.8047 H         1 RES1    0.0000
     28 C14        2.8362    8.1284   -0.4598 C.3       1 RES1    0.0000
     29 C15       -0.2843    1.7661   -2.0806 C.ar      1 RES1    0.0000
     30 H10       -0.7559    1.2884   -2.7237 H         1 RES1    0.0000
     31 C16        2.4376    9.2758    0.4598 C.3       1 RES1    0.0000
     32 H11        2.5186   10.1070   -0.0129 H         1 RES1    0.0000
     33 H12        3.0156    9.2860    1.2269 H         1 RES1    0.0000
     34 H13        1.5292    9.1568    0.7447 H         1 RES1    0.0000
     35 C17        4.2701    8.3273   -0.9487 C.3       1 RES1    0.0000
     36 H14        4.5147    7.6032   -1.5286 H         1 RES1    0.0000
     37 H15        4.8656    8.3494   -0.1955 H         1 RES1    0.0000
     38 H16        4.3321    9.1568   -1.4292 H         1 RES1    0.0000
     39 O4        -0.5134    6.5160    3.2807 O.2       1 RES1   -1.0000
     40 H17        1.6356    8.8730   -1.6314 H         1 RES1    0.0000
     41 H18        1.4451    6.1533    3.1008 H         1 RES1    0.0000
@<TRIPOS>BOND
     1    1    5 1
     2    2    6 2
     3    3   10 ar
     4    4   28 1
     5    5    6 1
     6    6   15 1
     7    7    5 1
     8    8    7 1
     9    9    7 1
    10   10   22 ar
    11   11    3 ar
    12   12   11 ar
    13   13   14 1
    14   15   13 ar
    15   16    7 1
    16   17   16 1
    17   18   16 1
    18   19    3 1
    19   20   12 ar
    20   21   20 1
    21   22   20 ar
    22   23   22 1
    23   24   19 ar
    24   25   24 1
    25   26   13 ar
    26   27   26 1
    27   28   16 1
    28   29   24 ar
    29   30   29 1
    30   31   28 1
    31   32   31 1
    32   33   31 1
    33   34   31 1
    34   35   28 1
    35   36   35 1
    36   37   35 1
    37   38   35 1
    38   39   12 1
    39   40    4 1
    40   41    1 1
    41    5   11 1
    42   15   19 ar
    43   26   29 ar
@<TRIPOS>SUBSTRUCTURE
     1 RES1 1

@<TRIPOS>CRYSIN
  15.8800   16.9980    5.5870  90.0000  90.0000  90.0000  18 1

