# MOL2 file generated by ConQuest
# Please check atom types

@<TRIPOS>MOLECULE
XERGUW
    28    30     1
SMALL
NO_CHARGES
****
Generated from CSD

@<TRIPOS>ATOM
      1 N1         0.9292   16.8685    0.3244 N.am      1 RES1    0.0000
      2 C1         1.0894   17.3160   -0.9722 C.2       1 RES1    0.0000
      3 O1         0.9271   18.4504   -1.3410 O.2       1 RES1    0.0000
      4 C2         1.4872   16.1424   -1.8095 C.3       1 RES1    0.0000
      5 C3         1.4412   14.9550   -0.8937 C.3       1 RES1    0.0000
      6 C4         1.0390   15.5026    0.4390 C.2       1 RES1    0.0000
      7 O2         0.8183   14.8726    1.4500 O.2       1 RES1    0.0000
      8 C5         2.7272   15.4398   -1.4325 C.3       1 RES1    0.0000
      9 N2         3.7256   16.0757   -0.5249 N.pl3     1 RES1    0.0000
     10 O3         4.1322   17.1806   -0.8003 O.2       1 RES1    0.0000
     11 O4         4.0974   15.4398    0.4251 O.2       1 RES1    0.0000
     12 C6         0.4651   17.7262    1.4241 C.3       1 RES1    0.0000
     13 C7         1.4671   17.8793    2.5304 C.ar      1 RES1    0.0000
     14 C8         2.7127   18.4445    2.3058 C.ar      1 RES1    0.0000
     15 C9         3.6021   18.6270    3.3316 C.ar      1 RES1    0.0000
     16 C10        3.2687   18.2679    4.6070 C.ar      1 RES1    0.0000
     17 C11        2.0471   17.7125    4.8546 C.ar      1 RES1    0.0000
     18 C12        1.1500   17.5084    3.8224 C.ar      1 RES1    0.0000
     19 H1         1.1599   16.4309   -2.6644 H         1 RES1    0.0000
     20 H2         1.0658   14.0718   -0.8438 H         1 RES1    0.0000
     21 H3         3.4478   15.0453   -1.9287 H         1 RES1    0.0000
     22 H4         0.2673   18.5956    1.0702 H         1 RES1    0.0000
     23 H5        -0.3343   17.3396    1.7910 H         1 RES1    0.0000
     24 H6         2.9554   18.7134    1.4177 H         1 RES1    0.0000
     25 H7         4.4651   19.0078    3.1533 H         1 RES1    0.0000
     26 H8         3.8907   18.4053    5.3250 H         1 RES1    0.0000
     27 H9         1.8094   17.4613    5.7502 H         1 RES1    0.0000
     28 H10        0.2990   17.1041    4.0053 H         1 RES1    0.0000
@<TRIPOS>BOND
     1    1    2 1
     2    2    3 2
     3    4    2 1
     4    5    4 1
     5    6    1 1
     6    7    6 2
     7    8    4 1
     8    9    8 1
     9   10    9 2
    10   11    9 2
    11   12    1 1
    12   13   12 1
    13   14   13 ar
    14   15   14 ar
    15   16   15 ar
    16   17   16 ar
    17   18   13 ar
    18   19    4 1
    19   20    5 1
    20   21    8 1
    21   22   12 1
    22   23   12 1
    23   24   14 1
    24   25   15 1
    25   26   16 1
    26   27   17 1
    27   28   18 1
    28    5    6 1
    29    5    8 1
    30   17   18 ar
@<TRIPOS>SUBSTRUCTURE
     1 RES1 1

@<TRIPOS>CRYSIN
   6.2970   19.6260    9.5650  90.0000 104.9400  90.0000 231 1

