# MOL2 file generated by ConQuest
# Please check atom types

@<TRIPOS>MOLECULE
XERNAM
    55    58     1
SMALL
NO_CHARGES
****
Generated from CSD

@<TRIPOS>ATOM
      1 O1         2.0587   28.9231    7.7641 O.3       1 RES1    0.0000
      2 O2         0.7863   31.0279    9.2408 O.2       1 RES1    0.0000
      3 O3         0.5953   31.9184    7.1983 O.3       1 RES1    0.0000
      4 O4        -1.0691   29.5900    4.4909 O.2       1 RES1    0.0000
      5 O5        -1.6453   30.3187    6.5335 O.3       1 RES1    0.0000
      6 N1         1.8745   27.5776    7.1685 N.3       1 RES1    0.0000
      7 C1         1.7331   27.8674    4.6331 C.ar      1 RES1    0.0000
      8 C2         2.1620   29.0992    4.1582 C.ar      1 RES1    0.0000
      9 H1         1.9385   29.8891    4.6370 H         1 RES1    0.0000
     10 C3         2.9135   29.1951    2.9920 C.ar      1 RES1    0.0000
     11 H2         3.1951   30.0483    2.6797 H         1 RES1    0.0000
     12 C4         3.2519   28.0578    2.2864 C.ar      1 RES1    0.0000
     13 H3         3.7616   28.1247    1.4873 H         1 RES1    0.0000
     14 C5         2.8433   26.8228    2.7517 C.ar      1 RES1    0.0000
     15 H4         3.0812   26.0355    2.2748 H         1 RES1    0.0000
     16 C6         2.0860   26.7234    3.9127 C.ar      1 RES1    0.0000
     17 H5         1.8057   25.8699    4.2194 H         1 RES1    0.0000
     18 C7         0.9688   27.7562    5.9616 C.3       1 RES1    0.0000
     19 C8        -0.0371   26.5998    5.9572 C.ar      1 RES1    0.0000
     20 C9        -0.8958   26.4552    4.8685 C.ar      1 RES1    0.0000
     21 H6        -0.8340   27.0578    4.1373 H         1 RES1    0.0000
     22 C10       -1.8397   25.4384    4.8439 C.ar      1 RES1    0.0000
     23 H7        -2.4181   25.3476    4.0958 H         1 RES1    0.0000
     24 C11       -1.9423   24.5552    5.9054 C.ar      1 RES1    0.0000
     25 H8        -2.5830   23.8539    5.8844 H         1 RES1    0.0000
     26 C12       -1.1076   24.7008    6.9935 C.ar      1 RES1    0.0000
     27 H9        -1.1807   24.0992    7.7253 H         1 RES1    0.0000
     28 C13       -0.1597   25.7180    7.0303 C.ar      1 RES1    0.0000
     29 H10        0.4050   25.8126    7.7885 H         1 RES1    0.0000
     30 C14        3.2288   27.0941    6.8963 C.3       1 RES1    0.0000
     31 H11        3.7321   27.7903    6.4031 H         1 RES1    0.0000
     32 H12        3.1794   26.2871    6.3228 H         1 RES1    0.0000
     33 C15        3.9610   26.7565    8.1673 C.ar      1 RES1    0.0000
     34 C16        3.6629   25.5868    8.8549 C.ar      1 RES1    0.0000
     35 H13        2.9488   25.0355    8.5588 H         1 RES1    0.0000
     36 C17        4.3978   25.2196    9.9666 C.ar      1 RES1    0.0000
     37 H14        4.1920   24.4144   10.4276 H         1 RES1    0.0000
     38 C18        5.4341   26.0240   10.4071 C.ar      1 RES1    0.0000
     39 H15        5.9472   25.7648   11.1636 H         1 RES1    0.0000
     40 C19        5.7239   27.1989    9.7514 C.ar      1 RES1    0.0000
     41 H16        6.4250   27.7585   10.0641 H         1 RES1    0.0000
     42 C20        4.9863   27.5635    8.6296 C.ar      1 RES1    0.0000
     43 H17        5.1880   28.3731    8.1763 H         1 RES1    0.0000
     44 C21        0.9937   29.6321    7.3360 C.2       1 RES1    0.0000
     45 C22        0.7829   30.9337    8.0542 C.2       1 RES1    0.0000
     46 C23        0.1742   33.1805    7.7774 C.3       1 RES1    0.0000
     47 H18        0.0646   33.8446    7.0660 H         1 RES1    0.0000
     48 H19        0.8530   33.4910    8.4126 H         1 RES1    0.0000
     49 H20       -0.6787   33.0579    8.2440 H         1 RES1    0.0000
     50 C24        0.2975   29.0671    6.3584 C.2       1 RES1    0.0000
     51 C25       -0.8578   29.6680    5.6689 C.2       1 RES1    0.0000
     52 C26       -2.6754   31.1448    5.9456 C.3       1 RES1    0.0000
     53 H21       -3.1982   31.5706    6.6565 H         1 RES1    0.0000
     54 H22       -3.2644   30.5897    5.3938 H         1 RES1    0.0000
     55 H23       -2.2604   31.8350    5.3874 H         1 RES1    0.0000
@<TRIPOS>BOND
     1    1    6 1
     2    2   45 2
     3    3   45 1
     4    4   51 2
     5    5   51 1
     6    6   18 1
     7    7    8 ar
     8    8    9 1
     9   10    8 ar
    10   11   10 1
    11   12   10 ar
    12   13   12 1
    13   14   12 ar
    14   15   14 1
    15   16    7 ar
    16   17   16 1
    17   18    7 1
    18   19   18 1
    19   20   19 ar
    20   21   20 1
    21   22   20 ar
    22   23   22 1
    23   24   22 ar
    24   25   24 1
    25   26   24 ar
    26   27   26 1
    27   28   19 ar
    28   29   28 1
    29   30    6 1
    30   31   30 1
    31   32   30 1
    32   33   30 1
    33   34   33 ar
    34   35   34 1
    35   36   34 ar
    36   37   36 1
    37   38   36 ar
    38   39   38 1
    39   40   38 ar
    40   41   40 1
    41   42   33 ar
    42   43   42 1
    43   44    1 1
    44   45   44 1
    45   46    3 1
    46   47   46 1
    47   48   46 1
    48   49   46 1
    49   50   18 1
    50   51   50 1
    51   52    5 1
    52   53   52 1
    53   54   52 1
    54   55   52 1
    55   14   16 ar
    56   26   28 ar
    57   40   42 ar
    58   44   50 2
@<TRIPOS>SUBSTRUCTURE
     1 RES1 1

@<TRIPOS>CRYSIN
   7.5299   31.8477    9.1473  90.0000  99.5824  90.0000 231 1

