# MOL2 file generated by ConQuest
# Please check atom types

@<TRIPOS>MOLECULE
XERNIS
    68    71     1
SMALL
NO_CHARGES
****
Generated from CSD

@<TRIPOS>ATOM
      1 O1         6.3993    0.9411  -12.3157 O.2       1 RES1    0.0000
      2 O2         4.3501    0.7522  -11.4617 O.3       1 RES1    0.0000
      3 O3         3.2665    3.1714    3.0702 O.2       1 RES1    0.0000
      4 O4         3.2678    4.5403    1.4105 O.2       1 RES1    0.0000
      5 N1         3.3990    2.8399   -3.2327 N.2       1 RES1    0.0000
      6 N2         3.2653    3.3977    1.8641 N.pl3     1 RES1    0.0000
      7 C1         5.2739   -0.0853   -7.1480 C.3       1 RES1    0.0000
      8 H1         5.4787   -0.2550   -6.1955 H         1 RES1    0.0000
      9 H2         4.3082   -0.2558   -7.2839 H         1 RES1    0.0000
     10 C2         6.0765   -1.0614   -8.0103 C.3       1 RES1    0.0000
     11 H3         7.0409   -0.9522   -7.8158 H         1 RES1    0.0000
     12 H4         5.8223   -1.9889   -7.7764 H         1 RES1    0.0000
     13 C3         5.8420   -0.8422   -9.4849 C.3       1 RES1    0.0000
     14 H5         4.8953   -1.0391   -9.6971 H         1 RES1    0.0000
     15 H6         6.4062   -1.4709  -10.0025 H         1 RES1    0.0000
     16 C4         6.1697    0.6104   -9.9187 C.3       1 RES1    0.0000
     17 C5         5.3759    1.5690   -8.9973 C.3       1 RES1    0.0000
     18 H7         4.4198    1.3203   -9.1505 H         1 RES1    0.0000
     19 C6         5.4463    3.0487   -9.3957 C.3       1 RES1    0.0000
     20 H8         6.2693    3.4614   -9.0323 H         1 RES1    0.0000
     21 H9         5.4622    3.1363  -10.3817 H         1 RES1    0.0000
     22 C7         4.2157    3.7387   -8.8259 C.3       1 RES1    0.0000
     23 H10        4.3013    4.7164   -8.9584 H         1 RES1    0.0000
     24 H11        3.4143    3.4351   -9.3228 H         1 RES1    0.0000
     25 C8         4.0261    3.4543   -7.3593 C.ar      1 RES1    0.0000
     26 C9         4.5948    2.3363   -6.7501 C.ar      1 RES1    0.0000
     27 C10        5.5719    1.3945   -7.4681 C.3       1 RES1    0.0000
     28 C11        4.3571    2.1435   -5.3903 C.ar      1 RES1    0.0000
     29 H12        4.7565    1.3984   -4.9594 H         1 RES1    0.0000
     30 C12        3.5487    3.0104   -4.6368 C.ar      1 RES1    0.0000
     31 C13        2.9882    4.1395   -5.2445 C.ar      1 RES1    0.0000
     32 C14        3.2221    4.3132   -6.5925 C.ar      1 RES1    0.0000
     33 H13        2.8170    5.0551   -7.0278 H         1 RES1    0.0000
     34 C15        2.0974    5.0949   -4.4644 C.3       1 RES1    0.0000
     35 H14        2.2457    4.9164   -3.4918 H         1 RES1    0.0000
     36 C16        0.6283    4.8678   -4.7486 C.3       1 RES1    0.0000
     37 H15        0.0894    5.4240   -4.1468 H         1 RES1    0.0000
     38 H16        0.4096    3.9236   -4.6048 H         1 RES1    0.0000
     39 H17        0.4343    5.1093   -5.6784 H         1 RES1    0.0000
     40 C17        2.4600    6.5499   -4.7210 C.3       1 RES1    0.0000
     41 H18        1.9287    7.1276   -4.1320 H         1 RES1    0.0000
     42 H19        2.2724    6.7739   -5.6587 H         1 RES1    0.0000
     43 H20        3.4130    6.6870   -4.5358 H         1 RES1    0.0000
     44 C18        5.7063    0.7928  -11.3558 C.2       1 RES1    0.0000
     45 C19        7.6927    0.8407   -9.9409 C.3       1 RES1    0.0000
     46 H21        7.8772    1.7889  -10.1059 H         1 RES1    0.0000
     47 H22        8.0947    0.2996  -10.6526 H         1 RES1    0.0000
     48 H23        8.0750    0.5809   -9.0766 H         1 RES1    0.0000
     49 C20        6.9851    1.7395   -6.9446 C.3       1 RES1    0.0000
     50 H24        6.9750    1.7570   -5.9641 H         1 RES1    0.0000
     51 H25        7.2539    2.6184   -7.2839 H         1 RES1    0.0000
     52 H26        7.6223    1.0614   -7.2544 H         1 RES1    0.0000
     53 C21        3.8359    0.8893  -12.7993 C.3       1 RES1    0.0000
     54 H27        2.8588    0.8128  -12.7850 H         1 RES1    0.0000
     55 H28        4.2093    0.1833  -13.3662 H         1 RES1    0.0000
     56 H29        4.0889    1.7650  -13.1593 H         1 RES1    0.0000
     57 C22        3.3274    1.6725   -2.7510 C.2       1 RES1    0.0000
     58 H30        3.2989    0.9275   -3.3391 H         1 RES1    0.0000
     59 C23        3.2868    1.4454   -1.3007 C.ar      1 RES1    0.0000
     60 C24        3.2805    2.5275   -0.4127 C.ar      1 RES1    0.0000
     61 H31        3.2830    3.4208   -0.7387 H         1 RES1    0.0000
     62 C25        3.2697    2.2734    0.9382 C.ar      1 RES1    0.0000
     63 C26        3.2475    0.9921    1.4553 C.ar      1 RES1    0.0000
     64 H32        3.2348    0.8470    2.3935 H         1 RES1    0.0000
     65 C27        3.2437   -0.0725    0.5757 C.ar      1 RES1    0.0000
     66 H33        3.2240   -0.9618    0.9111 H         1 RES1    0.0000
     67 C28        3.2678    0.1538   -0.7929 C.ar      1 RES1    0.0000
     68 H34        3.2716   -0.5849   -1.3888 H         1 RES1    0.0000
@<TRIPOS>BOND
     1    1   44 2
     2    2   44 1
     3    3    6 2
     4    4    6 2
     5    5   30 1
     6    6   62 1
     7    7    8 1
     8    9    7 1
     9   10    7 1
    10   11   10 1
    11   12   10 1
    12   13   10 1
    13   14   13 1
    14   15   13 1
    15   16   13 1
    16   17   16 1
    17   18   17 1
    18   19   17 1
    19   20   19 1
    20   21   19 1
    21   22   19 1
    22   23   22 1
    23   24   22 1
    24   25   22 1
    25   26   25 ar
    26   27    7 1
    27   28   26 ar
    28   29   28 1
    29   30   28 ar
    30   31   30 ar
    31   32   25 ar
    32   33   32 1
    33   34   31 1
    34   35   34 1
    35   36   34 1
    36   37   36 1
    37   38   36 1
    38   39   36 1
    39   40   34 1
    40   41   40 1
    41   42   40 1
    42   43   40 1
    43   44   16 1
    44   45   16 1
    45   46   45 1
    46   47   45 1
    47   48   45 1
    48   49   27 1
    49   50   49 1
    50   51   49 1
    51   52   49 1
    52   53    2 1
    53   54   53 1
    54   55   53 1
    55   56   53 1
    56   57    5 2
    57   58   57 1
    58   59   57 1
    59   60   59 ar
    60   61   60 1
    61   62   60 ar
    62   63   62 ar
    63   64   63 1
    64   65   63 ar
    65   66   65 1
    66   67   59 ar
    67   68   67 1
    68   17   27 1
    69   26   27 1
    70   31   32 ar
    71   65   67 ar
@<TRIPOS>SUBSTRUCTURE
     1 RES1 1

@<TRIPOS>CRYSIN
   6.3403    7.9683   49.2490  90.0000  90.0000  90.0000  19 1

