# MOL2 file generated by ConQuest
# Please check atom types

@<TRIPOS>MOLECULE
XERZUS
    37    37     1
SMALL
NO_CHARGES
****
Generated from CSD

@<TRIPOS>ATOM
      1 O1         3.3698    2.8501    2.5679 O.3       1 RES1    0.0000
      2 O2         6.4546    1.7723    3.9692 O.3       1 RES1    0.0000
      3 H1         6.4335    1.2142    3.3679 H         1 RES1    0.0000
      4 O3         4.4759    0.9044    2.3884 O.2       1 RES1    0.0000
      5 N1         6.4168    4.1827    2.3720 N.pl3     1 RES1    0.0000
      6 O4         6.1846    3.4302    1.4530 O.2       1 RES1    0.0000
      7 O5         7.2102    5.1039    2.3163 O.2       1 RES1    0.0000
      8 C1         4.3337    1.9956    2.8535 C.2       1 RES1    0.0000
      9 C2         5.2888    2.5583    3.9213 C.3       1 RES1    0.0000
     10 C3         5.6785    4.0063    3.6564 C.3       1 RES1    0.0000
     11 H2         4.8765    4.5510    3.6370 H         1 RES1    0.0000
     12 H3         6.2338    4.3225    4.3859 H         1 RES1    0.0000
     13 C4         4.5756    2.5519    5.2590 C.2       1 RES1    0.0000
     14 H4         3.8342    3.1036    5.3609 H         1 RES1    0.0000
     15 C5         2.4460    2.4893    1.4736 C.3       1 RES1    0.0000
     16 H5         2.9062    1.9161    0.8258 H         1 RES1    0.0000
     17 C6         4.3297    1.8065    7.6249 C.ar      1 RES1    0.0000
     18 C7         4.9436    1.8123    6.2848 C.2       1 RES1    0.0000
     19 H6         5.6616    1.2368    6.1498 H         1 RES1    0.0000
     20 C8         3.2118    1.7038   10.1751 C.ar      1 RES1    0.0000
     21 H7         2.8355    1.6684   11.0248 H         1 RES1    0.0000
     22 C9         3.5048    2.8217    8.0797 C.ar      1 RES1    0.0000
     23 H8         3.3188    3.5440    7.5247 H         1 RES1    0.0000
     24 C10        4.5784    0.7379    8.4783 C.ar      1 RES1    0.0000
     25 H9         5.1268    0.0423    8.1936 H         1 RES1    0.0000
     26 C11        2.9520    2.7765    9.3467 C.ar      1 RES1    0.0000
     27 H10        2.4063    3.4697    9.6407 H         1 RES1    0.0000
     28 C12        4.0233    0.6944    9.7410 C.ar      1 RES1    0.0000
     29 H11        4.2025   -0.0267   10.3005 H         1 RES1    0.0000
     30 C13        1.2748    1.7682    2.0418 C.3       1 RES1    0.0000
     31 H12        1.5775    0.9937    2.5205 H         1 RES1    0.0000
     32 H13        0.6903    1.4967    1.3302 H         1 RES1    0.0000
     33 H14        0.8010    2.3501    2.6405 H         1 RES1    0.0000
     34 C14        2.0812    3.8033    0.8260 C.3       1 RES1    0.0000
     35 H15        1.6132    4.3526    1.4579 H         1 RES1    0.0000
     36 H16        1.5185    3.6403    0.0661 H         1 RES1    0.0000
     37 H17        2.8808    4.2529    0.5413 H         1 RES1    0.0000
@<TRIPOS>BOND
     1    1    8 1
     2    2    3 1
     3    4    8 2
     4    5    6 2
     5    7    5 2
     6    8    9 1
     7    9    2 1
     8   10    5 1
     9   11   10 1
    10   12   10 1
    11   13    9 1
    12   14   13 1
    13   15    1 1
    14   16   15 1
    15   17   18 1
    16   18   13 2
    17   19   18 1
    18   20   21 1
    19   22   17 ar
    20   23   22 1
    21   24   17 ar
    22   25   24 1
    23   26   20 ar
    24   27   26 1
    25   28   20 ar
    26   29   28 1
    27   30   15 1
    28   31   30 1
    29   32   30 1
    30   33   30 1
    31   34   15 1
    32   35   34 1
    33   36   34 1
    34   37   34 1
    35    9   10 1
    36   22   26 ar
    37   24   28 ar
@<TRIPOS>SUBSTRUCTURE
     1 RES1 1

@<TRIPOS>CRYSIN
   8.2913    5.8012   15.8364  90.0000 103.8130  90.0000   4 1

