# MOL2 file generated by ConQuest
# Please check atom types

@<TRIPOS>MOLECULE
XESMEP
    53    57     1
SMALL
NO_CHARGES
****
Generated from CSD

@<TRIPOS>ATOM
      1 O1         3.4648    3.9787   15.0574 O.2       1 RES1    0.0000
      2 O2         0.9595    1.7447   14.5968 O.2       1 RES1    0.0000
      3 O3        -0.6960    2.9878   10.3157 O.2       1 RES1    0.0000
      4 O4         1.2427    3.5337    9.5243 O.2       1 RES1    0.0000
      5 N1         1.9545    4.7698   13.5709 N.am      1 RES1    0.0000
      6 N2         2.8333    0.4391   14.4238 N.am      1 RES1    0.0000
      7 N3         0.4838    3.2825   10.4499 N.pl3     1 RES1    0.0000
      8 C1         2.8374    3.8375   14.0188 C.2       1 RES1    0.0000
      9 C2         2.9136    2.4872   13.2955 C.3       1 RES1    0.0000
     10 C3         2.3284    2.5016   11.8592 C.3       1 RES1    0.0000
     11 H1         2.9907    2.9696   11.2730 H         1 RES1    0.0000
     12 C4         1.0507    3.3310   11.8508 C.3       1 RES1    0.0000
     13 H2         0.3922    2.9466   12.4973 H         1 RES1    0.0000
     14 C5         1.3583    4.7934   12.2236 C.3       1 RES1    0.0000
     15 H3         2.0340    5.1531   11.5795 H         1 RES1    0.0000
     16 C6         0.1117    5.6676   12.1629 C.ar      1 RES1    0.0000
     17 C7        -0.3654    6.0682   10.9114 C.ar      1 RES1    0.0000
     18 H4         0.1245    5.8460   10.1282 H         1 RES1    0.0000
     19 C8        -1.5466    6.7866   10.7995 C.ar      1 RES1    0.0000
     20 H5        -1.8731    7.0404    9.9447 H         1 RES1    0.0000
     21 C9        -2.2516    7.1346   11.9501 C.ar      1 RES1    0.0000
     22 H6        -3.0748    7.6046   11.8816 H         1 RES1    0.0000
     23 C10       -1.7460    6.7933   13.1953 C.ar      1 RES1    0.0000
     24 H7        -2.2133    7.0613   13.9775 H         1 RES1    0.0000
     25 C11       -0.5673    6.0648   13.3199 C.ar      1 RES1    0.0000
     26 C12        0.0671    5.8125   14.6604 C.3       1 RES1    0.0000
     27 H8        -0.2103    4.9281   15.0081 H         1 RES1    0.0000
     28 H9        -0.2173    6.5065   15.3073 H         1 RES1    0.0000
     29 C13        1.5693    5.8544   14.4803 C.3       1 RES1    0.0000
     30 H10        1.8416    6.7274   14.1018 H         1 RES1    0.0000
     31 H11        2.0189    5.7393   15.3550 H         1 RES1    0.0000
     32 C14        2.0998    1.5311   14.1975 C.2       1 RES1    0.0000
     33 C15        4.1176    0.4123   13.7424 C.3       1 RES1    0.0000
     34 H12        4.0904   -0.1821   12.9512 H         1 RES1    0.0000
     35 H13        4.8381    0.1099   14.3504 H         1 RES1    0.0000
     36 C16        4.3192    1.8765   13.3285 C.3       1 RES1    0.0000
     37 H14        4.8904    2.3499   13.9847 H         1 RES1    0.0000
     38 H15        4.7450    1.9323   12.4366 H         1 RES1    0.0000
     39 C17        2.3270   -0.7149   15.1353 C.3       1 RES1    0.0000
     40 H16        1.5391   -0.4564   15.6571 H         1 RES1    0.0000
     41 H17        3.0201   -1.0572   15.7380 H         1 RES1    0.0000
     42 H18        2.0790   -1.4121   14.4921 H         1 RES1    0.0000
     43 C18        2.1163    1.1048   11.2781 C.ar      1 RES1    0.0000
     44 C19        1.0303    0.3108   11.6499 C.ar      1 RES1    0.0000
     45 H19        0.4108    0.6301   12.2950 H         1 RES1    0.0000
     46 C20        0.8500   -0.9442   11.0822 C.ar      1 RES1    0.0000
     47 H20        0.1090   -1.4780   11.3439 H         1 RES1    0.0000
     48 C21        1.7432   -1.4248   10.1382 C.ar      1 RES1    0.0000
     49 H21        1.6099   -2.2777    9.7423 H         1 RES1    0.0000
     50 C22        2.8350   -0.6479    9.7754 C.ar      1 RES1    0.0000
     51 H22        3.4623   -0.9797    9.1439 H         1 RES1    0.0000
     52 C23        3.0135    0.6165   10.3335 C.ar      1 RES1    0.0000
     53 H23        3.7529    1.1493   10.0675 H         1 RES1    0.0000
@<TRIPOS>BOND
     1    1    8 2
     2    2   32 2
     3    3    7 2
     4    4    7 2
     5    5    8 1
     6    6   32 1
     7    7   12 1
     8    8    9 1
     9    9   10 1
    10   10   11 1
    11   12   10 1
    12   13   12 1
    13   14    5 1
    14   15   14 1
    15   16   14 1
    16   17   16 ar
    17   18   17 1
    18   19   17 ar
    19   20   19 1
    20   21   19 ar
    21   22   21 1
    22   23   21 ar
    23   24   23 1
    24   25   16 ar
    25   26   25 1
    26   27   26 1
    27   28   26 1
    28   29    5 1
    29   30   29 1
    30   31   29 1
    31   32    9 1
    32   33    6 1
    33   34   33 1
    34   35   33 1
    35   36    9 1
    36   37   36 1
    37   38   36 1
    38   39    6 1
    39   40   39 1
    40   41   39 1
    41   42   39 1
    42   43   10 1
    43   44   43 ar
    44   45   44 1
    45   46   44 ar
    46   47   46 1
    47   48   46 ar
    48   49   48 1
    49   50   48 ar
    50   51   50 1
    51   52   43 ar
    52   53   52 1
    53   12   14 1
    54   23   25 ar
    55   26   29 1
    56   33   36 1
    57   50   52 ar
@<TRIPOS>SUBSTRUCTURE
     1 RES1 1

