# MOL2 file generated by ConQuest
# Please check atom types

@<TRIPOS>MOLECULE
XESMAL
    49    51     1
SMALL
NO_CHARGES
****
Generated from CSD

@<TRIPOS>ATOM
      1 O1         4.9911    0.2440    7.7761 O.2       1 RES1    0.0000
      2 O2         1.8951   -0.4792    6.0882 O.2       1 RES1    0.0000
      3 O3        -0.8601    2.7893    7.4906 O.2       1 RES1    0.0000
      4 O4         0.6128    4.2577    8.0997 O.2       1 RES1    0.0000
      5 O5         1.1570   -0.1423   10.0370 O.2       1 RES1    0.0000
      6 O6         0.0485    1.7891   10.2997 O.3       1 RES1    0.0000
      7 H1        -0.5372    1.3030   10.6546 H         1 RES1    0.0000
      8 N1         3.2995    1.2347    8.8997 N.am      1 RES1    0.0000
      9 N2         3.2754    0.2527    4.4066 N.am      1 RES1    0.0000
     10 N3         0.2849    3.1361    7.7561 N.pl3     1 RES1    0.0000
     11 C1         3.9579    0.8996    7.7590 C.2       1 RES1    0.0000
     12 C2         3.4240    1.4227    6.4199 C.3       1 RES1    0.0000
     13 C3         2.4280    2.5984    6.6443 C.3       1 RES1    0.0000
     14 H2         2.9311    3.3218    7.1172 H         1 RES1    0.0000
     15 C4         1.3670    2.0934    7.6065 C.3       1 RES1    0.0000
     16 H3         0.9751    1.2388    7.2672 H         1 RES1    0.0000
     17 C5         1.9935    1.8740    8.9912 C.3       1 RES1    0.0000
     18 H4         2.1088    2.7645    9.4298 H         1 RES1    0.0000
     19 C6         3.9897    1.0865   10.2026 C.3       1 RES1    0.0000
     20 H5         4.8152    0.5529   10.0851 H         1 RES1    0.0000
     21 H6         3.4021    0.6097   10.8404 H         1 RES1    0.0000
     22 C7         4.3338    2.4382   10.7470 C.2       1 RES1    0.0000
     23 H7         5.0832    2.8900   10.3796 H         1 RES1    0.0000
     24 C8         3.6576    3.0364   11.7055 C.2       1 RES1    0.0000
     25 H8         2.9037    2.6090   12.0924 H         1 RES1    0.0000
     26 H9         3.9256    3.8956   12.0098 H         1 RES1    0.0000
     27 C9         2.7736    0.2770    5.6267 C.2       1 RES1    0.0000
     28 C10        4.5909    1.8407    5.4997 C.3       1 RES1    0.0000
     29 H10        4.7080    2.8242    5.5066 H         1 RES1    0.0000
     30 H11        5.4368    1.4166    5.7903 H         1 RES1    0.0000
     31 C11        4.1903    1.3529    4.1101 C.3       1 RES1    0.0000
     32 H12        3.7374    2.0681    3.5961 H         1 RES1    0.0000
     33 H13        4.9783    1.0370    3.6004 H         1 RES1    0.0000
     34 C12        2.8250   -0.6496    3.3527 C.3       1 RES1    0.0000
     35 H14        2.5045   -1.4853    3.7526 H         1 RES1    0.0000
     36 H15        3.5709   -0.8428    2.7473 H         1 RES1    0.0000
     37 H16        2.0974   -0.2271    2.8506 H         1 RES1    0.0000
     38 C13        1.9026    3.1935    5.3556 C.ar      1 RES1    0.0000
     39 C14        0.9163    2.5626    4.6013 C.ar      1 RES1    0.0000
     40 H17        0.5212    1.7588    4.9176 H         1 RES1    0.0000
     41 C15        0.5073    3.1049    3.3886 C.ar      1 RES1    0.0000
     42 H18       -0.1677    2.6703    2.8799 H         1 RES1    0.0000
     43 C16        1.0798    4.2776    2.9180 C.ar      1 RES1    0.0000
     44 H19        0.8075    4.6383    2.0822 H         1 RES1    0.0000
     45 C17        2.0510    4.9201    3.6700 C.ar      1 RES1    0.0000
     46 H20        2.4407    5.7262    3.3527 H         1 RES1    0.0000
     47 C18        2.4544    4.3873    4.8875 C.ar      1 RES1    0.0000
     48 H21        3.1101    4.8385    5.4055 H         1 RES1    0.0000
     49 C19        1.0350    1.0327    9.8463 C.2       1 RES1    0.0000
@<TRIPOS>BOND
     1    1   11 2
     2    2   27 2
     3    3   10 2
     4    4   10 2
     5    5   49 2
     6    6    7 1
     7    8   11 1
     8    9   27 1
     9   10   15 1
    10   11   12 1
    11   12   13 1
    12   13   14 1
    13   15   13 1
    14   16   15 1
    15   17    8 1
    16   18   17 1
    17   19    8 1
    18   20   19 1
    19   21   19 1
    20   22   19 1
    21   23   22 1
    22   24   22 2
    23   25   24 1
    24   26   24 1
    25   27   12 1
    26   28   12 1
    27   29   28 1
    28   30   28 1
    29   31    9 1
    30   32   31 1
    31   33   31 1
    32   34    9 1
    33   35   34 1
    34   36   34 1
    35   37   34 1
    36   38   13 1
    37   39   38 ar
    38   40   39 1
    39   41   39 ar
    40   42   41 1
    41   43   41 ar
    42   44   43 1
    43   45   43 ar
    44   46   45 1
    45   47   38 ar
    46   48   47 1
    47   49    6 1
    48   15   17 1
    49   17   49 1
    50   28   31 1
    51   45   47 ar
@<TRIPOS>SUBSTRUCTURE
     1 RES1 1

@<TRIPOS>CRYSIN
  11.4050   14.9430   10.8676  90.0000  90.0000  90.0000  33 1

