# MOL2 file generated by ConQuest
# Please check atom types

@<TRIPOS>MOLECULE
XESMUE
    66    70     1
SMALL
NO_CHARGES
****
Generated from CSD

@<TRIPOS>ATOM
      1 O1        11.4589    2.5994    3.8382 O.3       1 RES1    0.0000
      2 O2         8.5070    3.4845    3.8548 O.3       1 RES1    0.0000
      3 O3         9.2405    5.5616    3.9036 O.3       1 RES1    0.0000
      4 O4         6.6038    3.1449   -2.3161 O.3       1 RES1    0.0000
      5 N1         9.9470    4.3034    5.6374 N.3       1 RES1    0.0000
      6 H1         9.8444    3.4278    6.1330 H         1 RES1    0.0000
      7 N2         8.8645    2.0797    3.7339 N.3       1 RES1    0.0000
      8 C1        10.8493    2.7038    2.5271 C.3       1 RES1    0.0000
      9 C2        10.8987    3.8700    3.4383 C.3       1 RES1    0.0000
     10 C3         9.6503    4.2552    4.2411 C.3       1 RES1    0.0000
     11 C4         9.5234    1.9302    2.4221 C.3       1 RES1    0.0000
     12 H2         9.8058    0.9911    2.4209 H         1 RES1    0.0000
     13 C5        11.9080    4.9739    3.2598 C.3       1 RES1    0.0000
     14 H3        12.6657    4.7143    2.8671 H         1 RES1    0.0000
     15 H4        11.5479    5.6051    2.6298 H         1 RES1    0.0000
     16 H5        11.9978    5.4120    4.1642 H         1 RES1    0.0000
     17 C6         9.2042    6.3635    5.0833 C.3       1 RES1    0.0000
     18 H6        10.0967    6.9895    5.1540 H         1 RES1    0.0000
     19 H7         8.3927    6.9121    5.0519 H         1 RES1    0.0000
     20 C7         9.1823    5.3979    6.2535 C.3       1 RES1    0.0000
     21 C8         7.7610    5.0198    6.6516 C.3       1 RES1    0.0000
     22 H8         7.2224    4.6875    5.7746 H         1 RES1    0.0000
     23 H9         7.7775    4.2361    7.3352 H         1 RES1    0.0000
     24 H10        7.2770    5.7634    7.0812 H         1 RES1    0.0000
     25 C9         9.9328    5.9435    7.4598 C.3       1 RES1    0.0000
     26 H11       10.8871    6.1129    7.1358 H         1 RES1    0.0000
     27 H12        9.9620    5.1427    8.2549 H         1 RES1    0.0000
     28 H13        9.4421    6.7302    7.8324 H         1 RES1    0.0000
     29 C10        7.6208    1.3083    4.0318 C.3       1 RES1    0.0000
     30 C11        7.4352    1.3756    5.5351 C.3       1 RES1    0.0000
     31 H14        6.6121    0.8200    5.8470 H         1 RES1    0.0000
     32 H15        8.3202    0.9560    5.9894 H         1 RES1    0.0000
     33 H16        7.3733    2.1473    5.9158 H         1 RES1    0.0000
     34 C12        7.8451   -0.1345    3.6171 C.3       1 RES1    0.0000
     35 H17        8.6571   -0.3918    4.1986 H         1 RES1    0.0000
     36 H18        7.1496   -0.7012    3.9601 H         1 RES1    0.0000
     37 H19        8.0413   -0.3280    2.6796 H         1 RES1    0.0000
     38 C13        6.3675    1.8553    3.3525 C.3       1 RES1    0.0000
     39 H20        5.5598    1.2814    3.5756 H         1 RES1    0.0000
     40 H21        6.1325    2.9499    3.8094 H         1 RES1    0.0000
     41 H22        6.4560    1.9426    2.4162 H         1 RES1    0.0000
     42 C14        8.7404    2.3048    1.1737 C.ar      1 RES1    0.0000
     43 C15        8.3847    1.3290    0.2480 C.ar      1 RES1    0.0000
     44 H23        8.6239    0.3968    0.4082 H         1 RES1    0.0000
     45 C16        7.6724    1.6394   -0.8925 C.ar      1 RES1    0.0000
     46 H24        7.4336    0.8996   -1.5487 H         1 RES1    0.0000
     47 C17        7.3074    2.9527   -1.1535 C.ar      1 RES1    0.0000
     48 C18        7.6684    3.9485   -0.2595 C.ar      1 RES1    0.0000
     49 H25        7.4185    4.8755   -0.3952 H         1 RES1    0.0000
     50 C19        8.3729    3.6200    0.8859 C.ar      1 RES1    0.0000
     51 H26        8.5703    4.3108    1.5048 H         1 RES1    0.0000
     52 C20        6.1476    4.4590   -2.6167 C.3       1 RES1    0.0000
     53 H27        5.5844    4.3630   -3.4107 H         1 RES1    0.0000
     54 H28        5.5746    4.7256   -1.8584 H         1 RES1    0.0000
     55 H29        6.8878    5.2484   -2.7900 H         1 RES1    0.0000
     56 C21       11.8345    2.5469    1.3995 C.ar      1 RES1    0.0000
     57 C22       11.5947    3.0154    0.1068 C.ar      1 RES1    0.0000
     58 H30       10.7102    3.5407   -0.0629 H         1 RES1    0.0000
     59 C23       12.5294    2.8331   -0.8951 C.ar      1 RES1    0.0000
     60 H31       12.3662    3.1147   -1.8287 H         1 RES1    0.0000
     61 C24       13.7239    2.2026   -0.6370 C.ar      1 RES1    0.0000
     62 H32       14.3707    2.0502   -1.3956 H         1 RES1    0.0000
     63 C25       13.9839    1.7533    0.6356 C.ar      1 RES1    0.0000
     64 H33       14.8796    1.2771    0.8651 H         1 RES1    0.0000
     65 C26       13.0489    1.9276    1.6453 C.ar      1 RES1    0.0000
     66 H34       13.2754    1.6869    2.5657 H         1 RES1    0.0000
@<TRIPOS>BOND
     1    1    8 1
     2    2    7 1
     3    3   10 1
     4    4   47 1
     5    5    6 1
     6    7   11 1
     7    8    9 1
     8    9    1 1
     9   10    2 1
    10   11    8 1
    11   12   11 1
    12   13    9 1
    13   14   13 1
    14   15   13 1
    15   16   13 1
    16   17    3 1
    17   18   17 1
    18   19   17 1
    19   20    5 1
    20   21   20 1
    21   22   21 1
    22   23   21 1
    23   24   21 1
    24   25   20 1
    25   26   25 1
    26   27   25 1
    27   28   25 1
    28   29    7 1
    29   30   29 1
    30   31   30 1
    31   32   30 1
    32   33   30 1
    33   34   29 1
    34   35   34 1
    35   36   34 1
    36   37   34 1
    37   38   29 1
    38   39   38 1
    39   40   38 1
    40   41   38 1
    41   42   11 1
    42   43   42 ar
    43   44   43 1
    44   45   43 ar
    45   46   45 1
    46   47   45 ar
    47   48   47 ar
    48   49   48 1
    49   50   42 ar
    50   51   50 1
    51   52    4 1
    52   53   52 1
    53   54   52 1
    54   55   52 1
    55   56    8 1
    56   57   56 ar
    57   58   57 1
    58   59   57 ar
    59   60   59 1
    60   61   59 ar
    61   62   61 1
    62   63   61 ar
    63   64   63 1
    64   65   56 ar
    65   66   65 1
    66    5   10 1
    67    9   10 1
    68   17   20 1
    69   48   50 ar
    70   63   65 ar
@<TRIPOS>SUBSTRUCTURE
     1 RES1 1

@<TRIPOS>CRYSIN
  10.1190   10.1540   12.7710  68.3850  84.8750  80.4740   2 1

