# MOL2 file generated by ConQuest
# Please check atom types

@<TRIPOS>MOLECULE
XESNEP
    68    71     1
SMALL
NO_CHARGES
****
Generated from CSD

@<TRIPOS>ATOM
      1 O1         2.8045    1.3874   14.4480 O.3       1 RES1    0.0000
      2 H1         3.5093    2.0011   14.6920 H         1 RES1    0.0000
      3 O2         1.4300    0.9264   18.6007 O.3       1 RES1    0.0000
      4 O3        -0.8976    3.6319   17.8805 O.3       1 RES1    0.0000
      5 N1         1.6375    2.0239   15.0217 N.3       1 RES1    0.0000
      6 N2        -1.3747    1.5232   18.5170 N.2       1 RES1    0.0000
      7 C1         1.8122    1.6592   17.4106 C.3       1 RES1    0.0000
      8 C2         0.9754    2.2813   18.4829 C.3       1 RES1    0.0000
      9 C3         1.5418    3.2857   19.4580 C.3       1 RES1    0.0000
     10 H2         1.0697    3.2298   20.2996 H         1 RES1    0.0000
     11 H3         2.3999    3.1295   19.5984 H         1 RES1    0.0000
     12 H4         1.4312    4.2617   18.9960 H         1 RES1    0.0000
     13 C4        -0.4984    2.4038   18.3045 C.2       1 RES1    0.0000
     14 C5        -2.3277    3.5461   17.7356 C.3       1 RES1    0.0000
     15 H5        -2.7321    4.2636   18.3045 H         1 RES1    0.0000
     16 H6        -2.5616    3.7158   16.7181 H         1 RES1    0.0000
     17 C6        -2.6964    2.1400   18.2152 C.3       1 RES1    0.0000
     18 C7        -3.3657    1.3241   17.1255 C.3       1 RES1    0.0000
     19 H7        -2.6836    1.1737   16.3036 H         1 RES1    0.0000
     20 H8        -4.2084    1.7639   16.8460 H         1 RES1    0.0000
     21 H9        -3.6067    0.4677   17.5162 H         1 RES1    0.0000
     22 C8        -3.5382    2.1496   19.4806 C.3       1 RES1    0.0000
     23 H10       -3.0668    2.6955   20.2241 H         1 RES1    0.0000
     24 H11       -4.4391    2.6724   19.2304 H         1 RES1    0.0000
     25 H12       -3.7543    1.1843   19.7611 H         1 RES1    0.0000
     26 C9         3.2553    2.0819   17.3806 C.ar      1 RES1    0.0000
     27 C10        3.6210    3.2823   16.7724 C.ar      1 RES1    0.0000
     28 H13        2.9753    3.8345   16.3830 H         1 RES1    0.0000
     29 C11        4.9388    3.6965   16.7600 C.ar      1 RES1    0.0000
     30 H14        5.2006    4.5423   16.3365 H         1 RES1    0.0000
     31 C12        5.9098    2.9308   17.3726 C.ar      1 RES1    0.0000
     32 H15        6.8110    3.2086   17.3980 H         1 RES1    0.0000
     33 C13        5.5657    1.7542   17.9917 C.ar      1 RES1    0.0000
     34 H16        6.2584    1.2026   18.4440 H         1 RES1    0.0000
     35 C14        4.2467    1.3249   18.0000 C.ar      1 RES1    0.0000
     36 H17        3.9836    0.4292   18.4440 H         1 RES1    0.0000
     37 C15        1.1497    1.1507   16.1105 C.3       1 RES1    0.0000
     38 H18        0.1635    1.3396   16.1816 H         1 RES1    0.0000
     39 C16        1.2429   -0.3841   15.8707 C.3       1 RES1    0.0000
     40 H19        1.2557   -0.5487   14.9070 H         1 RES1    0.0000
     41 C17       -0.0313   -1.0742   16.3691 C.3       1 RES1    0.0000
     42 H20       -0.8706   -0.5989   15.9394 H         1 RES1    0.0000
     43 H21       -0.0591   -0.9509   17.4522 H         1 RES1    0.0000
     44 C18       -0.0413   -2.5692   16.0686 C.3       1 RES1    0.0000
     45 H22       -0.8948   -3.1015   16.4179 H         1 RES1    0.0000
     46 H23        0.0036   -2.7707   15.1143 H         1 RES1    0.0000
     47 C19        1.2010   -3.2539   16.6073 C.3       1 RES1    0.0000
     48 H24        1.2312   -4.2569   16.3888 H         1 RES1    0.0000
     49 H25        1.3003   -3.3629   17.5956 H         1 RES1    0.0000
     50 C20        2.4624   -2.5827   16.0880 C.3       1 RES1    0.0000
     51 H26        3.3576   -3.0359   16.5012 H         1 RES1    0.0000
     52 H27        2.4717   -2.6579   14.9865 H         1 RES1    0.0000
     53 C21        2.4767   -1.0949   16.4258 C.3       1 RES1    0.0000
     54 H28        3.3504   -0.6635   16.1273 H         1 RES1    0.0000
     55 H29        2.5338   -1.0512   17.4348 H         1 RES1    0.0000
     56 C22        0.7259    2.3801   13.9072 C.3       1 RES1    0.0000
     57 C23        0.2862    1.1949   13.0557 C.3       1 RES1    0.0000
     58 H30       -0.3128    0.5430   13.6131 H         1 RES1    0.0000
     59 H31       -0.2870    1.4495   12.2747 H         1 RES1    0.0000
     60 H32        1.1839    0.5719   12.6485 H         1 RES1    0.0000
     61 C24        1.4941    3.3879   13.0367 C.3       1 RES1    0.0000
     62 H33        1.7583    4.2144   13.6577 H         1 RES1    0.0000
     63 H34        2.3853    2.9414   12.6892 H         1 RES1    0.0000
     64 H35        0.8749    3.6435   12.2785 H         1 RES1    0.0000
     65 C25       -0.4901    3.0938   14.4968 C.3       1 RES1    0.0000
     66 H36       -1.0114    3.3831   13.7448 H         1 RES1    0.0000
     67 H37       -1.1151    2.3879   14.9535 H         1 RES1    0.0000
     68 H38       -0.1464    3.7525   15.1433 H         1 RES1    0.0000
@<TRIPOS>BOND
     1    1    2 1
     2    3    7 1
     3    4   13 1
     4    5    1 1
     5    6   13 2
     6    7    8 1
     7    8    3 1
     8    9    8 1
     9   10    9 1
    10   11    9 1
    11   12    9 1
    12   13    8 1
    13   14    4 1
    14   15   14 1
    15   16   14 1
    16   17    6 1
    17   18   17 1
    18   19   18 1
    19   20   18 1
    20   21   18 1
    21   22   17 1
    22   23   22 1
    23   24   22 1
    24   25   22 1
    25   26    7 1
    26   27   26 ar
    27   28   27 1
    28   29   27 ar
    29   30   29 1
    30   31   29 ar
    31   32   31 1
    32   33   31 ar
    33   34   33 1
    34   35   26 ar
    35   36   35 1
    36   37    5 1
    37   38   37 1
    38   39   37 1
    39   40   39 1
    40   41   39 1
    41   42   41 1
    42   43   41 1
    43   44   41 1
    44   45   44 1
    45   46   44 1
    46   47   44 1
    47   48   47 1
    48   49   47 1
    49   50   47 1
    50   51   50 1
    51   52   50 1
    52   53   39 1
    53   54   53 1
    54   55   53 1
    55   56    5 1
    56   57   56 1
    57   58   57 1
    58   59   57 1
    59   60   57 1
    60   61   56 1
    61   62   61 1
    62   63   61 1
    63   64   61 1
    64   65   56 1
    65   66   65 1
    66   67   65 1
    67   68   65 1
    68    7   37 1
    69   14   17 1
    70   33   35 ar
    71   50   53 1
@<TRIPOS>SUBSTRUCTURE
     1 RES1 1

@<TRIPOS>CRYSIN
  12.8740    9.6440   19.5950  90.0000  98.6940  90.0000  14 1

