# MOL2 file generated by ConQuest
# Please check atom types

@<TRIPOS>MOLECULE
XETJIR
    26    27     1
SMALL
NO_CHARGES
****
Generated from CSD

@<TRIPOS>ATOM
      1 N1         5.8256    1.2324    2.7060 N.pl3     1 RES1    0.0000
      2 C1         4.9892    2.0037    3.6080 C.ar      1 RES1    0.0000
      3 O1         4.1377    3.3096    1.7958 O.3       1 RES1    0.0000
      4 N2         4.1427    1.9776    7.1847 N.pl3     1 RES1    0.0000
      5 C2         4.1744    2.3701    5.7929 C.ar      1 RES1    0.0000
      6 N3         2.5404    4.8112    3.5618 N.pl3     1 RES1    0.0000
      7 O2         4.8425    1.0642    7.5524 O.2       1 RES1    0.0000
      8 C3         3.3296    3.3857    5.3477 C.ar      1 RES1    0.0000
      9 H1         2.7520    3.8205    5.9315 H         1 RES1    0.0000
     10 C4         5.0103    1.6897    4.9289 C.ar      1 RES1    0.0000
     11 H2         5.5790    1.0255    5.2488 H         1 RES1    0.0000
     12 O3         3.3385    2.5682    7.9234 O.2       1 RES1    0.0000
     13 O4         1.4024    4.8648    4.0219 O.2       1 RES1    0.0000
     14 C5         3.3791    3.7184    4.0269 C.ar      1 RES1    0.0000
     15 C6         4.2199    3.0492    3.1051 C.ar      1 RES1    0.0000
     16 C7         5.4207    0.4623    1.6836 C.2       1 RES1    0.0000
     17 H3         4.5532    0.3240    1.3769 H         1 RES1    0.0000
     18 N4         7.1497    1.1663    2.8874 N.2       1 RES1    0.0000
     19 N5         7.6079    0.3776    1.9376 N.2       1 RES1    0.0000
     20 C8         6.5559   -0.0573    1.2087 C.2       1 RES1    0.0000
     21 H4         6.6137   -0.6343    0.4815 H         1 RES1    0.0000
     22 O5         2.9803    5.5962    2.7406 O.2       1 RES1    0.0000
     23 C9         5.3102    3.9202    1.2104 C.3       1 RES1    0.0000
     24 H5         5.1780    4.0261    0.2655 H         1 RES1    0.0000
     25 H6         6.0744    3.3607    1.3670 H         1 RES1    0.0000
     26 H7         5.4568    4.7800    1.6111 H         1 RES1    0.0000
@<TRIPOS>BOND
     1    1    2 1
     2    2   10 ar
     3    3   15 1
     4    4    5 1
     5    5    8 ar
     6    6   13 2
     7    7    4 2
     8    8    9 1
     9   10    5 ar
    10   11   10 1
    11   12    4 2
    12   14    6 1
    13   15    2 ar
    14   16    1 1
    15   17   16 1
    16   18    1 1
    17   19   18 2
    18   20   16 2
    19   21   20 1
    20   22    6 2
    21   23    3 1
    22   24   23 1
    23   25   23 1
    24   26   23 1
    25    8   14 ar
    26   14   15 ar
    27   19   20 1
@<TRIPOS>SUBSTRUCTURE
     1 RES1 1

@<TRIPOS>CRYSIN
   5.5540   12.4610   16.4900  90.0000  90.0000  90.0000  19 1

