# MOL2 file generated by ConQuest
# Please check atom types

@<TRIPOS>MOLECULE
XETKEO
    25    26     1
SMALL
NO_CHARGES
****
Generated from CSD

@<TRIPOS>ATOM
      1 O1         7.4146   10.1874    1.8284 O.2       1 RES1    0.0000
      2 O2         9.7390    7.4541   -3.1080 O.2       1 RES1    0.0000
      3 O3        10.8575    5.7888   -2.2916 O.2       1 RES1    0.0000
      4 N1        12.0468    8.2243    3.4474 N.2       1 RES1    0.0000
      5 N2         7.4118    9.5469    0.7805 N.pl3     1 RES1    0.0000
      6 N3        12.2960    8.8818    4.5576 N.2       1 RES1    0.0000
      7 N4        10.1416    6.7783   -2.1745 N.pl3     1 RES1    0.0000
      8 N5        11.0996    7.3117    3.7418 N.pl3     1 RES1    0.0000
      9 O4         6.6093    9.7125   -0.1293 O.2       1 RES1    0.0000
     10 C1         9.0333    7.9612    1.7184 C.ar      1 RES1    0.0000
     11 H1         8.7722    8.2380    2.5894 H         1 RES1    0.0000
     12 C2        10.6800    6.3434    2.7367 C.3       1 RES1    0.0000
     13 H2        10.0517    5.6993    3.1506 H         1 RES1    0.0000
     14 H3        11.4718    5.8370    2.4253 H         1 RES1    0.0000
     15 C3        10.3631    6.5943    0.2664 C.ar      1 RES1    0.0000
     16 H4        11.0216    5.9220    0.1357 H         1 RES1    0.0000
     17 C4         8.4444    8.5178    0.5959 C.ar      1 RES1    0.0000
     18 C5         9.7456    7.1868   -0.8177 C.ar      1 RES1    0.0000
     19 C6         8.7818    8.1659   -0.6914 C.ar      1 RES1    0.0000
     20 H5         8.3754    8.5725   -1.4473 H         1 RES1    0.0000
     21 C7        10.0104    6.9933    1.5494 C.ar      1 RES1    0.0000
     22 C8        10.7463    7.3846    5.0342 C.2       1 RES1    0.0000
     23 H6        10.1033    6.8563    5.4917 H         1 RES1    0.0000
     24 C9        11.5176    8.3863    5.5421 C.2       1 RES1    0.0000
     25 H7        11.5091    8.6871    6.4434 H         1 RES1    0.0000
@<TRIPOS>BOND
     1    1    5 2
     2    2    7 2
     3    3    7 2
     4    4    6 2
     5    5    9 2
     6    6   24 1
     7    7   18 1
     8    8    4 1
     9   10   11 1
    10   12    8 1
    11   13   12 1
    12   14   12 1
    13   15   16 1
    14   17    5 1
    15   18   15 ar
    16   19   17 ar
    17   20   19 1
    18   21   10 ar
    19   22    8 1
    20   23   22 1
    21   24   22 2
    22   25   24 1
    23   10   17 ar
    24   12   21 1
    25   15   21 ar
    26   18   19 ar
@<TRIPOS>SUBSTRUCTURE
     1 RES1 1

@<TRIPOS>CRYSIN
  10.0567    9.2416   10.9434  90.0000  91.5180  90.0000 231 1

