# MOL2 file generated by ConQuest
# Please check atom types

@<TRIPOS>MOLECULE
XETZAZ
    22    23     1
SMALL
NO_CHARGES
****
Generated from CSD

@<TRIPOS>ATOM
      1 C1         3.4489    1.8942    2.7113 C.2       1 RES1    0.0000
      2 C2         2.4057    3.0969    1.3255 C.2       1 RES1    0.0000
      3 C3         1.6650    3.9918    0.5108 C.2       1 RES1    0.0000
      4 C4         1.4130    3.7051   -0.8070 C.2       1 RES1    0.0000
      5 H1         0.9318    4.3040   -1.3324 H         1 RES1    0.0000
      6 C5         1.8868    2.4995   -1.3609 C.2       1 RES1    0.0000
      7 H2         1.7145    2.3043   -2.2537 H         1 RES1    0.0000
      8 C6         2.5943    1.6192   -0.6022 C.2       1 RES1    0.0000
      9 H3         2.9089    0.8213   -0.9634 H         1 RES1    0.0000
     10 C7         4.0409    1.4493    4.0111 C.3       1 RES1    0.0000
     11 H4         3.3580    1.5011    4.6977 H         1 RES1    0.0000
     12 H5         4.7511    2.0631    4.2563 H         1 RES1    0.0000
     13 C8         4.6029    0.0368    3.9854 C.3       1 RES1    0.0000
     14 H6         4.9639   -0.1795    4.8484 H         1 RES1    0.0000
     15 H7         5.2972   -0.0199    3.3245 H         1 RES1    0.0000
     16 H8         3.9025   -0.5820    3.7671 H         1 RES1    0.0000
     17 N1         2.7946    3.0833    2.5998 N.2       1 RES1    0.0000
     18 N2         3.5099    1.1603    1.5995 N.2       1 RES1    0.0000
     19 N3         2.8290    1.9390    0.7027 N.pl3     1 RES1    0.0000
     20 N4         1.1857    5.2487    1.0757 N.pl3     1 RES1    0.0000
     21 O1         0.3326    5.8749    0.4467 O.2       1 RES1    0.0000
     22 O2         1.6554    5.6180    2.1443 O.2       1 RES1    0.0000
@<TRIPOS>BOND
     1    1   10 1
     2    2    3 1
     3    3    4 2
     4    4    5 1
     5    6    4 1
     6    7    6 1
     7    8    6 2
     8    9    8 1
     9   10   11 1
    10   12   10 1
    11   13   10 1
    12   14   13 1
    13   15   13 1
    14   16   13 1
    15   17    1 1
    16   18    1 2
    17   19    2 1
    18   20    3 1
    19   21   20 2
    20   22   20 2
    21    2   17 2
    22    8   19 1
    23   18   19 1
@<TRIPOS>SUBSTRUCTURE
     1 RES1 1

@<TRIPOS>CRYSIN
   3.9377   18.1296   11.6835  90.0000  91.8830  90.0000 231 1

