# MOL2 file generated by ConQuest
# Please check atom types

@<TRIPOS>MOLECULE
XEVDAG
    31    32     1
SMALL
NO_CHARGES
****
Generated from CSD

@<TRIPOS>ATOM
      1 O1         3.3562   15.5576    3.1804 O.3       1 RES1    0.0000
      2 O2         2.7967   13.0887    2.2758 O.3       1 RES1    0.0000
      3 H1         2.4886   13.8973    1.9927 H         1 RES1    0.0000
      4 O3         6.0476   14.5452    7.5632 O.2       1 RES1    0.0000
      5 O4         4.3035   19.0568    4.9520 O.2       1 RES1    0.0000
      6 O5         3.9365   21.0444    4.2114 O.2       1 RES1    0.0000
      7 N1         3.8121   19.8265    4.1302 N.pl3     1 RES1    0.0000
      8 C1         3.8138   14.5099    3.9362 C.ar      1 RES1    0.0000
      9 C2         3.4883   13.2368    3.4230 C.ar      1 RES1    0.0000
     10 C3         3.8929   12.0911    4.0870 C.ar      1 RES1    0.0000
     11 H2         3.6679   11.2351    3.7406 H         1 RES1    0.0000
     12 C4         4.6247   12.1941    5.2552 C.ar      1 RES1    0.0000
     13 H3         4.9105   11.4086    5.7067 H         1 RES1    0.0000
     14 C5         4.9422   13.4430    5.7693 C.ar      1 RES1    0.0000
     15 C6         4.5376   14.6098    5.1022 C.ar      1 RES1    0.0000
     16 H4         4.7620   15.4634    5.4534 H         1 RES1    0.0000
     17 C7         5.7239   13.5179    6.9931 C.2       1 RES1    0.0000
     18 H5         6.0052   12.6980    7.3809 H         1 RES1    0.0000
     19 C8         3.5934   16.8628    3.7169 C.3       1 RES1    0.0000
     20 H6         4.5675   17.0295    3.7834 H         1 RES1    0.0000
     21 H7         3.2032   16.9306    4.6240 H         1 RES1    0.0000
     22 C9         2.9588   17.8828    2.8059 C.ar      1 RES1    0.0000
     23 C10        3.0565   19.2697    3.0038 C.ar      1 RES1    0.0000
     24 C11        2.4621   20.1850    2.1429 C.ar      1 RES1    0.0000
     25 H8         2.5473   21.1172    2.3050 H         1 RES1    0.0000
     26 C12        1.7486   19.7338    1.0539 C.ar      1 RES1    0.0000
     27 H9         1.3322   20.3528    0.4645 H         1 RES1    0.0000
     28 C13        1.6430   18.3717    0.8252 C.ar      1 RES1    0.0000
     29 H10        1.1635   18.0552    0.0681 H         1 RES1    0.0000
     30 C14        2.2318   17.4674    1.6922 C.ar      1 RES1    0.0000
     31 H11        2.1375   16.5374    1.5233 H         1 RES1    0.0000
@<TRIPOS>BOND
     1    1    8 1
     2    2    3 1
     3    4   17 2
     4    5    7 2
     5    6    7 2
     6    7   23 1
     7    8    9 ar
     8    9    2 1
     9   10    9 ar
    10   11   10 1
    11   12   10 ar
    12   13   12 1
    13   14   12 ar
    14   15    8 ar
    15   16   15 1
    16   17   14 1
    17   18   17 1
    18   19    1 1
    19   20   19 1
    20   21   19 1
    21   22   19 1
    22   23   22 ar
    23   24   23 ar
    24   25   24 1
    25   26   24 ar
    26   27   26 1
    27   28   26 ar
    28   29   28 1
    29   30   22 ar
    30   31   30 1
    31   14   15 ar
    32   28   30 ar
@<TRIPOS>SUBSTRUCTURE
     1 RES1 1

@<TRIPOS>CRYSIN
   7.9898   21.9650    7.7447  90.0000 115.0420  90.0000  14 1

