# MOL2 file generated by ConQuest
# Please check atom types

@<TRIPOS>MOLECULE
XEVFOU
    40    43     1
SMALL
NO_CHARGES
****
Generated from CSD

@<TRIPOS>ATOM
      1 O1         1.8185    7.5099    3.0585 O.3       1 RES1    0.0000
      2 O2         0.5883    4.2611    3.4380 O.3       1 RES1    0.0000
      3 O3        -0.0439    5.7025    5.1269 O.3       1 RES1    0.0000
      4 O4         0.1887    3.5311    1.3782 O.2       1 RES1    0.0000
      5 N1         2.8563    6.7532    2.3632 N.3       1 RES1    0.0000
      6 C1         2.1668    6.1534    1.1893 C.3       1 RES1    0.0000
      7 C2         0.7396    5.8785    1.7428 C.3       1 RES1    0.0000
      8 C3         0.4761    4.4408    2.1067 C.2       1 RES1    0.0000
      9 C4         0.8720    5.5106    4.1268 C.3       1 RES1    0.0000
     10 C5         0.7266    6.6073    3.0790 C.3       1 RES1    0.0000
     11 C6         0.0864    4.7748    6.2160 C.3       1 RES1    0.0000
     12 C7         3.9256    7.6530    2.0936 C.ar      1 RES1    0.0000
     13 C8         4.7373    7.4751    0.9854 C.ar      1 RES1    0.0000
     14 C9         5.7938    8.3318    0.7596 C.ar      1 RES1    0.0000
     15 C10        6.0616    9.3656    1.6146 C.ar      1 RES1    0.0000
     16 C11        5.2616    9.5485    2.7205 C.ar      1 RES1    0.0000
     17 C12        4.1985    8.6987    2.9693 C.ar      1 RES1    0.0000
     18 C13        2.9007    4.9337    0.6894 C.ar      1 RES1    0.0000
     19 C14        2.9191    4.6468   -0.6653 C.ar      1 RES1    0.0000
     20 C15        3.5829    3.5351   -1.1432 C.ar      1 RES1    0.0000
     21 C16        4.2582    2.7053   -0.2740 C.ar      1 RES1    0.0000
     22 C17        4.2427    2.9792    1.0709 C.ar      1 RES1    0.0000
     23 C18        3.5667    4.0859    1.5576 C.ar      1 RES1    0.0000
     24 H1         2.1132    6.8182    0.4702 H         1 RES1    0.0000
     25 H2         0.0494    6.2254    1.1399 H         1 RES1    0.0000
     26 H3         1.7822    5.5026    4.4918 H         1 RES1    0.0000
     27 H4        -0.1181    7.0902    3.2006 H         1 RES1    0.0000
     28 H5        -0.5037    5.0317    6.9274 H         1 RES1    0.0000
     29 H6         0.9922    4.7798    6.5339 H         1 RES1    0.0000
     30 H7        -0.1419    3.8930    5.9135 H         1 RES1    0.0000
     31 H8         4.5693    6.7772    0.3935 H         1 RES1    0.0000
     32 H9         6.3344    8.2049    0.0132 H         1 RES1    0.0000
     33 H10        6.7756    9.9384    1.4512 H         1 RES1    0.0000
     34 H11        5.4388   10.2493    3.3048 H         1 RES1    0.0000
     35 H12        3.6659    8.8277    3.7213 H         1 RES1    0.0000
     36 H13        2.4803    5.2096   -1.2605 H         1 RES1    0.0000
     37 H14        3.5738    3.3451   -2.0541 H         1 RES1    0.0000
     38 H15        4.7203    1.9665   -0.5963 H         1 RES1    0.0000
     39 H16        4.6900    2.4154    1.6606 H         1 RES1    0.0000
     40 H17        3.5599    4.2599    2.4706 H         1 RES1    0.0000
@<TRIPOS>BOND
     1    1    5 1
     2    2    8 1
     3    3    9 1
     4    4    8 2
     5    5    6 1
     6    6    7 1
     7    7    8 1
     8    9    2 1
     9   10    1 1
    10   11    3 1
    11   12    5 1
    12   13   12 ar
    13   14   13 ar
    14   15   14 ar
    15   16   15 ar
    16   17   12 ar
    17   18    6 1
    18   19   18 ar
    19   20   19 ar
    20   21   20 ar
    21   22   21 ar
    22   23   18 ar
    23   24    6 1
    24   25    7 1
    25   26    9 1
    26   27   10 1
    27   28   11 1
    28   29   11 1
    29   30   11 1
    30   31   13 1
    31   32   14 1
    32   33   15 1
    33   34   16 1
    34   35   17 1
    35   36   19 1
    36   37   20 1
    37   38   21 1
    38   39   22 1
    39   40   23 1
    40    7   10 1
    41    9   10 1
    42   16   17 ar
    43   22   23 ar
@<TRIPOS>SUBSTRUCTURE
     1 RES1 1

@<TRIPOS>CRYSIN
  13.8601    9.9974   11.4120  90.0000 106.1610  90.0000  14 1

