# MOL2 file generated by ConQuest
# Please check atom types

@<TRIPOS>MOLECULE
XEVFEL
    57    60     1
SMALL
NO_CHARGES
****
Generated from CSD

@<TRIPOS>ATOM
      1 C1        -4.3258   17.3489    1.0561 C.3       1 RES1    0.0000
      2 H1        -4.0824   18.2567    0.7799 H         1 RES1    0.0000
      3 H2        -5.2909   17.3032    1.2177 H         1 RES1    0.0000
      4 H3        -4.0818   16.7161    0.3472 H         1 RES1    0.0000
      5 C2        -3.5974   16.9985    2.3059 C.2       1 RES1    0.0000
      6 C3        -1.5870   16.0689    3.1728 C.3       1 RES1    0.0000
      7 H4        -2.1294   16.0851    4.0003 H         1 RES1    0.0000
      8 H5        -0.8497   16.7218    3.2723 H         1 RES1    0.0000
      9 C4        -1.0202   14.6894    2.9630 C.3       1 RES1    0.0000
     10 H6        -1.7593   14.0791    2.6790 H         1 RES1    0.0000
     11 C5        -0.4288   14.1675    4.2688 C.2       1 RES1    0.0000
     12 C6         0.7325   13.3091    4.0840 C.2       1 RES1    0.0000
     13 C7         1.1954   12.9850    2.8023 C.2       1 RES1    0.0000
     14 C8         0.5884   13.5530    1.5569 C.3       1 RES1    0.0000
     15 H7         1.3066   13.7325    0.8861 H         1 RES1    0.0000
     16 C9        -0.8402   12.9197   -0.2746 C.3       1 RES1    0.0000
     17 H8        -1.0052   13.9037   -0.3394 H         1 RES1    0.0000
     18 C10       -2.1432   12.1833   -0.3930 C.3       1 RES1    0.0000
     19 H9        -2.7226   12.4211    0.3601 H         1 RES1    0.0000
     20 H10       -1.9751   11.2172   -0.3835 H         1 RES1    0.0000
     21 H11       -2.5833   12.4310   -1.2333 H         1 RES1    0.0000
     22 C11        0.1256   12.4980   -1.3556 C.3       1 RES1    0.0000
     23 H12        0.2470   11.5256   -1.3239 H         1 RES1    0.0000
     24 H13        0.9885   12.9403   -1.2125 H         1 RES1    0.0000
     25 H14       -0.2320   12.7549   -2.2308 H         1 RES1    0.0000
     26 C12        1.5308   12.6012    4.9686 C.2       1 RES1    0.0000
     27 C13        3.4079   10.9448    4.5675 C.ar      1 RES1    0.0000
     28 C14        4.5315   10.8140    3.7672 C.ar      1 RES1    0.0000
     29 H15        4.6266   11.3416    2.9821 H         1 RES1    0.0000
     30 C15        5.5122    9.9086    4.1219 C.ar      1 RES1    0.0000
     31 H16        6.2824    9.8152    3.5729 H         1 RES1    0.0000
     32 C16        5.3902    9.1380    5.2603 C.ar      1 RES1    0.0000
     33 H17        6.0779    8.5292    5.5031 H         1 RES1    0.0000
     34 C17        4.2570    9.2605    6.0441 C.ar      1 RES1    0.0000
     35 H18        4.1685    8.7273    6.8244 H         1 RES1    0.0000
     36 C18        3.2518   10.1471    5.7067 C.ar      1 RES1    0.0000
     37 H19        2.4679   10.2141    6.2389 H         1 RES1    0.0000
     38 C19        1.5111   12.6051    6.4488 C.ar      1 RES1    0.0000
     39 C20        0.3498   12.2202    7.1042 C.ar      1 RES1    0.0000
     40 H20       -0.3917   11.9033    6.6016 H         1 RES1    0.0000
     41 C21        0.2637   12.2945    8.4862 C.ar      1 RES1    0.0000
     42 H21       -0.5334   12.0490    8.9412 H         1 RES1    0.0000
     43 C22        1.3676   12.7344    9.1762 C.ar      1 RES1    0.0000
     44 C23        2.5528   13.0921    8.5611 C.ar      1 RES1    0.0000
     45 H22        3.3056   13.3661    9.0707 H         1 RES1    0.0000
     46 C24        2.6090   13.0384    7.1791 C.ar      1 RES1    0.0000
     47 H23        3.4037   13.2996    6.7286 H         1 RES1    0.0000
     48 N1         2.2048   12.1228    2.8458 N.2       1 RES1    0.0000
     49 N2         2.3991   11.8881    4.1934 N.pl3     1 RES1    0.0000
     50 N3         1.2898   12.8353   10.6426 N.pl3     1 RES1    0.0000
     51 O1        -3.9915   17.1937    3.4195 O.2       1 RES1    0.0000
     52 O2        -2.4111   16.4332    2.0427 O.3       1 RES1    0.0000
     53 O3        -0.0580   14.7750    1.9022 O.3       1 RES1    0.0000
     54 O4        -0.9621   14.4241    5.3437 O.2       1 RES1    0.0000
     55 O5        -0.3068   12.5976    1.0462 O.3       1 RES1    0.0000
     56 O6         0.1776   12.9937   11.1448 O.2       1 RES1    0.0000
     57 O7         2.3297   12.7667   11.2803 O.2       1 RES1    0.0000
@<TRIPOS>BOND
     1    1    2 1
     2    3    1 1
     3    4    1 1
     4    5    1 1
     5    6    7 1
     6    8    6 1
     7    9    6 1
     8   10    9 1
     9   11    9 1
    10   12   11 1
    11   13   12 1
    12   14   13 1
    13   15   14 1
    14   16   17 1
    15   18   16 1
    16   19   18 1
    17   20   18 1
    18   21   18 1
    19   22   16 1
    20   23   22 1
    21   24   22 1
    22   25   22 1
    23   26   12 2
    24   27   28 ar
    25   28   29 1
    26   30   28 ar
    27   31   30 1
    28   32   30 ar
    29   33   32 1
    30   34   32 ar
    31   35   34 1
    32   36   27 ar
    33   37   36 1
    34   38   26 1
    35   39   38 ar
    36   40   39 1
    37   41   39 ar
    38   42   41 1
    39   43   41 ar
    40   44   43 ar
    41   45   44 1
    42   46   38 ar
    43   47   46 1
    44   48   13 2
    45   49   26 1
    46   50   43 1
    47   51    5 2
    48   52    5 1
    49   53    9 1
    50   54   11 2
    51   55   14 1
    52   56   50 2
    53   57   50 2
    54    6   52 1
    55   14   53 1
    56   16   55 1
    57   27   49 1
    58   34   36 ar
    59   44   46 ar
    60   48   49 1
@<TRIPOS>SUBSTRUCTURE
     1 RES1 1

@<TRIPOS>CRYSIN
   5.9798   14.1470   25.9090  90.0000  90.0000  90.0000  19 1

