# MOL2 file generated by ConQuest
# Please check atom types

@<TRIPOS>MOLECULE
XEVRIB
    36    37     1
SMALL
NO_CHARGES
****
Generated from CSD

@<TRIPOS>ATOM
      1 O1         4.5659   11.5934    3.0821 O.2       1 RES1    0.0000
      2 C1         7.5343   10.0645    1.7186 C.ar      1 RES1    0.0000
      3 C2         4.1885    7.9161    5.3101 C.3       1 RES1    0.0000
      4 C3         6.0440   11.6387    0.6458 C.ar      1 RES1    0.0000
      5 C4         6.3378   10.7878    1.7265 C.ar      1 RES1    0.0000
      6 C5         4.3228    9.3568    4.8040 C.3       1 RES1    0.0000
      7 O2         1.9500    8.0898    6.3120 O.3       1 RES1    0.0000
      8 O3         4.0480    5.8502    4.1823 O.2       1 RES1    0.0000
      9 O4         2.7374    7.4247    3.4941 O.2       1 RES1    0.0000
     10 C6         6.9444   11.7734   -0.4021 C.ar      1 RES1    0.0000
     11 C7         4.7940   10.2499    5.9733 C.3       1 RES1    0.0000
     12 C8         8.1524   11.0775   -0.3800 C.ar      1 RES1    0.0000
     13 C9         3.3072    7.7413    6.5686 C.3       1 RES1    0.0000
     14 N1         3.6223    6.9976    4.2317 N.pl3     1 RES1    0.0000
     15 C10        5.3597   10.6874    2.8575 C.2       1 RES1    0.0000
     16 C11        8.4404   10.2172    0.6777 C.ar      1 RES1    0.0000
     17 C12        3.8942   10.1051    7.1820 C.3       1 RES1    0.0000
     18 C13        3.8596    8.6509    7.6630 C.3       1 RES1    0.0000
     19 C14        5.3188    9.3938    3.6436 C.3       1 RES1    0.0000
     20 H1         5.1730   12.1979    0.6782 H         1 RES1    0.0000
     21 H2         5.0578    7.5171    5.5054 H         1 RES1    0.0000
     22 H3         4.7698    8.4043    7.8801 H         1 RES1    0.0000
     23 H4         3.4391    9.6434    4.5811 H         1 RES1    0.0000
     24 H5         4.2398   10.6980    7.9527 H         1 RES1    0.0000
     25 H6         4.8274   11.1766    5.6524 H         1 RES1    0.0000
     26 H7         5.7145   10.0138    6.2350 H         1 RES1    0.0000
     27 H8         9.2515    9.7456    0.7243 H         1 RES1    0.0000
     28 H9         7.7422    9.4724    2.4933 H         1 RES1    0.0000
     29 H10        3.3354    8.5384    8.5016 H         1 RES1    0.0000
     30 H11        6.7341   12.3542   -1.1864 H         1 RES1    0.0000
     31 H12        3.0128   10.4186    7.0177 H         1 RES1    0.0000
     32 H13        8.8137   11.1926   -1.1351 H         1 RES1    0.0000
     33 H14        1.6014    7.3338    6.1075 H         1 RES1    0.0000
     34 H15        5.1039    8.6221    2.9307 H         1 RES1    0.0000
     35 H16        6.2099    9.2152    3.9808 H         1 RES1    0.0000
     36 H17        3.3239    6.7727    6.8353 H         1 RES1    0.0000
@<TRIPOS>BOND
     1    1   15 2
     2    2    5 ar
     3    3    6 1
     4    4    5 ar
     5    5   15 1
     6    6   11 1
     7    7   13 1
     8    8   14 2
     9    9   14 2
    10   10    4 ar
    11   11   17 1
    12   12   10 ar
    13   13    3 1
    14   14    3 1
    15   15   19 1
    16   16    2 ar
    17   17   18 1
    18   18   13 1
    19   19    6 1
    20   20    4 1
    21   21    3 1
    22   22   18 1
    23   23    6 1
    24   24   17 1
    25   25   11 1
    26   26   11 1
    27   27   16 1
    28   28    2 1
    29   29   18 1
    30   30   10 1
    31   31   17 1
    32   32   12 1
    33   33    7 1
    34   34   19 1
    35   35   19 1
    36   36   13 1
    37   12   16 ar
@<TRIPOS>SUBSTRUCTURE
     1 RES1 1

@<TRIPOS>CRYSIN
   5.7606   12.3050   17.7080  90.0000  90.0000  90.0000  19 1

