# MOL2 file generated by ConQuest
# Please check atom types

@<TRIPOS>MOLECULE
XEVSID
    57    62     1
SMALL
NO_CHARGES
****
Generated from CSD

@<TRIPOS>ATOM
      1 O1         1.5768   -1.6848    8.7359 O.3       1 RES1    0.0000
      2 N1        -3.1906   -4.0940    6.5722 N.pl3     1 RES1    0.0000
      3 N2         1.6534   -1.5901    7.3455 N.2       1 RES1    0.0000
      4 N3        -1.1702   -3.4883    3.9819 N.3       1 RES1    0.0000
      5 N4         0.4562   -2.4178    9.1545 N.2       1 RES1    0.0000
      6 C1        -1.4087   -3.4405    7.8143 C.2       1 RES1    0.0000
      7 C2        -4.8245   -4.3927    8.4884 C.ar      1 RES1    0.0000
      8 H1        -5.5515   -4.6275    7.9577 H         1 RES1    0.0000
      9 C3        -1.0254   -3.2788    5.3597 C.2       1 RES1    0.0000
     10 C4        -2.4506   -3.7820    8.7348 C.ar      1 RES1    0.0000
     11 C5         0.2355   -2.8664    1.9675 C.ar      1 RES1    0.0000
     12 H2        -0.3090   -3.2861    1.3410 H         1 RES1    0.0000
     13 C6        -1.8713   -3.6249    6.4992 C.2       1 RES1    0.0000
     14 C7        -4.2384   -4.0374    5.5388 C.3       1 RES1    0.0000
     15 H3        -3.8636   -3.6367    4.7386 H         1 RES1    0.0000
     16 H4        -4.9511   -3.4593    5.8507 H         1 RES1    0.0000
     17 C8        -4.8397   -5.4070    5.1681 C.3       1 RES1    0.0000
     18 H5        -4.1725   -5.9399    4.7075 H         1 RES1    0.0000
     19 H6        -5.0936   -5.8784    5.9776 H         1 RES1    0.0000
     20 C9        -2.8961   -4.2114    2.2607 C.3       1 RES1    0.0000
     21 H7        -2.4547   -3.6854    1.5761 H         1 RES1    0.0000
     22 H8        -3.5878   -3.6613    2.6619 H         1 RES1    0.0000
     23 C10        1.9288   -1.6004    3.8826 C.ar      1 RES1    0.0000
     24 H9         2.4837   -1.1910    4.5068 H         1 RES1    0.0000
     25 C11        0.1597   -2.5309    5.5673 C.2       1 RES1    0.0000
     26 C12       -3.5553   -4.1480    7.9238 C.ar      1 RES1    0.0000
     27 C13       -0.0895   -2.8759    3.3328 C.ar      1 RES1    0.0000
     28 C14        0.5942   -2.2509    6.9075 C.2       1 RES1    0.0000
     29 C15       -1.8841   -4.6060    3.3260 C.3       1 RES1    0.0000
     30 H10       -2.3445   -5.1169    4.0103 H         1 RES1    0.0000
     31 H11       -1.2261   -5.1912    2.9199 H         1 RES1    0.0000
     32 C16        1.4059   -2.2065    1.5832 C.ar      1 RES1    0.0000
     33 H12        1.6376   -2.1744    0.6827 H         1 RES1    0.0000
     34 C17       -0.1458   -2.7567    8.0264 C.2       1 RES1    0.0000
     35 C18       -6.0707   -5.2373    4.2670 C.3       1 RES1    0.0000
     36 H13       -6.7692   -4.7901    4.7711 H         1 RES1    0.0000
     37 H14       -5.8357   -4.6663    3.5189 H         1 RES1    0.0000
     38 C19       -6.6190   -6.5609    3.7275 C.3       1 RES1    0.0000
     39 H15       -5.9557   -6.9796    3.1745 H         1 RES1    0.0000
     40 H16       -7.4088   -6.3923    3.2091 H         1 RES1    0.0000
     41 H17       -6.8355   -7.1400    4.4621 H         1 RES1    0.0000
     42 C20       -2.5933   -3.6820   10.1252 C.ar      1 RES1    0.0000
     43 H18       -1.8678   -3.4634   10.6654 H         1 RES1    0.0000
     44 C21        0.7468   -2.2536    4.2875 C.ar      1 RES1    0.0000
     45 C22        2.2440   -1.5836    2.5401 C.ar      1 RES1    0.0000
     46 H19        3.0200   -1.1562    2.2582 H         1 RES1    0.0000
     47 C23       -4.9492   -4.2722    9.8617 C.ar      1 RES1    0.0000
     48 H20       -5.7766   -4.4260   10.2570 H         1 RES1    0.0000
     49 C24       -3.8507   -3.9203   10.6783 C.ar      1 RES1    0.0000
     50 H21       -3.9690   -3.8467   11.5980 H         1 RES1    0.0000
     51 C25       -3.5421   -5.4574    1.6151 C.3       1 RES1    0.0000
     52 H22       -2.8597   -5.9593    1.1420 H         1 RES1    0.0000
     53 H23       -3.8995   -6.0280    2.3134 H         1 RES1    0.0000
     54 C26       -4.6662   -5.0973    0.6387 C.3       1 RES1    0.0000
     55 H24       -4.3002   -4.6136   -0.1059 H         1 RES1    0.0000
     56 H25       -5.3161   -4.5509    1.0864 H         1 RES1    0.0000
     57 H26       -5.0858   -5.9006    0.3229 H         1 RES1    0.0000
@<TRIPOS>BOND
     1    1    3 1
     2    2   13 1
     3    3   28 2
     4    4    9 1
     5    5    1 1
     6    6   10 1
     7    7    8 1
     8    9   13 1
     9   10   26 ar
    10   11   12 1
    11   13    6 2
    12   14    2 1
    13   15   14 1
    14   16   14 1
    15   17   14 1
    16   18   17 1
    17   19   17 1
    18   20   21 1
    19   22   20 1
    20   23   24 1
    21   25    9 2
    22   26    2 1
    23   27    4 1
    24   28   25 1
    25   29    4 1
    26   30   29 1
    27   31   29 1
    28   32   11 ar
    29   33   32 1
    30   34    5 2
    31   35   17 1
    32   36   35 1
    33   37   35 1
    34   38   35 1
    35   39   38 1
    36   40   38 1
    37   41   38 1
    38   42   10 ar
    39   43   42 1
    40   44   23 ar
    41   45   23 ar
    42   46   45 1
    43   47    7 ar
    44   48   47 1
    45   49   42 ar
    46   50   49 1
    47   51   20 1
    48   52   51 1
    49   53   51 1
    50   54   51 1
    51   55   54 1
    52   56   54 1
    53   57   54 1
    54    6   34 1
    55    7   26 ar
    56   11   27 ar
    57   20   29 1
    58   25   44 1
    59   27   44 ar
    60   28   34 1
    61   32   45 ar
    62   47   49 ar
@<TRIPOS>SUBSTRUCTURE
     1 RES1 1

@<TRIPOS>CRYSIN
   8.5102   11.3944   11.7116  97.9360  96.9910 110.0900   2 1

