# MOL2 file generated by ConQuest
# Please check atom types

@<TRIPOS>MOLECULE
XEWVIH
    63    69     1
SMALL
NO_CHARGES
****
Generated from CSD

@<TRIPOS>ATOM
      1 N1         7.0075    2.9211    2.6598 N.3       1 RES1    0.0000
      2 N2         4.0050    3.6916    3.0622 N.3       1 RES1    0.0000
      3 O1         6.0566    4.7831    1.5697 O.3       1 RES1    0.0000
      4 O2         3.9476    5.0519    2.5831 O.3       1 RES1    0.0000
      5 O3         9.3147    1.7046    3.8492 O.3       1 RES1    0.0000
      6 C1         6.2474    4.4500    5.9437 C.ar      1 RES1    0.0000
      7 H1         6.8520    5.1034    6.2112 H         1 RES1    0.0000
      8 C2         6.0138    3.3888    6.7548 C.ar      1 RES1    0.0000
      9 H2         6.4823    3.3082    7.5540 H         1 RES1    0.0000
     10 C3         5.0676    2.4044    6.4005 C.ar      1 RES1    0.0000
     11 C4         4.7767    1.2958    7.2264 C.ar      1 RES1    0.0000
     12 H3         5.2343    1.1962    8.0295 H         1 RES1    0.0000
     13 C5         3.8501    0.3767    6.8772 C.ar      1 RES1    0.0000
     14 H4         3.6893   -0.3533    7.4301 H         1 RES1    0.0000
     15 C6         3.1287    0.5232    5.6831 C.ar      1 RES1    0.0000
     16 H5         2.4753   -0.1018    5.4631 H         1 RES1    0.0000
     17 C7         3.3722    1.5690    4.8387 C.ar      1 RES1    0.0000
     18 H6         2.8857    1.6531    4.0507 H         1 RES1    0.0000
     19 C8         4.3678    2.5284    5.1633 C.ar      1 RES1    0.0000
     20 C9         4.6849    3.6271    4.3188 C.ar      1 RES1    0.0000
     21 C10        5.5906    4.5819    4.7016 C.ar      1 RES1    0.0000
     22 C11        4.5972    2.8831    1.9709 C.3       1 RES1    0.0000
     23 H7         4.6528    1.9565    2.2844 H         1 RES1    0.0000
     24 C12        3.6190    2.9167    0.7932 C.3       1 RES1    0.0000
     25 H8         2.8242    2.4134    1.0313 H         1 RES1    0.0000
     26 H9         3.3509    3.8362    0.6348 H         1 RES1    0.0000
     27 C13        4.1961    2.3453   -0.4906 C.3       1 RES1    0.0000
     28 H10        4.3975    1.4035   -0.3705 H         1 RES1    0.0000
     29 H11        3.5475    2.4269   -1.2071 H         1 RES1    0.0000
     30 C14        5.4579    3.0985   -0.8514 C.3       1 RES1    0.0000
     31 H12        5.8054    2.7667   -1.6944 H         1 RES1    0.0000
     32 H13        5.2560    4.0416   -0.9569 H         1 RES1    0.0000
     33 C15        6.4913    2.9207    0.2274 C.3       1 RES1    0.0000
     34 H14        7.2804    3.4310   -0.0130 H         1 RES1    0.0000
     35 H15        6.7471    1.9853    0.2596 H         1 RES1    0.0000
     36 C16        6.0368    3.3517    1.6284 C.3       1 RES1    0.0000
     37 C17        5.2606    5.5933    2.4386 C.3       1 RES1    0.0000
     38 C18        5.8459    5.7882    3.8334 C.3       1 RES1    0.0000
     39 H16        6.8123    5.9347    3.7605 H         1 RES1    0.0000
     40 C19        5.1982    7.0001    4.5422 C.3       1 RES1    0.0000
     41 H17        4.2992    6.7565    4.8118 H         1 RES1    0.0000
     42 H18        5.7033    7.1942    5.3475 H         1 RES1    0.0000
     43 C20        5.1256    8.2608    3.7003 C.3       1 RES1    0.0000
     44 H19        4.6708    8.9587    4.1959 H         1 RES1    0.0000
     45 H20        6.0228    8.5690    3.4973 H         1 RES1    0.0000
     46 C21        4.3795    7.9795    2.4140 C.3       1 RES1    0.0000
     47 H21        4.3408    8.7840    1.8726 H         1 RES1    0.0000
     48 H22        3.4719    7.7011    2.6136 H         1 RES1    0.0000
     49 C22        5.0994    6.8828    1.6572 C.3       1 RES1    0.0000
     50 H23        5.9784    7.2058    1.4029 H         1 RES1    0.0000
     51 H24        4.6093    6.6931    0.8425 H         1 RES1    0.0000
     52 C23        8.3716    3.4084    2.4158 C.3       1 RES1    0.0000
     53 H25        8.3535    4.3661    2.2667 H         1 RES1    0.0000
     54 H26        8.7307    2.9856    1.6201 H         1 RES1    0.0000
     55 C24        9.2506    3.0981    3.5926 C.3       1 RES1    0.0000
     56 H27       10.1443    3.4330    3.4218 H         1 RES1    0.0000
     57 H28        8.9066    3.5520    4.3776 H         1 RES1    0.0000
     58 C25        8.0055    1.2324    4.0956 C.3       1 RES1    0.0000
     59 H29        7.6548    1.6666    4.8885 H         1 RES1    0.0000
     60 H30        8.0386    0.2784    4.2690 H         1 RES1    0.0000
     61 C26        7.0752    1.4915    2.9397 C.3       1 RES1    0.0000
     62 H31        7.3929    1.0195    2.1534 H         1 RES1    0.0000
     63 H32        6.1892    1.1597    3.1528 H         1 RES1    0.0000
@<TRIPOS>BOND
     1    1   36 1
     2    2    4 1
     3    3   36 1
     4    4   37 1
     5    5   55 1
     6    6    7 1
     7    8    6 ar
     8    9    8 1
     9   10    8 ar
    10   11   10 ar
    11   12   11 1
    12   13   11 ar
    13   14   13 1
    14   15   13 ar
    15   16   15 1
    16   17   15 ar
    17   18   17 1
    18   19   10 ar
    19   20    2 1
    20   21    6 ar
    21   22    2 1
    22   23   22 1
    23   24   22 1
    24   25   24 1
    25   26   24 1
    26   27   24 1
    27   28   27 1
    28   29   27 1
    29   30   27 1
    30   31   30 1
    31   32   30 1
    32   33   30 1
    33   34   33 1
    34   35   33 1
    35   36   22 1
    36   37    3 1
    37   38   21 1
    38   39   38 1
    39   40   38 1
    40   41   40 1
    41   42   40 1
    42   43   40 1
    43   44   43 1
    44   45   43 1
    45   46   43 1
    46   47   46 1
    47   48   46 1
    48   49   37 1
    49   50   49 1
    50   51   49 1
    51   52    1 1
    52   53   52 1
    53   54   52 1
    54   55   52 1
    55   56   55 1
    56   57   55 1
    57   58    5 1
    58   59   58 1
    59   60   58 1
    60   61    1 1
    61   62   61 1
    62   63   61 1
    63   17   19 ar
    64   19   20 ar
    65   20   21 ar
    66   33   36 1
    67   37   38 1
    68   46   49 1
    69   58   61 1
@<TRIPOS>SUBSTRUCTURE
     1 RES1 1

@<TRIPOS>CRYSIN
   9.4550   19.2000   11.7994  90.0000  90.0000  90.0000  19 1

