# MOL2 file generated by ConQuest
# Please check atom types

@<TRIPOS>MOLECULE
XEXMUJ
    31    32     1
SMALL
NO_CHARGES
****
Generated from CSD

@<TRIPOS>ATOM
      1 C1         0.0231    3.9220    6.5341 C.3       1 RES1    0.0000
      2 H1         0.3363    4.7606    6.8798 H         1 RES1    0.0000
      3 H2        -0.7803    4.0650    6.0272 H         1 RES1    0.0000
      4 H3         0.6949    3.5379    5.9668 H         1 RES1    0.0000
      5 C2        -0.2508    3.0336    7.6171 C.3       1 RES1    0.0000
      6 H4        -0.5739    2.1846    7.2759 H         1 RES1    0.0000
      7 H5        -0.9332    3.4120    8.1921 H         1 RES1    0.0000
      8 C3         0.9209    2.0260    9.3979 C.2       1 RES1    0.0000
      9 C4         2.2091    1.9058   10.1408 C.2       1 RES1    0.0000
     10 C5         2.2047    1.1211   11.4037 C.3       1 RES1    0.0000
     11 H6         2.1176    0.1767   11.1985 H         1 RES1    0.0000
     12 H7         1.4437    1.3833   11.9458 H         1 RES1    0.0000
     13 C6         3.4878    1.3559   12.1805 C.3       1 RES1    0.0000
     14 H8         3.6007    0.6303   12.8301 H         1 RES1    0.0000
     15 C7         4.6312    1.3072   11.1974 C.3       1 RES1    0.0000
     16 H9         4.6461    0.4333   10.7530 H         1 RES1    0.0000
     17 C8         5.9887    1.5912   11.8025 C.3       1 RES1    0.0000
     18 H10        6.2612    0.8345   12.3452 H         1 RES1    0.0000
     19 H11        6.6382    1.6954   11.0910 H         1 RES1    0.0000
     20 C9         5.9826    2.8247   12.6472 C.2       1 RES1    0.0000
     21 C10        4.8345    2.9382   13.6048 C.3       1 RES1    0.0000
     22 H12        4.8309    3.8271   13.9932 H         1 RES1    0.0000
     23 H13        4.9561    2.2992   14.3246 H         1 RES1    0.0000
     24 C11        3.4891    2.6806   12.9245 C.3       1 RES1    0.0000
     25 H14        2.7858    2.6744   13.5927 H         1 RES1    0.0000
     26 H15        3.3028    3.3995   12.3002 H         1 RES1    0.0000
     27 N1         3.2119    2.4889    9.5891 N.2       1 RES1    0.0000
     28 O1         0.9790    2.8325    8.3678 O.3       1 RES1    0.0000
     29 O2        -0.0584    1.4331    9.7282 O.2       1 RES1    0.0000
     30 O3         4.4595    2.3624   10.1978 O.3       1 RES1    0.0000
     31 O4         6.8564    3.6509   12.5789 O.2       1 RES1    0.0000
@<TRIPOS>BOND
     1    1    2 1
     2    3    1 1
     3    4    1 1
     4    5    1 1
     5    6    5 1
     6    7    5 1
     7    8    9 1
     8    9   10 1
     9   10   11 1
    10   12   10 1
    11   13   10 1
    12   14   13 1
    13   15   13 1
    14   16   15 1
    15   17   15 1
    16   18   17 1
    17   19   17 1
    18   20   17 1
    19   21   20 1
    20   22   21 1
    21   23   21 1
    22   24   13 1
    23   25   24 1
    24   26   24 1
    25   27    9 2
    26   28    5 1
    27   29    8 2
    28   30   15 1
    29   31   20 2
    30    8   28 1
    31   21   24 1
    32   27   30 1
@<TRIPOS>SUBSTRUCTURE
     1 RES1 1

@<TRIPOS>CRYSIN
  20.2200    5.1830   11.2350  90.0000 102.4100  90.0000  14 1

