# MOL2 file generated by ConQuest
# Please check atom types

@<TRIPOS>MOLECULE
XEXPEX
    50    54     1
SMALL
NO_CHARGES
****
Generated from CSD

@<TRIPOS>ATOM
      1 O1         6.9070    3.4697   -1.8873 O.2       1 RES1    0.0000
      2 O2         1.7168    5.3665    1.5602 O.3       1 RES1    0.0000
      3 O3         4.6037    2.4746    2.1074 O.3       1 RES1    0.0000
      4 O4         2.8033    6.2030   -0.1735 O.2       1 RES1    0.0000
      5 C1         3.8445    4.3997    0.9190 C.2       1 RES1    0.0000
      6 O5         6.3061    8.8845   -2.2243 O.2       1 RES1    0.0000
      7 C2         5.9563    5.5970    0.2532 C.ar      1 RES1    0.0000
      8 C3         2.6044    3.5100    2.8338 C.ar      1 RES1    0.0000
      9 C4         6.3413    1.0267    1.3996 C.3       1 RES1    0.0000
     10 H1         5.7373    0.3413    1.7261 H         1 RES1    0.0000
     11 H2         6.9939    1.2034    2.0953 H         1 RES1    0.0000
     12 N1         7.1623    8.7251   -1.3744 N.pl3     1 RES1    0.0000
     13 C5         3.7150    3.4942    1.9095 C.2       1 RES1    0.0000
     14 C6         6.0776    6.6397   -0.6535 C.ar      1 RES1    0.0000
     15 H3         5.5529    6.6657   -1.4213 H         1 RES1    0.0000
     16 C7         5.7599    3.1201    0.1225 C.2       1 RES1    0.0000
     17 C8         5.0151    4.4219   -0.0252 C.3       1 RES1    0.0000
     18 C9         1.6290    4.4745    2.5982 C.ar      1 RES1    0.0000
     19 C10        5.5643    2.2717    1.1382 C.2       1 RES1    0.0000
     20 C11        2.4582    2.6376    3.9082 C.ar      1 RES1    0.0000
     21 H4         3.1044    1.9908    4.0741 H         1 RES1    0.0000
     22 C12        6.9992    7.6449   -0.3898 C.ar      1 RES1    0.0000
     23 C13        7.7321    1.6639   -0.5674 C.3       1 RES1    0.0000
     24 H5         8.4596    1.9997   -0.0199 H         1 RES1    0.0000
     25 H6         8.1136    1.3385   -1.3979 H         1 RES1    0.0000
     26 C14        2.7960    5.3828    0.7051 C.2       1 RES1    0.0000
     27 C15        0.5062    4.5630    3.4147 C.ar      1 RES1    0.0000
     28 H7        -0.1483    5.2010    3.2459 H         1 RES1    0.0000
     29 C16        6.7941    2.8008   -0.8780 C.2       1 RES1    0.0000
     30 C17        7.0678    0.4998    0.1565 C.3       1 RES1    0.0000
     31 C18        1.3433    2.7363    4.7328 C.ar      1 RES1    0.0000
     32 H8         1.2452    2.1615    5.4573 H         1 RES1    0.0000
     33 C19        6.7393    5.6168    1.4002 C.ar      1 RES1    0.0000
     34 H9         6.6536    4.9273    2.0191 H         1 RES1    0.0000
     35 C20        0.3749    3.6979    4.4714 C.ar      1 RES1    0.0000
     36 H10       -0.3726    3.7559    5.0206 H         1 RES1    0.0000
     37 C21        7.7923    7.6652    0.7315 C.ar      1 RES1    0.0000
     38 H11        8.4083    8.3472    0.8715 H         1 RES1    0.0000
     39 C22        7.6459    6.6358    1.6470 C.ar      1 RES1    0.0000
     40 H12        8.1554    6.6283    2.4259 H         1 RES1    0.0000
     41 C23        6.0578   -0.1760   -0.7942 C.3       1 RES1    0.0000
     42 H13        6.5186   -0.5084   -1.5678 H         1 RES1    0.0000
     43 H14        5.3970    0.4639   -1.0667 H         1 RES1    0.0000
     44 H15        5.6289   -0.9048   -0.3399 H         1 RES1    0.0000
     45 C24        8.1132   -0.5274    0.5732 C.3       1 RES1    0.0000
     46 H16        8.5432   -0.8816   -0.2087 H         1 RES1    0.0000
     47 H17        7.6878   -1.2407    1.0544 H         1 RES1    0.0000
     48 H18        8.7676   -0.1084    1.1365 H         1 RES1    0.0000
     49 O6         8.1615    9.4201   -1.2935 O.2       1 RES1    0.0000
     50 H19        4.6708    4.4900   -0.8850 H         1 RES1    0.0000
@<TRIPOS>BOND
     1    1   29 2
     2    2   18 1
     3    3   13 1
     4    4   26 2
     5    5   13 2
     6    6   12 2
     7    7   14 ar
     8    8   13 1
     9    9   10 1
    10   11    9 1
    11   12   22 1
    12   14   15 1
    13   16   17 1
    14   17    5 1
    15   18    8 ar
    16   19    3 1
    17   20    8 ar
    18   21   20 1
    19   22   14 ar
    20   23   24 1
    21   25   23 1
    22   26    2 1
    23   27   18 ar
    24   28   27 1
    25   29   16 1
    26   30    9 1
    27   31   20 ar
    28   32   31 1
    29   33    7 ar
    30   34   33 1
    31   35   27 ar
    32   36   35 1
    33   37   22 ar
    34   38   37 1
    35   39   33 ar
    36   40   39 1
    37   41   30 1
    38   42   41 1
    39   43   41 1
    40   44   41 1
    41   45   30 1
    42   46   45 1
    43   47   45 1
    44   48   45 1
    45   49   12 2
    46   50   17 1
    47    5   26 1
    48    7   17 1
    49    9   19 1
    50   16   19 2
    51   23   29 1
    52   23   30 1
    53   31   35 ar
    54   37   39 ar
@<TRIPOS>SUBSTRUCTURE
     1 RES1 1

@<TRIPOS>CRYSIN
  19.0103   17.7751    5.8611  90.0000  90.0000  90.0000  33 1

