# MOL2 file generated by ConQuest
# Please check atom types

@<TRIPOS>MOLECULE
XEXRIB
    35    35     2
SMALL
NO_CHARGES
****
Generated from CSD

@<TRIPOS>ATOM
      1 O1         3.6184    3.0746   -0.3889 O.3       1 RES1    0.0000
      2 N1         3.6629    3.4914    0.9971 N.2       1 RES1    0.0000
      3 C1         3.5388    2.5397    1.8335 C.2       1 RES1    0.0000
      4 C2         3.4682    1.0983    1.4305 C.3       1 RES1    0.0000
      5 C3         4.5157    0.2877    2.1870 C.3       1 RES1    0.0000
      6 C4         4.4006    0.4795    3.6785 C.2       1 RES1    0.0000
      7 C5         4.5610    1.9505    4.0336 C.3       1 RES1    0.0000
      8 C6         3.5336    2.8146    3.2994 C.3       1 RES1    0.0000
      9 O2         3.8426    4.8415    1.5706 Du        2 SUP2    0.0000
     10 H1         3.7182    3.8640   -0.7663 H         1 RES1    0.0000
     11 H2         3.6215    1.0190    0.4763 H         1 RES1    0.0000
     12 H3         4.4068   -0.6529    1.9752 H         1 RES1    0.0000
     13 H4         5.4008    0.5589    1.8969 H         1 RES1    0.0000
     14 H5         5.4556    2.2428    3.7963 H         1 RES1    0.0000
     15 H6         4.4526    2.0648    4.9911 H         1 RES1    0.0000
     16 H7         2.6493    2.6356    3.6570 H         1 RES1    0.0000
     17 H8         3.7331    3.7515    3.4519 H         1 RES1    0.0000
     18 H9         2.5842    0.7497    1.6250 H         1 RES1    0.0000
     19 C4B        4.1460   -0.4795    4.5618 C.2       1 RES1    0.0000
     20 C3B        4.0308   -0.2877    6.0533 C.3       1 RES1    0.0000
     21 C2B        5.0783   -1.0983    6.8098 C.3       1 RES1    0.0000
     22 C1B        5.0078   -2.5397    6.4068 C.2       1 RES1    0.0000
     23 N1B        4.8837   -3.4914    7.2432 N.2       1 RES1    0.0000
     24 O1B        4.9282   -3.0746    8.6292 O.3       1 RES1    0.0000
     25 H1B        4.8284   -3.8640    9.0066 H         1 RES1    0.0000
     26 C6B        5.0130   -2.8146    4.9409 C.3       1 RES1    0.0000
     27 C5B        3.9856   -1.9505    4.2067 C.3       1 RES1    0.0000
     28 H5B        3.0910   -2.2428    4.4440 H         1 RES1    0.0000
     29 H6B        4.0940   -2.0648    3.2491 H         1 RES1    0.0000
     30 H7B        5.8973   -2.6356    4.5832 H         1 RES1    0.0000
     31 H8B        4.8135   -3.7515    4.7884 H         1 RES1    0.0000
     32 H2B        4.9251   -1.0190    7.7640 H         1 RES1    0.0000
     33 H9B        5.9623   -0.7497    6.6153 H         1 RES1    0.0000
     34 H3B        4.1397    0.6529    6.2651 H         1 RES1    0.0000
     35 H4B        3.1458   -0.5589    6.3434 H         1 RES1    0.0000
@<TRIPOS>BOND
     1    1    2 1
     2    2    3 2
     3    3    4 1
     4    4    5 1
     5    5    6 1
     6    6    7 1
     7    7    8 1
     8    8    3 1
     9   10    1 1
    10   11    4 1
    11   12    5 1
    12   13    5 1
    13   14    7 1
    14   15    7 1
    15   16    8 1
    16   17    8 1
    17   18    4 1
    18   19    6 2
    19   20   19 1
    20   21   20 1
    21   22   21 1
    22   23   22 2
    23   24   23 1
    24   25   24 1
    25   26   22 1
    26   27   19 1
    27   28   27 1
    28   29   27 1
    29   30   26 1
    30   31   26 1
    31   32   21 1
    32   33   21 1
    33   34   20 1
    34   35   20 1
    35   26   27 1
@<TRIPOS>SUBSTRUCTURE
     1 RES1 1
     2 SUP2 9

@<TRIPOS>CRYSIN
   7.5343    9.2220   10.5090  90.0000 128.3610  90.0000  14 1

