# MOL2 file generated by ConQuest
# Please check atom types

@<TRIPOS>MOLECULE
XEXROH
    37    37     2
SMALL
NO_CHARGES
****
Generated from CSD

@<TRIPOS>ATOM
      1 O1         3.5739    1.5251   -0.4425 O.3       1 RES1    0.0000
      2 O2         4.1267   -0.1893    1.5918 Du        2 SUP2    0.0000
      3 N1         3.7151    1.1317    0.9604 N.2       1 RES1    0.0000
      4 C1         3.4784    2.0720    1.7944 C.2       1 RES1    0.0000
      5 C2         3.1935    3.4776    1.3762 C.3       1 RES1    0.0000
      6 C3         4.0663    4.4654    2.1550 C.3       1 RES1    0.0000
      7 C4         3.9726    4.2686    3.6690 C.3       1 RES1    0.0000
      8 C5         4.3528    2.8255    4.0070 C.3       1 RES1    0.0000
      9 C6         3.4848    1.8091    3.2597 C.3       1 RES1    0.0000
     10 H1         3.0363    4.3946    3.9373 H         1 RES1    0.0000
     11 H2         3.6407    0.7076   -0.8348 H         1 RES1    0.0000
     12 H3         3.2655    3.5819    0.4133 H         1 RES1    0.0000
     13 H4         2.1825    3.6612    1.5885 H         1 RES1    0.0000
     14 H5         3.7760    5.3728    1.9127 H         1 RES1    0.0000
     15 H6         5.3043    2.7242    3.7849 H         1 RES1    0.0000
     16 H7         4.3279    2.6467    4.9439 H         1 RES1    0.0000
     17 H8         4.9896    4.3611    1.9370 H         1 RES1    0.0000
     18 H9         3.7796    0.8892    3.4526 H         1 RES1    0.0000
     19 H10        2.5526    1.8961    3.5661 H         1 RES1    0.0000
     20 C4B        4.8268    5.2932    4.4357 C.3       1 RES1    0.0000
     21 C3B        4.7332    5.0964    5.9497 C.3       1 RES1    0.0000
     22 C2B        5.6060    6.0842    6.7285 C.3       1 RES1    0.0000
     23 C1B        5.3211    7.4898    6.3103 C.2       1 RES1    0.0000
     24 N1B        5.0843    8.4301    7.1443 N.2       1 RES1    0.0000
     25 O1B        5.2255    8.0367    8.5472 O.3       1 RES1    0.0000
     26 H2B        5.1587    8.8542    8.9395 H         1 RES1    0.0000
     27 C6B        5.3146    7.7527    4.8450 C.3       1 RES1    0.0000
     28 C5B        4.4467    6.7363    4.0977 C.3       1 RES1    0.0000
     29 H1B        5.7631    5.1672    4.1674 H         1 RES1    0.0000
     30 H6B        3.4951    6.8376    4.3198 H         1 RES1    0.0000
     31 H7B        4.4715    6.9151    3.1608 H         1 RES1    0.0000
     32 H9B        5.0198    8.6726    4.6521 H         1 RES1    0.0000
     33 H10B       6.2468    7.6657    4.5386 H         1 RES1    0.0000
     34 H3B        5.5340    5.9799    7.6914 H         1 RES1    0.0000
     35 H4B        6.6169    5.9006    6.5162 H         1 RES1    0.0000
     36 H5B        5.0234    4.1890    6.1920 H         1 RES1    0.0000
     37 H8B        3.8098    5.2007    6.1677 H         1 RES1    0.0000
@<TRIPOS>BOND
     1    1    3 1
     2    3    4 2
     3    4    5 1
     4    5    6 1
     5    6    7 1
     6    7    8 1
     7    8    9 1
     8    9    4 1
     9   10    7 1
    10   11    1 1
    11   12    5 1
    12   13    5 1
    13   14    6 1
    14   15    8 1
    15   16    8 1
    16   17    6 1
    17   18    9 1
    18   19    9 1
    19   20    7 1
    20   21   20 1
    21   22   21 1
    22   23   22 1
    23   24   23 2
    24   25   24 1
    25   26   25 1
    26   27   23 1
    27   28   20 1
    28   29   20 1
    29   30   28 1
    30   31   28 1
    31   32   27 1
    32   33   27 1
    33   34   22 1
    34   35   22 1
    35   36   21 1
    36   37   21 1
    37   27   28 1
@<TRIPOS>SUBSTRUCTURE
     1 RES1 1
     2 SUP2 2

@<TRIPOS>CRYSIN
   7.7595    9.5618   10.5280  90.0000 129.6620  90.0000  14 1

