# MOL2 file generated by ConQuest
# Please check atom types

@<TRIPOS>MOLECULE
XEXWAA
    43    44     1
SMALL
NO_CHARGES
****
Generated from CSD

@<TRIPOS>ATOM
      1 O1         5.5240    1.5480    1.0134 O.2       1 RES1    0.0000
      2 O2         1.1554    0.2913    1.8494 O.2       1 RES1    0.0000
      3 N1         4.3793    1.4062    1.5705 N.3       1 RES1    0.0000
      4 N2         2.2990    0.8411    1.9424 N.pl3     1 RES1    0.0000
      5 C1         3.3414    0.6742    1.1112 C.2       1 RES1    0.0000
      6 C2         4.0769    2.0356    2.8983 C.3       1 RES1    0.0000
      7 C3         4.6371    3.4298    2.9388 C.3       1 RES1    0.0000
      8 H1         5.5897    3.3949    2.8349 H         1 RES1    0.0000
      9 H2         4.4225    3.8367    3.7820 H         1 RES1    0.0000
     10 H3         4.2550    3.9491    2.2268 H         1 RES1    0.0000
     11 C4         4.8174    1.1804    3.9297 C.3       1 RES1    0.0000
     12 H4         4.4653    0.2869    3.9176 H         1 RES1    0.0000
     13 H5         4.6970    1.5589    4.8046 H         1 RES1    0.0000
     14 H6         5.7522    1.1585    3.7153 H         1 RES1    0.0000
     15 C5         2.5657    1.9123    2.9541 C.3       1 RES1    0.0000
     16 C6         1.8520    3.1800    2.3832 C.3       1 RES1    0.0000
     17 H7         2.2311    3.4036    1.5290 H         1 RES1    0.0000
     18 H8         1.9728    3.9152    2.9880 H         1 RES1    0.0000
     19 H9         0.9146    3.0011    2.2804 H         1 RES1    0.0000
     20 C7         1.9307    1.5938    4.2556 C.3       1 RES1    0.0000
     21 H10        0.9770    1.6483    4.1681 H         1 RES1    0.0000
     22 H11        2.2276    2.2222    4.9184 H         1 RES1    0.0000
     23 H12        2.1780    0.7058    4.5235 H         1 RES1    0.0000
     24 C8         3.3384   -0.1145   -0.1203 C.ar      1 RES1    0.0000
     25 C9         4.4978   -0.7102   -0.5884 C.ar      1 RES1    0.0000
     26 H13        5.2849   -0.6382   -0.0984 H         1 RES1    0.0000
     27 C10        4.4925   -1.4084   -1.7740 C.ar      1 RES1    0.0000
     28 H14        5.2762   -1.8163   -2.0638 H         1 RES1    0.0000
     29 C11        3.3434   -1.5196   -2.5516 C.ar      1 RES1    0.0000
     30 C12        2.1923   -0.9273   -2.0627 C.ar      1 RES1    0.0000
     31 H15        1.4063   -0.9916   -2.5560 H         1 RES1    0.0000
     32 C13        2.1755   -0.2433   -0.8640 C.ar      1 RES1    0.0000
     33 H16        1.3819    0.1309   -0.5545 H         1 RES1    0.0000
     34 C14        3.4085   -2.2200   -3.8892 C.3       1 RES1    0.0000
     35 H17        3.9473   -3.0283   -3.7579 H         1 RES1    0.0000
     36 C15        2.0774   -2.6694   -4.4240 C.3       1 RES1    0.0000
     37 H18        1.6205   -3.1865   -3.7547 H         1 RES1    0.0000
     38 H19        2.2116   -3.2072   -5.2071 H         1 RES1    0.0000
     39 H20        1.5471   -1.9014   -4.6504 H         1 RES1    0.0000
     40 C16        4.1309   -1.3778   -4.8987 C.3       1 RES1    0.0000
     41 H21        3.6158   -0.5891   -5.0835 H         1 RES1    0.0000
     42 H22        4.2496   -1.8796   -5.7080 H         1 RES1    0.0000
     43 H23        4.9885   -1.1258   -4.5498 H         1 RES1    0.0000
@<TRIPOS>BOND
     1    1    3 1
     2    2    4 1
     3    3    5 1
     4    4    5 2
     5    5   24 1
     6    6    3 1
     7    7    6 1
     8    8    7 1
     9    9    7 1
    10   10    7 1
    11   11    6 1
    12   12   11 1
    13   13   11 1
    14   14   11 1
    15   15    4 1
    16   16   15 1
    17   17   16 1
    18   18   16 1
    19   19   16 1
    20   20   15 1
    21   21   20 1
    22   22   20 1
    23   23   20 1
    24   24   25 ar
    25   25   26 1
    26   27   25 ar
    27   28   27 1
    28   29   27 ar
    29   30   29 ar
    30   31   30 1
    31   32   24 ar
    32   33   32 1
    33   34   29 1
    34   35   34 1
    35   36   34 1
    36   37   36 1
    37   38   36 1
    38   39   36 1
    39   40   34 1
    40   41   40 1
    41   42   40 1
    42   43   40 1
    43    6   15 1
    44   30   32 ar
@<TRIPOS>SUBSTRUCTURE
     1 RES1 1

@<TRIPOS>CRYSIN
  13.2510   10.9090   11.6530  90.0000 110.1900  90.0000  14 1

