# MOL2 file generated by ConQuest
# Please check atom types

@<TRIPOS>MOLECULE
XEXYOO
    33    33     1
SMALL
NO_CHARGES
****
Generated from CSD

@<TRIPOS>ATOM
      1 O1         2.3403    2.4324    8.6217 O.3       1 RES1    0.0000
      2 O2         4.0459    0.2456    7.7656 O.3       1 RES1    0.0000
      3 O3         2.4556    2.1310    4.3498 O.3       1 RES1    0.0000
      4 O4         2.9372    5.2219    5.7661 O.2       1 RES1    0.0000
      5 O5         1.4864    4.8631    7.3541 O.2       1 RES1    0.0000
      6 O6        -0.0767    1.0363    6.0144 O.2       1 RES1    0.0000
      7 O7         1.2124   -0.5795    5.4153 O.2       1 RES1    0.0000
      8 O8         5.4263   -0.1099    5.2059 O.2       1 RES1    0.0000
      9 O9         5.4025    1.7713    4.1174 O.2       1 RES1    0.0000
     10 N1         2.5752    3.1519    6.4850 N.3       1 RES1    0.0000
     11 N2         2.3136    4.5033    6.5298 N.pl3     1 RES1    0.0000
     12 N3         1.9828    0.9264    6.8763 N.3       1 RES1    0.0000
     13 N4         0.9780    0.4319    6.0231 N.pl3     1 RES1    0.0000
     14 N5         4.0420    1.4991    5.8657 N.3       1 RES1    0.0000
     15 N6         5.0226    1.0131    4.9865 N.pl3     1 RES1    0.0000
     16 C1         1.8030    2.2942    7.3686 C.3       1 RES1    0.0000
     17 C2         1.5084    1.9284    9.6597 C.3       1 RES1    0.0000
     18 C3         3.3460    0.4490    6.6034 C.3       1 RES1    0.0000
     19 C4         3.6942   -0.9865    8.3950 C.3       1 RES1    0.0000
     20 C5         3.2925    2.6221    5.3460 C.3       1 RES1    0.0000
     21 C6         1.8908    3.1210    3.4952 C.3       1 RES1    0.0000
     22 H1         0.8546    2.5466    7.3628 H         1 RES1    0.0000
     23 H2         1.9170    2.1053   10.5100 H         1 RES1    0.0000
     24 H3         1.3983    0.9814    9.5485 H         1 RES1    0.0000
     25 H4         0.6525    2.3577    9.6193 H         1 RES1    0.0000
     26 H5         3.3181   -0.3752    6.0750 H         1 RES1    0.0000
     27 H6         4.2569   -1.1290    9.1587 H         1 RES1    0.0000
     28 H7         3.8101   -1.7077    7.7728 H         1 RES1    0.0000
     29 H8         2.7769   -0.9513    8.6751 H         1 RES1    0.0000
     30 H9         3.8990    3.2987    4.9793 H         1 RES1    0.0000
     31 H10        1.4124    2.6925    2.7820 H         1 RES1    0.0000
     32 H11        2.5931    3.6645    3.1285 H         1 RES1    0.0000
     33 H12        1.2875    3.6730    3.9990 H         1 RES1    0.0000
@<TRIPOS>BOND
     1    1   16 1
     2    2   18 1
     3    3   20 1
     4    4   11 2
     5    5   11 2
     6    6   13 2
     7    7   13 2
     8    8   15 2
     9    9   15 2
    10   10   11 1
    11   12   13 1
    12   14   15 1
    13   16   10 1
    14   17    1 1
    15   18   12 1
    16   19    2 1
    17   20   10 1
    18   21    3 1
    19   22   16 1
    20   23   17 1
    21   24   17 1
    22   25   17 1
    23   26   18 1
    24   27   19 1
    25   28   19 1
    26   29   19 1
    27   30   20 1
    28   31   21 1
    29   32   21 1
    30   33   21 1
    31   12   16 1
    32   14   20 1
    33   14   18 1
@<TRIPOS>SUBSTRUCTURE
     1 RES1 1

@<TRIPOS>CRYSIN
  20.8483    8.5859   14.4404  90.0000  91.2670  90.0000  15 1

