# MOL2 file generated by ConQuest
# Please check atom types

@<TRIPOS>MOLECULE
XEXYII
    33    33     1
SMALL
NO_CHARGES
****
Generated from CSD

@<TRIPOS>ATOM
      1 O1         1.0158    2.6117   10.3244 O.3       1 RES1    0.0000
      2 O2        -0.9380    1.8373   12.4506 O.3       1 RES1    0.0000
      3 O3        -0.7563    0.0606   10.0166 O.3       1 RES1    0.0000
      4 O4         3.5470    1.8811   13.0007 O.2       1 RES1    0.0000
      5 O5         2.2422    0.8130   14.3523 O.2       1 RES1    0.0000
      6 O6        -1.2276   -0.8526   13.9356 O.2       1 RES1    0.0000
      7 O7        -0.9167   -2.2253   12.2775 O.2       1 RES1    0.0000
      8 O8         1.8797   -1.1076    8.8881 O.2       1 RES1    0.0000
      9 O9         3.0064    0.7449    8.9664 O.2       1 RES1    0.0000
     10 N1         1.3920    1.6850   12.4531 N.3       1 RES1    0.0000
     11 N2         0.0575   -0.2298   12.2339 N.3       1 RES1    0.0000
     12 N3         1.4780    0.3493   10.5155 N.3       1 RES1    0.0000
     13 N4         2.4765    1.4232   13.3303 N.pl3     1 RES1    0.0000
     14 N5        -0.7634   -1.1649   12.8494 N.pl3     1 RES1    0.0000
     15 N6         2.1659   -0.0286    9.3716 N.pl3     1 RES1    0.0000
     16 C1         1.7537    1.6766   11.0259 C.3       1 RES1    0.0000
     17 C2         0.1314    1.0655   12.8609 C.3       1 RES1    0.0000
     18 C3         0.2744   -0.4090   10.8002 C.3       1 RES1    0.0000
     19 C4         1.4485    3.9541   10.5873 C.3       1 RES1    0.0000
     20 C5        -1.1947    2.9265   13.3316 C.3       1 RES1    0.0000
     21 C6        -1.6717   -0.8787    9.5242 C.3       1 RES1    0.0000
     22 H1         2.7084    1.8727   10.9284 H         1 RES1    0.0000
     23 H2         0.1116    0.9629   13.8355 H         1 RES1    0.0000
     24 H3         0.4736   -1.3214   10.6283 H         1 RES1    0.0000
     25 H4         0.9760    4.5618   10.0128 H         1 RES1    0.0000
     26 H5         2.3915    4.0248   10.4219 H         1 RES1    0.0000
     27 H6         1.2685    4.1746   11.5042 H         1 RES1    0.0000
     28 H7        -2.0254    3.3439   13.0905 H         1 RES1    0.0000
     29 H8        -0.4827    3.5678   13.2636 H         1 RES1    0.0000
     30 H9        -1.2490    2.6033   14.2331 H         1 RES1    0.0000
     31 H10       -2.2041   -0.4747    8.8343 H         1 RES1    0.0000
     32 H11       -2.2422   -1.1741   10.2372 H         1 RES1    0.0000
     33 H12       -1.1958   -1.6295    9.1626 H         1 RES1    0.0000
@<TRIPOS>BOND
     1    1   16 1
     2    2   17 1
     3    3   18 1
     4    4   13 2
     5    5   13 2
     6    6   14 2
     7    7   14 2
     8    8   15 2
     9    9   15 2
    10   10   13 1
    11   11   14 1
    12   12   15 1
    13   16   10 1
    14   17   10 1
    15   18   11 1
    16   19    1 1
    17   20    2 1
    18   21    3 1
    19   22   16 1
    20   23   17 1
    21   24   18 1
    22   25   19 1
    23   26   19 1
    24   27   19 1
    25   28   20 1
    26   29   20 1
    27   30   20 1
    28   31   21 1
    29   32   21 1
    30   33   21 1
    31   11   17 1
    32   12   18 1
    33   12   16 1
@<TRIPOS>SUBSTRUCTURE
     1 RES1 1

@<TRIPOS>CRYSIN
  11.8840    8.4166   13.1083  90.0000 101.9600  90.0000  14 1

