# MOL2 file generated by ConQuest
# Please check atom types

@<TRIPOS>MOLECULE
XEYVON
    29    30     1
SMALL
NO_CHARGES
****
Generated from CSD

@<TRIPOS>ATOM
      1 N1         5.9248   -2.7514    1.3220 N.pl3     1 RES1    0.0000
      2 N2         2.1819    1.0990    3.0200 N.am      1 RES1    0.0000
      3 O1         6.7679   -3.1432    2.1216 O.2       1 RES1    0.0000
      4 O2         5.8924   -3.0793    0.1420 O.2       1 RES1    0.0000
      5 O3         1.7150   -0.3414    0.7642 O.3       1 RES1    0.0000
      6 O4         0.7820    3.0541    4.3086 O.3       1 RES1    0.0000
      7 O5         0.6175   -0.4183    3.6559 O.2       1 RES1    0.0000
      8 O6         3.6219    2.6874    2.2525 O.2       1 RES1    0.0000
      9 C1         4.8991   -1.8093    1.8098 C.ar      1 RES1    0.0000
     10 C2         3.7825   -1.6009    1.0112 C.ar      1 RES1    0.0000
     11 H1         3.6587   -2.0849    0.2029 H         1 RES1    0.0000
     12 C3         2.8487   -0.6560    1.4366 C.ar      1 RES1    0.0000
     13 C4         3.0903    0.0488    2.6242 C.ar      1 RES1    0.0000
     14 C5         4.1986   -0.2080    3.4049 C.ar      1 RES1    0.0000
     15 H2         4.3267    0.2676    4.2176 H         1 RES1    0.0000
     16 C6         5.1291   -1.1633    3.0043 C.ar      1 RES1    0.0000
     17 H3         5.8922   -1.3615    3.5344 H         1 RES1    0.0000
     18 C7         0.9416    0.7402    3.5511 C.2       1 RES1    0.0000
     19 C8         0.0490    1.8878    3.9836 C.3       1 RES1    0.0000
     20 H4        -0.5854    2.0972    3.2531 H         1 RES1    0.0000
     21 H5        -0.4792    1.6073    4.7724 H         1 RES1    0.0000
     22 C9         1.5754    3.4812    3.2113 C.3       1 RES1    0.0000
     23 H6         2.0606    4.3065    3.4629 H         1 RES1    0.0000
     24 H7         0.9847    3.6966    2.4465 H         1 RES1    0.0000
     25 C10        2.5747    2.4270    2.7858 C.2       1 RES1    0.0000
     26 C11        1.3687   -1.1746   -0.3575 C.3       1 RES1    0.0000
     27 H8         2.0795   -1.1278   -1.0311 H         1 RES1    0.0000
     28 H9         0.5262   -0.8617   -0.7488 H         1 RES1    0.0000
     29 H10        1.2646   -2.1015   -0.0559 H         1 RES1    0.0000
@<TRIPOS>BOND
     1    1    3 2
     2    2   13 1
     3    4    1 2
     4    5   12 1
     5    6   19 1
     6    7   18 2
     7    8   25 2
     8    9    1 1
     9   10    9 ar
    10   11   10 1
    11   12   10 ar
    12   13   12 ar
    13   14   13 ar
    14   15   14 1
    15   16    9 ar
    16   17   16 1
    17   18    2 1
    18   19   18 1
    19   20   19 1
    20   21   19 1
    21   22    6 1
    22   23   22 1
    23   24   22 1
    24   25    2 1
    25   26    5 1
    26   27   26 1
    27   28   26 1
    28   29   26 1
    29   14   16 ar
    30   22   25 1
@<TRIPOS>SUBSTRUCTURE
     1 RES1 1

@<TRIPOS>CRYSIN
   7.5260    7.5540   10.2590 100.4600 102.5390  94.7320   2 1

