# MOL2 file generated by ConQuest
# Please check atom types

@<TRIPOS>MOLECULE
XIBCOC
    56    58     1
SMALL
NO_CHARGES
****
Generated from CSD

@<TRIPOS>ATOM
      1 N1         3.1430    1.8644    3.1901 N.am      1 RES1    0.0000
      2 N2         5.6681    2.3298    5.6432 N.pl3     1 RES1    0.0000
      3 O1         5.0159    3.1201    2.7662 O.2       1 RES1    0.0000
      4 O2         5.8209    1.8262    6.8065 O.2       1 RES1    0.0000
      5 O3        14.4210    5.5464    7.6579 O.3       1 RES1    0.0000
      6 O4         8.3408    4.9424    3.2349 O.2       1 RES1    0.0000
      7 O5         8.8601    6.3296    4.8927 O.3       1 RES1    0.0000
      8 C1         4.3354    2.4622    3.5262 C.2       1 RES1    0.0000
      9 C2         4.5665    2.0854    4.9428 C.2       1 RES1    0.0000
     10 C3         3.4524    1.2931    5.3787 C.ar      1 RES1    0.0000
     11 C4         2.6100    1.1636    4.2715 C.ar      1 RES1    0.0000
     12 C5         1.4607    0.4145    4.3231 C.ar      1 RES1    0.0000
     13 H1         0.9145    0.3148    3.5769 H         1 RES1    0.0000
     14 C6         1.1488   -0.1877    5.5259 C.ar      1 RES1    0.0000
     15 H2         0.3778   -0.7032    5.5850 H         1 RES1    0.0000
     16 C7         1.9410   -0.0480    6.6364 C.ar      1 RES1    0.0000
     17 H3         1.6906   -0.4531    7.4350 H         1 RES1    0.0000
     18 C8         3.1082    0.6932    6.5790 C.ar      1 RES1    0.0000
     19 H4         3.6502    0.7855    7.3302 H         1 RES1    0.0000
     20 C9         6.7037    3.1492    5.1166 C.2       1 RES1    0.0000
     21 H5         6.5493    3.6570    4.3538 H         1 RES1    0.0000
     22 C10        7.8873    3.1901    5.7089 C.2       1 RES1    0.0000
     23 H6         8.0242    2.6126    6.4260 H         1 RES1    0.0000
     24 C11        8.9870    4.0536    5.3379 C.2       1 RES1    0.0000
     25 C12       10.1891    3.8971    5.9110 C.2       1 RES1    0.0000
     26 H7        10.2468    3.2010    6.5249 H         1 RES1    0.0000
     27 C13       11.4246    4.6588    5.7131 C.ar      1 RES1    0.0000
     28 C14       11.7510    5.2922    4.5260 C.ar      1 RES1    0.0000
     29 H8        11.1786    5.2369    3.7948 H         1 RES1    0.0000
     30 C15       12.9333    6.0095    4.4304 C.ar      1 RES1    0.0000
     31 H9        13.1425    6.4461    3.6360 H         1 RES1    0.0000
     32 C16       13.7959    6.0851    5.4868 C.ar      1 RES1    0.0000
     33 H10       14.5815    6.5756    5.4111 H         1 RES1    0.0000
     34 C17       13.5009    5.4314    6.6689 C.ar      1 RES1    0.0000
     35 C18       12.3234    4.7100    6.7695 C.ar      1 RES1    0.0000
     36 H11       12.1323    4.2543    7.5564 H         1 RES1    0.0000
     37 C19       14.1835    4.8109    8.8599 C.3       1 RES1    0.0000
     38 H12       13.3577    5.1016    9.2550 H         1 RES1    0.0000
     39 H13       14.9038    4.9633    9.4763 H         1 RES1    0.0000
     40 H14       14.1299    3.8747    8.6569 H         1 RES1    0.0000
     41 C20        2.6329    1.8212    1.8201 C.3       1 RES1    0.0000
     42 H15        3.2931    2.2125    1.2261 H         1 RES1    0.0000
     43 H16        2.5134    0.8944    1.5580 H         1 RES1    0.0000
     44 C21        1.3684    2.5276    1.6520 C.2       1 RES1    0.0000
     45 H17        1.2770    3.3511    2.0738 H         1 RES1    0.0000
     46 C22        0.3619    2.0948    0.9599 C.2       1 RES1    0.0000
     47 H18        0.4150    1.2739    0.5241 H         1 RES1    0.0000
     48 H19       -0.4140    2.6038    0.8992 H         1 RES1    0.0000
     49 C23        8.6926    5.1366    4.3588 C.2       1 RES1    0.0000
     50 C24        8.7345    7.4812    3.9995 C.3       1 RES1    0.0000
     51 H20        9.0412    7.2405    3.1111 H         1 RES1    0.0000
     52 H21        7.8029    7.7436    3.9363 H         1 RES1    0.0000
     53 C25        9.5051    8.5700    4.4894 C.3       1 RES1    0.0000
     54 H22        9.2302    8.7792    5.3853 H         1 RES1    0.0000
     55 H23        9.3710    9.3353    3.9271 H         1 RES1    0.0000
     56 H24       10.4348    8.3320    4.4878 H         1 RES1    0.0000
@<TRIPOS>BOND
     1    1    8 1
     2    2    4 1
     3    3    8 2
     4    5   34 1
     5    6   49 2
     6    7   49 1
     7    8    9 1
     8    9    2 2
     9   10    9 1
    10   11    1 1
    11   12   11 ar
    12   13   12 1
    13   14   12 ar
    14   15   14 1
    15   16   14 ar
    16   17   16 1
    17   18   10 ar
    18   19   18 1
    19   20    2 1
    20   21   20 1
    21   22   20 2
    22   23   22 1
    23   24   22 1
    24   25   24 2
    25   26   25 1
    26   27   25 1
    27   28   27 ar
    28   29   28 1
    29   30   28 ar
    30   31   30 1
    31   32   30 ar
    32   33   32 1
    33   34   32 ar
    34   35   27 ar
    35   36   35 1
    36   37    5 1
    37   38   37 1
    38   39   37 1
    39   40   37 1
    40   41    1 1
    41   42   41 1
    42   43   41 1
    43   44   41 1
    44   45   44 1
    45   46   44 2
    46   47   46 1
    47   48   46 1
    48   49   24 1
    49   50    7 1
    50   51   50 1
    51   52   50 1
    52   53   50 1
    53   54   53 1
    54   55   53 1
    55   56   53 1
    56   10   11 ar
    57   16   18 ar
    58   34   35 ar
@<TRIPOS>SUBSTRUCTURE
     1 RES1 1

@<TRIPOS>CRYSIN
   9.0687   29.4210    8.3699  90.0000  96.3600  90.0000  14 1

