# MOL2 file generated by ConQuest
# Please check atom types

@<TRIPOS>MOLECULE
XICBOB
    68    73     1
SMALL
NO_CHARGES
****
Generated from CSD

@<TRIPOS>ATOM
      1 C1        10.0258    7.5115    4.2641 C.2       1 RES1    0.0000
      2 C2        10.8901    6.4730    3.8569 C.2       1 RES1    0.0000
      3 C3        10.8393    6.5087    2.4844 C.2       1 RES1    0.0000
      4 H1        11.2951    5.9447    1.9020 H         1 RES1    0.0000
      5 C4         9.6543    7.9338    0.8201 C.ar      1 RES1    0.0000
      6 C5         8.5231    8.6667    0.6088 C.ar      1 RES1    0.0000
      7 H2         7.9614    8.8819    1.3172 H         1 RES1    0.0000
      8 C6         8.2219    9.0852   -0.6797 C.ar      1 RES1    0.0000
      9 H3         7.4548    9.5907   -0.8248 H         1 RES1    0.0000
     10 C7         9.0207    8.7758   -1.7308 C.ar      1 RES1    0.0000
     11 H4         8.8040    9.0621   -2.5893 H         1 RES1    0.0000
     12 C8        10.1402    8.0430   -1.5132 C.ar      1 RES1    0.0000
     13 H5        10.6897    7.8167   -2.2282 H         1 RES1    0.0000
     14 C9        10.4710    7.6285   -0.2386 C.ar      1 RES1    0.0000
     15 H6        11.2502    7.1400   -0.0964 H         1 RES1    0.0000
     16 C10        9.7487    7.9662    5.6423 C.ar      1 RES1    0.0000
     17 C11        9.3629    7.0857    6.6439 C.ar      1 RES1    0.0000
     18 H7         9.2378    6.1869    6.4425 H         1 RES1    0.0000
     19 C12        9.1619    7.5316    7.9412 C.ar      1 RES1    0.0000
     20 H8         8.9030    6.9338    8.6050 H         1 RES1    0.0000
     21 C13        9.3484    8.8675    8.2461 C.ar      1 RES1    0.0000
     22 C14        9.7205    9.7542    7.2549 C.ar      1 RES1    0.0000
     23 H9         9.8361   10.6549    7.4560 H         1 RES1    0.0000
     24 C15        9.9204    9.3082    5.9724 C.ar      1 RES1    0.0000
     25 H10       10.1750    9.9121    5.3119 H         1 RES1    0.0000
     26 C16        9.2053    8.5796   10.6081 C.3       1 RES1    0.0000
     27 H11       10.0289    8.0650   10.6095 H         1 RES1    0.0000
     28 H12        8.4581    7.9629   10.5890 H         1 RES1    0.0000
     29 C17        9.1329    9.4396   11.8287 C.3       1 RES1    0.0000
     30 H13        9.8330   10.0953   11.7995 H         1 RES1    0.0000
     31 H14        9.2371    8.8940   12.6120 H         1 RES1    0.0000
     32 H15        8.2815    9.8821   11.8590 H         1 RES1    0.0000
     33 C18       11.7288    5.6221    4.7582 C.3       1 RES1    0.0000
     34 H16       11.5121    5.8415    5.6874 H         1 RES1    0.0000
     35 C19       11.5587    4.1197    4.5579 C.3       1 RES1    0.0000
     36 H17       10.7403    3.9314    4.0522 H         1 RES1    0.0000
     37 C20       12.8156    3.6915    3.7393 C.3       1 RES1    0.0000
     38 H18       13.4254    3.1906    4.3210 H         1 RES1    0.0000
     39 C21       12.5407    2.8880    2.4943 C.ar      1 RES1    0.0000
     40 C22       12.2414    1.5417    2.6186 C.ar      1 RES1    0.0000
     41 H19       12.2269    1.1473    3.4613 H         1 RES1    0.0000
     42 C23       11.9629    0.7809    1.4976 C.ar      1 RES1    0.0000
     43 H20       11.7539   -0.1201    1.5921 H         1 RES1    0.0000
     44 C24       11.9948    1.3435    0.2524 C.ar      1 RES1    0.0000
     45 H21       11.8062    0.8279   -0.4986 H         1 RES1    0.0000
     46 C25       12.3059    2.6690    0.1163 C.ar      1 RES1    0.0000
     47 H22       12.3311    3.0544   -0.7304 H         1 RES1    0.0000
     48 C26       12.5840    3.4429    1.2351 C.ar      1 RES1    0.0000
     49 H23       12.8014    4.3419    1.1326 H         1 RES1    0.0000
     50 C27       13.7791    7.0119    4.4141 C.ar      1 RES1    0.0000
     51 C28       14.8686    7.1893    3.5762 C.ar      1 RES1    0.0000
     52 H24       15.1793    6.4823    3.0591 H         1 RES1    0.0000
     53 C29       15.4914    8.4254    3.5142 C.ar      1 RES1    0.0000
     54 H25       16.2195    8.5456    2.9483 H         1 RES1    0.0000
     55 C30       15.0472    9.4736    4.2781 C.ar      1 RES1    0.0000
     56 H26       15.4667   10.3025    4.2245 H         1 RES1    0.0000
     57 C31       13.9782    9.2931    5.1238 C.ar      1 RES1    0.0000
     58 H27       13.6815   10.0002    5.6505 H         1 RES1    0.0000
     59 C32       13.3391    8.0679    5.1985 C.ar      1 RES1    0.0000
     60 H28       12.6162    7.9529    5.7736 H         1 RES1    0.0000
     61 N1        10.0075    7.5114    2.1350 N.pl3     1 RES1    0.0000
     62 N2         9.4919    8.1458    3.2223 N.2       1 RES1    0.0000
     63 N3        13.1918    5.7343    4.5733 N.3       1 RES1    0.0000
     64 N4        11.5595    3.3595    5.8667 N.pl3     1 RES1    0.0000
     65 O1         9.1656    9.4230    9.4842 O.3       1 RES1    0.0000
     66 O2        11.6322    3.9438    6.9187 O.2       1 RES1    0.0000
     67 O3        11.4970    2.1542    5.7787 O.2       1 RES1    0.0000
     68 O4        13.4181    4.9324    3.3839 O.3       1 RES1    0.0000
@<TRIPOS>BOND
     1    1    2 1
     2    2    3 2
     3    3    4 1
     4    5    6 ar
     5    6    7 1
     6    8    6 ar
     7    9    8 1
     8   10    8 ar
     9   11   10 1
    10   12   10 ar
    11   13   12 1
    12   14    5 ar
    13   15   14 1
    14   16    1 1
    15   17   16 ar
    16   18   17 1
    17   19   17 ar
    18   20   19 1
    19   21   19 ar
    20   22   21 ar
    21   23   22 1
    22   24   16 ar
    23   25   24 1
    24   26   27 1
    25   28   26 1
    26   29   26 1
    27   30   29 1
    28   31   29 1
    29   32   29 1
    30   33    2 1
    31   34   33 1
    32   35   33 1
    33   36   35 1
    34   37   35 1
    35   38   37 1
    36   39   37 1
    37   40   39 ar
    38   41   40 1
    39   42   40 ar
    40   43   42 1
    41   44   42 ar
    42   45   44 1
    43   46   44 ar
    44   47   46 1
    45   48   39 ar
    46   49   48 1
    47   50   51 ar
    48   51   52 1
    49   53   51 ar
    50   54   53 1
    51   55   53 ar
    52   56   55 1
    53   57   55 ar
    54   58   57 1
    55   59   50 ar
    56   60   59 1
    57   61    3 1
    58   62    1 2
    59   63   33 1
    60   64   35 1
    61   65   21 1
    62   66   64 2
    63   67   64 2
    64   68   37 1
    65    5   61 1
    66   12   14 ar
    67   22   24 ar
    68   26   65 1
    69   46   48 ar
    70   50   63 1
    71   57   59 ar
    72   61   62 1
    73   63   68 1
@<TRIPOS>SUBSTRUCTURE
     1 RES1 1

@<TRIPOS>CRYSIN
  13.2463   10.0112   20.9518  90.0000 101.6880  90.0000 231 1

