# MOL2 file generated by ConQuest
# Please check atom types

@<TRIPOS>MOLECULE
XICFIZ
    87    93     1
SMALL
NO_CHARGES
****
Generated from CSD

@<TRIPOS>ATOM
      1 C1         5.3764    3.4928    5.4626 C.3       1 RES1    0.0000
      2 C2         4.1565    2.4921    5.7734 C.3       1 RES1    0.0000
      3 H1         4.5374    1.6595    6.1193 H         1 RES1    0.0000
      4 C3         3.4105    3.1727    6.9230 C.3       1 RES1    0.0000
      5 H2         2.4442    3.1623    6.7628 H         1 RES1    0.0000
      6 C4         3.9563    4.6335    6.9143 C.3       1 RES1    0.0000
      7 H3         3.4984    5.1032    6.1849 H         1 RES1    0.0000
      8 C5         5.2873    4.1638    4.0845 C.3       1 RES1    0.0000
      9 H4         5.1942    3.4793    3.4024 H         1 RES1    0.0000
     10 H5         4.4970    4.7257    4.0538 H         1 RES1    0.0000
     11 C6         6.5034    5.0028    3.7824 C.2       1 RES1    0.0000
     12 C7         6.8814    6.1644    4.3874 C.2       1 RES1    0.0000
     13 H6         6.4011    6.5953    5.0555 H         1 RES1    0.0000
     14 C8         8.4898    5.7385    2.9217 C.ar      1 RES1    0.0000
     15 C9         9.6482    5.7175    2.1381 C.ar      1 RES1    0.0000
     16 H7        10.2919    6.3817    2.2213 H         1 RES1    0.0000
     17 C10        9.8108    4.6922    1.2477 C.ar      1 RES1    0.0000
     18 H8        10.5713    4.6687    0.7127 H         1 RES1    0.0000
     19 C11        8.8607    3.6816    1.1242 C.ar      1 RES1    0.0000
     20 H9         8.9964    2.9985    0.5069 H         1 RES1    0.0000
     21 C12        7.7235    3.6780    1.9026 C.ar      1 RES1    0.0000
     22 H10        7.0935    2.9985    1.8115 H         1 RES1    0.0000
     23 C13        7.5254    4.7019    2.8289 C.ar      1 RES1    0.0000
     24 C14        6.7084    2.7471    5.5799 C.2       1 RES1    0.0000
     25 C15        8.1849    1.2489    4.5398 C.3       1 RES1    0.0000
     26 H11        8.8735    1.9124    4.3822 H         1 RES1    0.0000
     27 H12        8.3711    0.8155    5.3873 H         1 RES1    0.0000
     28 C16        8.1919    0.2763    3.4795 C.3       1 RES1    0.0000
     29 H13        7.5685   -0.4238    3.6835 H         1 RES1    0.0000
     30 H14        9.0726   -0.0962    3.3910 H         1 RES1    0.0000
     31 H15        7.9396    0.7016    2.6556 H         1 RES1    0.0000
     32 C17        3.2764    2.1392    4.5905 C.ar      1 RES1    0.0000
     33 C18        3.5839    1.0221    3.8332 C.ar      1 RES1    0.0000
     34 H16        4.3243    0.5057    4.0556 H         1 RES1    0.0000
     35 C19        2.8050    0.6659    2.7501 C.ar      1 RES1    0.0000
     36 H17        3.0387   -0.0819    2.2511 H         1 RES1    0.0000
     37 C20        1.6876    1.3917    2.3876 C.ar      1 RES1    0.0000
     38 C21        1.3795    2.5010    3.1485 C.ar      1 RES1    0.0000
     39 H18        0.6278    3.0057    2.9331 H         1 RES1    0.0000
     40 C22        2.1632    2.8792    4.2237 C.ar      1 RES1    0.0000
     41 H19        1.9399    3.6395    4.7079 H         1 RES1    0.0000
     42 C23        0.8363    0.9662    1.2013 C.3       1 RES1    0.0000
     43 H20        1.3958    0.8654    0.4273 H         1 RES1    0.0000
     44 H21        0.1708    1.6346    1.0288 H         1 RES1    0.0000
     45 H22        0.4079    0.1318    1.3983 H         1 RES1    0.0000
     46 C24        3.7664    5.4721    8.1593 C.3       1 RES1    0.0000
     47 H23        4.2167    5.0854    8.9394 H         1 RES1    0.0000
     48 C25        2.2981    5.9458    8.4859 C.3       1 RES1    0.0000
     49 H24        2.0790    5.7976    9.4297 H         1 RES1    0.0000
     50 C26        1.1596    5.5270    7.5858 C.ar      1 RES1    0.0000
     51 C27        0.9515    6.1595    6.3618 C.ar      1 RES1    0.0000
     52 H25        1.5091    6.8589    6.1017 H         1 RES1    0.0000
     53 C28       -0.0820    5.7528    5.5265 C.ar      1 RES1    0.0000
     54 H26       -0.2147    6.1858    4.7149 H         1 RES1    0.0000
     55 C29       -0.8990    4.7307    5.8794 C.ar      1 RES1    0.0000
     56 H27       -1.5828    4.4586    5.3094 H         1 RES1    0.0000
     57 C30       -0.7101    4.0940    7.0902 C.ar      1 RES1    0.0000
     58 H28       -1.2669    3.3938    7.3398 H         1 RES1    0.0000
     59 C31        0.3128    4.5042    7.9352 C.ar      1 RES1    0.0000
     60 H29        0.4263    4.0776    8.7538 H         1 RES1    0.0000
     61 C32        2.8482    7.3485    8.2626 C.2       1 RES1    0.0000
     62 C33        5.3115    7.6000    7.7338 C.ar      1 RES1    0.0000
     63 C34        5.2727    8.8076    7.0570 C.ar      1 RES1    0.0000
     64 H30        4.4622    9.1452    6.7514 H         1 RES1    0.0000
     65 C35        6.4279    9.4981    6.8407 C.ar      1 RES1    0.0000
     66 H31        6.3963   10.3061    6.3837 H         1 RES1    0.0000
     67 C36        7.6617    9.0127    7.2925 C.ar      1 RES1    0.0000
     68 C37        7.6878    7.7848    7.9185 C.ar      1 RES1    0.0000
     69 H32        8.4981    7.4215    8.1926 H         1 RES1    0.0000
     70 C38        6.5161    7.0918    8.1392 C.ar      1 RES1    0.0000
     71 H33        6.5442    6.2677    8.5708 H         1 RES1    0.0000
     72 C39       10.0481    9.1772    7.1113 C.3       1 RES1    0.0000
     73 H34       10.2856    9.0205    8.0280 H         1 RES1    0.0000
     74 H35       10.7008    9.7506    6.7050 H         1 RES1    0.0000
     75 H36       10.0233    8.3403    6.6411 H         1 RES1    0.0000
     76 N1         5.3466    4.5003    6.5176 N.3       1 RES1    0.0000
     77 H37        6.0178    4.9287    6.8398 H         1 RES1    0.0000
     78 N2         8.0718    6.6035    3.8691 N.pl3     1 RES1    0.0000
     79 H38        8.4878    7.3183    4.1099 H         1 RES1    0.0000
     80 N3         3.7382    2.5431    8.2574 N.pl3     1 RES1    0.0000
     81 N4         4.0933    6.9002    7.9693 N.am      1 RES1    0.0000
     82 O1         7.4966    2.9077    6.4721 O.2       1 RES1    0.0000
     83 O2         6.8715    1.8956    4.5905 O.3       1 RES1    0.0000
     84 O3         4.7772    1.9177    8.3817 O.2       1 RES1    0.0000
     85 O4         2.9701    2.7300    9.1697 O.2       1 RES1    0.0000
     86 O5         2.3821    8.4618    8.2994 O.2       1 RES1    0.0000
     87 O6         8.7639    9.7951    7.0500 O.3       1 RES1    0.0000
@<TRIPOS>BOND
     1    1    2 1
     2    2    3 1
     3    4    2 1
     4    5    4 1
     5    6    4 1
     6    7    6 1
     7    8    1 1
     8    9    8 1
     9   10    8 1
    10   11    8 1
    11   12   11 2
    12   13   12 1
    13   14   15 ar
    14   15   16 1
    15   17   15 ar
    16   18   17 1
    17   19   17 ar
    18   20   19 1
    19   21   19 ar
    20   22   21 1
    21   23   11 1
    22   24    1 1
    23   25   26 1
    24   27   25 1
    25   28   25 1
    26   29   28 1
    27   30   28 1
    28   31   28 1
    29   32    2 1
    30   33   32 ar
    31   34   33 1
    32   35   33 ar
    33   36   35 1
    34   37   35 ar
    35   38   37 ar
    36   39   38 1
    37   40   32 ar
    38   41   40 1
    39   42   37 1
    40   43   42 1
    41   44   42 1
    42   45   42 1
    43   46    6 1
    44   47   46 1
    45   48   46 1
    46   49   48 1
    47   50   48 1
    48   51   50 ar
    49   52   51 1
    50   53   51 ar
    51   54   53 1
    52   55   53 ar
    53   56   55 1
    54   57   55 ar
    55   58   57 1
    56   59   50 ar
    57   60   59 1
    58   61   48 1
    59   62   63 ar
    60   63   64 1
    61   65   63 ar
    62   66   65 1
    63   67   65 ar
    64   68   67 ar
    65   69   68 1
    66   70   62 ar
    67   71   70 1
    68   72   73 1
    69   74   72 1
    70   75   72 1
    71   76    1 1
    72   77   76 1
    73   78   12 1
    74   79   78 1
    75   80    4 1
    76   81   46 1
    77   82   24 2
    78   83   24 1
    79   84   80 2
    80   85   80 2
    81   86   61 2
    82   87   67 1
    83    6   76 1
    84   14   23 ar
    85   14   78 1
    86   21   23 ar
    87   25   83 1
    88   38   40 ar
    89   57   59 ar
    90   61   81 1
    91   62   81 1
    92   68   70 ar
    93   72   87 1
@<TRIPOS>SUBSTRUCTURE
     1 RES1 1

@<TRIPOS>CRYSIN
  11.2689   35.6120    8.8848  90.0000  99.7850  90.0000   9 1

