# MOL2 file generated by ConQuest
# Please check atom types

@<TRIPOS>MOLECULE
XICJOJ
    41    43     1
SMALL
NO_CHARGES
****
Generated from CSD

@<TRIPOS>ATOM
      1 C1        10.2916    1.0249   -1.3738 C.ar      1 RES1    0.0000
      2 C2        11.0382    1.5405   -2.4210 C.ar      1 RES1    0.0000
      3 H1        10.8049    1.3667   -3.3050 H         1 RES1    0.0000
      4 C3        12.1355    2.3167   -2.1199 C.ar      1 RES1    0.0000
      5 H2        12.6455    2.6831   -2.8061 H         1 RES1    0.0000
      6 C4        12.4801    2.5519   -0.8101 C.ar      1 RES1    0.0000
      7 H3        13.2266    3.0696   -0.6129 H         1 RES1    0.0000
      8 C5        11.7190    2.0203    0.2132 C.ar      1 RES1    0.0000
      9 H4        11.9630    2.1833    1.0958 H         1 RES1    0.0000
     10 C6        10.5920    1.2442   -0.0533 C.ar      1 RES1    0.0000
     11 C7         9.7182    0.7098    1.0627 C.3       1 RES1    0.0000
     12 H5        10.2824    0.1534    1.6397 H         1 RES1    0.0000
     13 C8         8.6333   -0.1696    0.5084 C.2       1 RES1    0.0000
     14 C9         8.4001   -0.3245   -0.8601 C.2       1 RES1    0.0000
     15 C10        7.3126   -1.2216   -2.8593 C.3       1 RES1    0.0000
     16 H6         7.3363   -0.3714   -3.3050 H         1 RES1    0.0000
     17 H7         6.4759   -1.6551   -3.0435 H         1 RES1    0.0000
     18 H8         8.0341   -1.7692   -3.1767 H         1 RES1    0.0000
     19 C11        9.2179    1.8808    1.9022 C.ar      1 RES1    0.0000
     20 C12        9.7215    2.0894    3.1825 C.ar      1 RES1    0.0000
     21 H9        10.2815    1.4514    3.5617 H         1 RES1    0.0000
     22 C13        9.4037    3.2281    3.9035 C.ar      1 RES1    0.0000
     23 H10        9.7602    3.3555    4.7522 H         1 RES1    0.0000
     24 C14        8.5673    4.1621    3.3668 C.ar      1 RES1    0.0000
     25 H11        8.3670    4.9343    3.8441 H         1 RES1    0.0000
     26 C15        8.0179    3.9657    2.1199 C.ar      1 RES1    0.0000
     27 H12        7.4292    4.5914    1.7616 H         1 RES1    0.0000
     28 C16        8.3485    2.8309    1.4058 C.ar      1 RES1    0.0000
     29 C17        7.8889    3.4403   -0.8601 C.2       1 RES1    0.0000
     30 C18        7.0250    3.0386   -2.0002 C.3       1 RES1    0.0000
     31 H13        6.9628    3.7638   -2.6248 H         1 RES1    0.0000
     32 H14        6.1481    2.8189   -1.6750 H         1 RES1    0.0000
     33 H15        7.4068    2.2722   -2.4355 H         1 RES1    0.0000
     34 N1         7.4486   -1.0227   -1.4289 N.3       1 RES1    0.0000
     35 H16        6.8627   -1.3893   -0.9177 H         1 RES1    0.0000
     36 N2         7.8521   -0.8267    1.4224 N.pl3     1 RES1    0.0000
     37 O1         9.1877    0.2734   -1.7651 O.3       1 RES1    0.0000
     38 O2         6.8439   -1.5021    1.0449 O.2       1 RES1    0.0000
     39 O3         8.1296   -0.7443    2.6346 O.2       1 RES1    0.0000
     40 O4         7.7283    2.5703    0.1779 O.3       1 RES1    0.0000
     41 O5         8.6312    4.3649   -0.8255 O.2       1 RES1    0.0000
@<TRIPOS>BOND
     1    1    2 ar
     2    2    3 1
     3    4    2 ar
     4    5    4 1
     5    6    4 ar
     6    7    6 1
     7    8    6 ar
     8    9    8 1
     9   10    1 ar
    10   11   10 1
    11   12   11 1
    12   13   11 1
    13   14   13 2
    14   15   16 1
    15   17   15 1
    16   18   15 1
    17   19   11 1
    18   20   19 ar
    19   21   20 1
    20   22   20 ar
    21   23   22 1
    22   24   22 ar
    23   25   24 1
    24   26   24 ar
    25   27   26 1
    26   28   19 ar
    27   29   30 1
    28   30   31 1
    29   32   30 1
    30   33   30 1
    31   34   14 1
    32   35   34 1
    33   36   13 1
    34   37    1 1
    35   38   36 2
    36   39   36 2
    37   40   28 1
    38   41   29 2
    39    8   10 ar
    40   14   37 1
    41   15   34 1
    42   26   28 ar
    43   29   40 1
@<TRIPOS>SUBSTRUCTURE
     1 RES1 1

@<TRIPOS>CRYSIN
  23.7412    8.3846   16.1457  90.0000  96.4400  90.0000  15 1

