# MOL2 file generated by ConQuest
# Please check atom types

@<TRIPOS>MOLECULE
XICQAB
    43    39     2
SMALL
NO_CHARGES
****
Generated from CSD

@<TRIPOS>ATOM
      1 O1         3.0996    2.3560   10.5534 O.2       1 RES1    0.0000
      2 O2         1.6269    0.6191    8.2714 O.3       1 RES1    0.0000
      3 O3         1.5226    2.9992    9.2485 O.3       1 RES1    0.0000
      4 N1         1.2419   -0.5290    9.0351 N.3       1 RES1    0.0000
      5 C1         1.9818    2.2012   10.2043 C.2       1 RES1    0.0000
      6 C2         1.0628    1.2306   10.8263 C.3       1 RES1    0.0000
      7 C3         1.4066   -0.1751   10.4345 C.3       1 RES1    0.0000
      8 C4         0.6517   -1.1672   11.2760 C.3       1 RES1    0.0000
      9 C5        -0.7682   -1.2078   10.8720 C.3       1 RES1    0.0000
     10 C6        -0.8738   -1.6772    9.4757 C.3       1 RES1    0.0000
     11 C7        -0.0586   -0.8729    8.5001 C.3       1 RES1    0.0000
     12 C8         0.1478   -1.6531    7.2119 C.3       1 RES1    0.0000
     13 C9        -1.1074   -1.3245    6.3781 C.3       1 RES1    0.0000
     14 C10       -1.4054    0.0546    6.7455 C.3       1 RES1    0.0000
     15 C11       -0.4812   -0.9350    6.1860 Du        2 SUP2    0.0000
     16 C12       -0.6882    0.4022    8.0214 C.3       1 RES1    0.0000
     17 C13        0.4569    1.3271    7.8598 C.3       1 RES1    0.0000
     18 C14        0.3345    2.6452    8.5946 C.3       1 RES1    0.0000
     19 H1         0.1531    1.4273   10.5534 H         1 RES1    0.0000
     20 H2         1.1103    1.3169   11.7912 H         1 RES1    0.0000
     21 H3         2.3563   -0.2981   10.6434 H         1 RES1    0.0000
     22 H4         1.0448   -2.0477   11.1723 H         1 RES1    0.0000
     23 H5         0.7161   -0.9160   12.2120 H         1 RES1    0.0000
     24 H6        -1.1573   -0.3235   10.9513 H         1 RES1    0.0000
     25 H7        -1.2576   -1.8079   11.4574 H         1 RES1    0.0000
     26 H8        -1.8049   -1.6455    9.2059 H         1 RES1    0.0000
     27 H9        -0.5868   -2.6021    9.4345 H         1 RES1    0.0000
     28 H10        0.2087   -2.6046    7.3872 H         1 RES1    0.0000
     29 H11        0.9538   -1.3639    6.7546 H         1 RES1    0.0000
     30 H12       -0.9236   -1.4006    5.4284 H         1 RES1    0.0000
     31 H13       -1.8409   -1.9145    6.6083 H         1 RES1    0.0000
     32 H14       -2.3621    0.1611    6.8674 H         1 RES1    0.0000
     33 H15       -1.1219    0.6521    6.0366 H         1 RES1    0.0000
     34 H16        1.0952   -1.7457    7.0229 Du        2 SUP2    0.0000
     35 H17       -0.2389   -2.5387    7.2882 Du        2 SUP2    0.0000
     36 H18       -0.9735   -1.5478    5.6144 Du        2 SUP2    0.0000
     37 H19        0.1838   -0.4872    5.6433 Du        2 SUP2    0.0000
     38 H20       -2.2804   -0.3273    6.9193 Du        2 SUP2    0.0000
     39 H21       -1.4994    0.8259    6.1662 Du        2 SUP2    0.0000
     40 H22       -1.3185    0.7473    8.6876 H         1 RES1    0.0000
     41 H23        0.5485    1.5250    6.9040 H         1 RES1    0.0000
     42 H24        0.0997    3.3418    7.9619 H         1 RES1    0.0000
     43 H25       -0.3815    2.5805    9.2455 H         1 RES1    0.0000
@<TRIPOS>BOND
     1    1    5 2
     2    2    4 1
     3    3    5 1
     4    4    7 1
     5    5    6 1
     6    6    7 1
     7    7    8 1
     8    8    9 1
     9    9   10 1
    10   10   11 1
    11   11    4 1
    12   12   11 1
    13   13   12 1
    14   14   13 1
    15   16   11 1
    16   17    2 1
    17   18    3 1
    18   19    6 1
    19   20    6 1
    20   21    7 1
    21   22    8 1
    22   23    8 1
    23   24    9 1
    24   25    9 1
    25   26   10 1
    26   27   10 1
    27   28   12 1
    28   29   12 1
    29   30   13 1
    30   31   13 1
    31   32   14 1
    32   33   14 1
    33   40   16 1
    34   41   17 1
    35   42   18 1
    36   43   18 1
    37   14   16 1
    38   16   17 1
    39   17   18 1
@<TRIPOS>SUBSTRUCTURE
     1 RES1 1
     2 SUP2 15

@<TRIPOS>CRYSIN
   5.7980   12.6870   15.2440  90.0000  90.0000  90.0000  19 1

