# MOL2 file generated by ConQuest
# Please check atom types

@<TRIPOS>MOLECULE
XICRAC
    60    61     1
SMALL
NO_CHARGES
****
Generated from CSD

@<TRIPOS>ATOM
      1 C1         2.7158    2.7235    7.5929 C.3       1 RES1    0.0000
      2 O1         2.3465    1.4725    7.1146 O.3       1 RES1    0.0000
      3 N1         3.4486    0.6591    7.0009 N.am      1 RES1    0.0000
      4 C2         3.9915    0.2095    8.2512 C.3       1 RES1    0.0000
      5 C3         4.0761    0.6203    5.8312 C.2       1 RES1    0.0000
      6 O2         4.9868   -0.1947    5.6797 O.2       1 RES1    0.0000
      7 C4         3.6319    1.5311    4.7310 C.3       1 RES1    0.0000
      8 C5         4.6938    2.4019    4.1074 C.3       1 RES1    0.0000
      9 C6         4.1038    1.2444    3.3513 C.3       1 RES1    0.0000
     10 C7         3.2705    1.4501    2.1216 C.ar      1 RES1    0.0000
     11 C8         3.3052    0.6159    1.1050 C.ar      1 RES1    0.0000
     12 C9         2.5423    0.7773   -0.0931 C.ar      1 RES1    0.0000
     13 C10        1.7190    1.9145   -0.1358 C.ar      1 RES1    0.0000
     14 C11        1.6570    2.7514    0.8856 C.ar      1 RES1    0.0000
     15 C12        2.4474    2.5682    2.0174 C.ar      1 RES1    0.0000
     16 C13        6.1395    2.4063    4.5794 C.3       1 RES1    0.0000
     17 O3         6.2342    2.8291    5.9275 O.3       1 RES1    0.0000
     18 C14        6.9904    3.1939    3.6544 C.3       1 RES1    0.0000
     19 C15        6.8805    2.7782    2.1989 C.3       1 RES1    0.0000
     20 C16        7.6186    3.6676    1.2502 C.3       1 RES1    0.0000
     21 N2         8.3911    3.1288    4.1106 N.am      1 RES1    0.0000
     22 C17        9.1463    4.2436    4.2400 C.2       1 RES1    0.0000
     23 O4         8.8154    5.4065    4.1090 O.2       1 RES1    0.0000
     24 O5        10.4031    3.8252    4.6173 O.3       1 RES1    0.0000
     25 C18       11.5111    4.8502    4.7136 C.3       1 RES1    0.0000
     26 C19       11.2500    5.8031    5.8470 C.3       1 RES1    0.0000
     27 C20       11.7064    5.4859    3.3813 C.3       1 RES1    0.0000
     28 C21       12.6554    3.8853    5.0309 C.3       1 RES1    0.0000
     29 H1         1.9220    3.2935    7.6703 H         1 RES1    0.0000
     30 H2         3.3533    3.1327    6.9725 H         1 RES1    0.0000
     31 H3         3.1347    2.6256    8.4738 H         1 RES1    0.0000
     32 H4         3.3243    0.3293    8.9584 H         1 RES1    0.0000
     33 H5         4.7927    0.7330    8.4643 H         1 RES1    0.0000
     34 H6         4.2306   -0.7390    8.1849 H         1 RES1    0.0000
     35 H7         2.7177    1.9293    4.8178 H         1 RES1    0.0000
     36 H8         4.3603    3.2951    3.8059 H         1 RES1    0.0000
     37 H9         4.7125    0.4535    3.2913 H         1 RES1    0.0000
     38 H10        3.8699   -0.1444    1.1760 H         1 RES1    0.0000
     39 H11        2.5928    0.1608   -0.8145 H         1 RES1    0.0000
     40 H12        1.1954    2.0830   -0.9108 H         1 RES1    0.0000
     41 H13        1.0662    3.4948    0.8445 H         1 RES1    0.0000
     42 H14        2.4211    3.2038    2.7230 H         1 RES1    0.0000
     43 H15        6.4627    1.4610    4.5431 H         1 RES1    0.0000
     44 H16        5.7494    3.5117    5.8975 H         1 RES1    0.0000
     45 H17        6.7033    4.1495    3.7159 H         1 RES1    0.0000
     46 H18        7.2309    1.8565    2.1042 H         1 RES1    0.0000
     47 H19        5.9240    2.7634    1.9448 H         1 RES1    0.0000
     48 H20        7.4919    3.3455    0.3331 H         1 RES1    0.0000
     49 H21        8.5741    3.6611    1.4696 H         1 RES1    0.0000
     50 H22        7.2727    4.5817    1.3260 H         1 RES1    0.0000
     51 H23        8.7499    2.3286    4.3111 H         1 RES1    0.0000
     52 H24       11.1403    5.2977    6.6805 H         1 RES1    0.0000
     53 H25       10.4327    6.3129    5.6639 H         1 RES1    0.0000
     54 H26       12.0069    6.4190    5.9370 H         1 RES1    0.0000
     55 H27       11.8612    4.7901    2.7088 H         1 RES1    0.0000
     56 H28       12.4805    6.0854    3.4160 H         1 RES1    0.0000
     57 H29       10.9064    5.9989    3.1413 H         1 RES1    0.0000
     58 H30       12.5197    3.4959    5.9212 H         1 RES1    0.0000
     59 H31       13.5059    4.3711    5.0135 H         1 RES1    0.0000
     60 H32       12.6728    3.1710    4.3600 H         1 RES1    0.0000
@<TRIPOS>BOND
     1    1    2 1
     2    2    3 1
     3    3    4 1
     4    4   32 1
     5    5    3 1
     6    6    5 2
     7    7    5 1
     8    8    7 1
     9    9    7 1
    10   10    9 1
    11   11   10 ar
    12   12   11 ar
    13   13   12 ar
    14   14   13 ar
    15   15   10 ar
    16   16    8 1
    17   17   16 1
    18   18   16 1
    19   19   18 1
    20   20   19 1
    21   21   18 1
    22   22   21 1
    23   23   22 2
    24   24   22 1
    25   25   24 1
    26   26   25 1
    27   27   25 1
    28   28   25 1
    29   29    1 1
    30   30    1 1
    31   31    1 1
    32   33    4 1
    33   34    4 1
    34   35    7 1
    35   36    8 1
    36   37    9 1
    37   38   11 1
    38   39   12 1
    39   40   13 1
    40   41   14 1
    41   42   15 1
    42   43   16 1
    43   44   17 1
    44   45   18 1
    45   46   19 1
    46   47   19 1
    47   48   20 1
    48   49   20 1
    49   50   20 1
    50   51   21 1
    51   52   26 1
    52   53   26 1
    53   54   26 1
    54   55   27 1
    55   56   27 1
    56   57   27 1
    57   58   28 1
    58   59   28 1
    59   60   28 1
    60    8    9 1
    61   14   15 ar
@<TRIPOS>SUBSTRUCTURE
     1 RES1 1

@<TRIPOS>CRYSIN
  12.3700    5.4700   15.8000  90.0000  92.4400  90.0000   3 1

