# MOL2 file generated by ConQuest
# Please check atom types

@<TRIPOS>MOLECULE
XIDGIB
    38    38     1
SMALL
NO_CHARGES
****
Generated from CSD

@<TRIPOS>ATOM
      1 O1         2.1867    6.9668    5.3158 O.3       1 RES1    0.0000
      2 N1         2.9898    6.3602    4.3491 N.am      1 RES1    0.0000
      3 C1         4.4313    6.4131    4.5865 C.3       1 RES1    0.0000
      4 H1         4.7475    5.9393    3.8286 H         1 RES1    0.0000
      5 C2         4.9992    7.8415    4.5512 C.3       1 RES1    0.0000
      6 H2         5.9464    7.7450    4.4804 H         1 RES1    0.0000
      7 N2         4.6058    8.5478    3.3324 N.pl3     1 RES1    0.0000
      8 O2         1.2548    6.3389    2.8780 O.2       1 RES1    0.0000
      9 O3         5.3592    8.2356    2.1978 O.3       1 RES1    0.0000
     10 C3         4.7163    8.6414    5.8059 C.3       1 RES1    0.0000
     11 H3         3.7521    8.7618    5.9454 H         1 RES1    0.0000
     12 H4         5.1694    9.4578    5.6758 H         1 RES1    0.0000
     13 N3         1.7901   10.1930    1.7641 N.pl3     1 RES1    0.0000
     14 O4         1.0830   10.3885    2.7548 O.2       1 RES1    0.0000
     15 C4         5.2605    7.8878    7.0216 C.3       1 RES1    0.0000
     16 H5         6.2331    7.8311    6.9292 H         1 RES1    0.0000
     17 H6         5.0766    8.3919    7.8475 H         1 RES1    0.0000
     18 C5         4.6481    6.5126    7.1369 C.3       1 RES1    0.0000
     19 H7         3.6593    6.6314    7.3693 H         1 RES1    0.0000
     20 H8         5.0233    6.0414    7.9054 H         1 RES1    0.0000
     21 O5         1.4447   10.5549    0.6379 O.2       1 RES1    0.0000
     22 C6         4.8614    5.7078    5.8740 C.3       1 RES1    0.0000
     23 H9         4.4349    4.8403    5.9134 H         1 RES1    0.0000
     24 H10        5.8221    5.5164    5.7489 H         1 RES1    0.0000
     25 C7         2.4217    6.1720    3.1405 C.2       1 RES1    0.0000
     26 H11        3.1049    5.8478    2.5082 H         1 RES1    0.0000
     27 C8         1.3176    6.0136    5.9561 C.3       1 RES1    0.0000
     28 H12        0.7646    5.7007    5.2845 H         1 RES1    0.0000
     29 H13        0.8466    6.5359    6.6551 H         1 RES1    0.0000
     30 H14        1.8269    5.3242    6.3764 H         1 RES1    0.0000
     31 C9         3.4423    9.1317    3.0862 C.2       1 RES1    0.0000
     32 H15        2.9152    9.2616    3.8560 H         1 RES1    0.0000
     33 C10        3.0242    9.5509    1.8818 C.2       1 RES1    0.0000
     34 H16        3.4818    9.4419    1.0828 H         1 RES1    0.0000
     35 C11        6.4435    9.1794    2.0833 C.3       1 RES1    0.0000
     36 H17        7.0414    9.0336    2.7945 H         1 RES1    0.0000
     37 H18        6.8407    8.9620    1.2488 H         1 RES1    0.0000
     38 H19        6.0624   10.1154    2.0651 H         1 RES1    0.0000
@<TRIPOS>BOND
     1    1    2 1
     2    2    3 1
     3    3    4 1
     4    5    3 1
     5    6    5 1
     6    7    5 1
     7    8   25 2
     8    9    7 1
     9   10    5 1
    10   11   10 1
    11   12   10 1
    12   13   14 2
    13   15   10 1
    14   16   15 1
    15   17   15 1
    16   18   15 1
    17   19   18 1
    18   20   18 1
    19   21   13 2
    20   22    3 1
    21   23   22 1
    22   24   22 1
    23   25    2 1
    24   26   25 1
    25   27    1 1
    26   28   27 1
    27   29   27 1
    28   30   27 1
    29   31    7 1
    30   32   31 1
    31   33   13 1
    32   34   33 1
    33   35    9 1
    34   36   35 1
    35   37   35 1
    36   38   35 1
    37   18   22 1
    38   31   33 2
@<TRIPOS>SUBSTRUCTURE
     1 RES1 1

@<TRIPOS>CRYSIN
  13.6541   13.2574   15.2290  90.0000  90.0000  90.0000  61 1

