# MOL2 file generated by ConQuest
# Please check atom types

@<TRIPOS>MOLECULE
XIDKAX
    32    34     1
SMALL
NO_CHARGES
****
Generated from CSD

@<TRIPOS>ATOM
      1 C1         0.9778    5.1361    8.3380 C.2       1 RES1    0.0000
      2 C2         1.4169    4.6848    7.0460 C.2       1 RES1    0.0000
      3 C3         2.7693    4.2285    7.2130 C.2       1 RES1    0.0000
      4 C4         3.1802    4.3789    8.4966 C.2       1 RES1    0.0000
      5 C5         4.3908    4.0788    9.2239 C.2       1 RES1    0.0000
      6 C6         4.4171    4.3271   10.6111 C.2       1 RES1    0.0000
      7 C7         3.2752    4.9984   11.1779 C.2       1 RES1    0.0000
      8 C8         2.0432    5.0743   10.5795 C.2       1 RES1    0.0000
      9 N1         2.0597    4.8764    9.2050 N.pl3     1 RES1    0.0000
     10 C9         0.6679    4.7089    5.8032 C.ar      1 RES1    0.0000
     11 C10       -0.6409    5.1560    5.8760 C.ar      1 RES1    0.0000
     12 C11       -1.4136    5.2120    4.7243 C.ar      1 RES1    0.0000
     13 C12       -0.8516    4.8792    3.5099 C.ar      1 RES1    0.0000
     14 C13        0.4507    4.4151    3.4395 C.ar      1 RES1    0.0000
     15 C14        1.2001    4.3016    4.5990 C.ar      1 RES1    0.0000
     16 O1         0.9261    5.5164   11.0505 O.3       1 RES1    0.0000
     17 C15        0.7612    5.5115   12.4771 C.3       1 RES1    0.0000
     18 N2        -1.6708    5.0460    2.3096 N.pl3     1 RES1    0.0000
     19 O2        -1.0201    5.0240    1.2801 O.2       1 RES1    0.0000
     20 O3        -2.8770    5.0651    2.4004 O.2       1 RES1    0.0000
     21 H1         0.1701    5.5171    8.5613 H         1 RES1    0.0000
     22 H2         3.2872    3.8858    6.5297 H         1 RES1    0.0000
     23 H3         5.1348    3.7261    8.7943 H         1 RES1    0.0000
     24 H4         5.1484    4.0724   11.1417 H         1 RES1    0.0000
     25 H5         3.3768    5.4029   12.0061 H         1 RES1    0.0000
     26 H6        -1.0093    5.4199    6.6850 H         1 RES1    0.0000
     27 H7        -2.3034    5.4774    4.7802 H         1 RES1    0.0000
     28 H8         0.8220    4.1810    2.6295 H         1 RES1    0.0000
     29 H9         2.0702    3.9511    4.5576 H         1 RES1    0.0000
     30 H10       -0.0974    5.8648   12.7023 H         1 RES1    0.0000
     31 H11        1.4459    6.0571   12.8653 H         1 RES1    0.0000
     32 H12        0.8398    4.5989   12.7954 H         1 RES1    0.0000
@<TRIPOS>BOND
     1    1    2 2
     2    2    3 1
     3    3    4 2
     4    4    5 1
     5    5    6 2
     6    6    7 1
     7    7    8 2
     8    8    9 1
     9    9    1 1
    10   10    2 1
    11   11   10 ar
    12   12   11 ar
    13   13   12 ar
    14   14   13 ar
    15   15   10 ar
    16   16    8 1
    17   17   16 1
    18   18   13 1
    19   19   18 2
    20   20   18 2
    21   21    1 1
    22   22    3 1
    23   23    5 1
    24   24    6 1
    25   25    7 1
    26   26   11 1
    27   27   12 1
    28   28   14 1
    29   29   15 1
    30   30   17 1
    31   31   17 1
    32   32   17 1
    33    4    9 1
    34   14   15 ar
@<TRIPOS>SUBSTRUCTURE
     1 RES1 1

@<TRIPOS>CRYSIN
   6.8550    7.0960   25.9780  90.0000  94.9600  90.0000  14 1

