# MOL2 file generated by ConQuest
# Please check atom types

@<TRIPOS>MOLECULE
XIDPEF
    25    26     1
SMALL
NO_CHARGES
****
Generated from CSD

@<TRIPOS>ATOM
      1 O1         4.8233   10.3226    2.1596 O.2       1 RES1    0.0000
      2 O2        -1.1116    8.5201   -2.0002 O.2       1 RES1    0.0000
      3 O3        -0.9199   10.6591   -1.6451 O.2       1 RES1    0.0000
      4 N1         3.9726    8.3398    1.5509 N.am      1 RES1    0.0000
      5 N2        -0.5717    9.4814   -1.4856 N.pl3     1 RES1    0.0000
      6 C1         4.9072    9.1209    2.1379 C.2       1 RES1    0.0000
      7 C2         4.0288    6.8617    1.4711 C.3       1 RES1    0.0000
      8 C3         2.8134    6.4291    0.6957 C.3       1 RES1    0.0000
      9 C4         0.9790    7.9192   -0.4928 C.ar      1 RES1    0.0000
     10 C5         0.6340    9.2050   -0.6667 C.ar      1 RES1    0.0000
     11 C6         1.3223   10.3106   -0.1594 C.ar      1 RES1    0.0000
     12 C7         2.4619   10.1183    0.5508 C.ar      1 RES1    0.0000
     13 C8         2.8568    8.7724    0.8044 C.ar      1 RES1    0.0000
     14 C9         2.1476    7.7149    0.2899 C.ar      1 RES1    0.0000
     15 C10        6.1049    8.4720    2.7901 C.3       1 RES1    0.0000
     16 H1         4.9416    6.5613    0.9711 H         1 RES1    0.0000
     17 H2         4.0105    6.4531    2.4640 H         1 RES1    0.0000
     18 H3         2.1568    5.8403    1.3117 H         1 RES1    0.0000
     19 H4         3.1105    5.8643   -0.1812 H         1 RES1    0.0000
     20 H5         1.0467    6.8377   -0.4928 H         1 RES1    0.0000
     21 H6         0.7839   11.1638   -0.4783 H         1 RES1    0.0000
     22 H7         3.1937   10.7552    1.0146 H         1 RES1    0.0000
     23 H8         5.9711    7.3063    2.6814 H         1 RES1    0.0000
     24 H9         6.0996    8.6402    3.8264 H         1 RES1    0.0000
     25 H10        6.9404    8.7243    2.2828 H         1 RES1    0.0000
@<TRIPOS>BOND
     1    1    6 2
     2    2    5 2
     3    3    5 2
     4    4    6 1
     5    5   10 1
     6    6   15 1
     7    7    4 1
     8    8    7 1
     9    9   10 ar
    10   10   11 ar
    11   11   12 ar
    12   12   13 ar
    13   13    4 1
    14   14    8 1
    15   15   23 1
    16   16    7 1
    17   17    7 1
    18   18    8 1
    19   19    8 1
    20   20    9 1
    21   21   11 1
    22   22   12 1
    23   24   15 1
    24   25   15 1
    25    9   14 ar
    26   13   14 ar
@<TRIPOS>SUBSTRUCTURE
     1 RES1 1

@<TRIPOS>CRYSIN
  11.2870   12.0170    7.4250  90.0000 102.5700  90.0000  14 1

