# MOL2 file generated by ConQuest
# Please check atom types

@<TRIPOS>MOLECULE
XIDQOS
    54    54     1
SMALL
NO_CHARGES
****
Generated from CSD

@<TRIPOS>ATOM
      1 O1         6.2419   12.5837    3.7980 O.3       1 RES1    0.0000
      2 O2         7.5139   10.8484    3.0395 O.2       1 RES1    0.0000
      3 O3         5.5861    7.4849    5.4598 O.3       1 RES1    0.0000
      4 O4         7.9425    8.6449    7.9127 O.2       1 RES1    0.0000
      5 O5        11.2366    9.7108    3.3633 O.3       1 RES1    0.0000
      6 O6        11.1577    8.6201   -0.0707 O.2       1 RES1    0.0000
      7 N1         5.2303   10.8035    2.9672 N.am      1 RES1    0.0000
      8 N2         5.4689    8.6531    4.6279 N.2       1 RES1    0.0000
      9 N3         8.2210    7.6036    5.9018 N.am      1 RES1    0.0000
     10 N4        10.7656    8.5206    3.9999 N.2       1 RES1    0.0000
     11 N5         9.4802    9.2897    1.3029 N.am      1 RES1    0.0000
     12 C1         7.9474   13.2875    8.4587 C.ar      1 RES1    0.0000
     13 C2         7.4991   12.1395    7.8272 C.ar      1 RES1    0.0000
     14 C3         7.2999   12.1369    6.4588 C.ar      1 RES1    0.0000
     15 C4         7.5689   13.2821    5.7072 C.ar      1 RES1    0.0000
     16 C5         8.0065   14.4281    6.3567 C.ar      1 RES1    0.0000
     17 C6         8.1955   14.4340    7.7300 C.ar      1 RES1    0.0000
     18 C7         7.4214   13.2958    4.2146 C.3       1 RES1    0.0000
     19 C8         6.4194   11.3463    3.2523 C.2       1 RES1    0.0000
     20 C9         5.1492    9.4724    2.4198 C.3       1 RES1    0.0000
     21 C10        5.3503    6.9757    2.7817 C.3       1 RES1    0.0000
     22 C11        5.3416    8.3373    3.3952 C.2       1 RES1    0.0000
     23 C12        5.9832    7.9097    6.7578 C.3       1 RES1    0.0000
     24 C13        7.4826    8.0931    6.9040 C.2       1 RES1    0.0000
     25 C14        9.6776    7.6134    5.8828 C.3       1 RES1    0.0000
     26 C15       10.0419   10.1825    5.6647 C.3       1 RES1    0.0000
     27 C16       10.2084    8.8014    5.1174 C.2       1 RES1    0.0000
     28 C17       11.7897    9.3522    2.0963 C.3       1 RES1    0.0000
     29 C18       10.7592    9.0521    1.0261 C.2       1 RES1    0.0000
     30 H1         4.4940   11.2619    3.1150 H         1 RES1    0.0000
     31 H2         8.0882   13.2859    9.3982 H         1 RES1    0.0000
     32 H3         7.3251   11.3557    8.3345 H         1 RES1    0.0000
     33 H4         7.8009    7.2546    5.2121 H         1 RES1    0.0000
     34 H5         6.9834   11.3516    6.0274 H         1 RES1    0.0000
     35 H6         8.1792   15.2161    5.8551 H         1 RES1    0.0000
     36 H7         8.8626    9.1414    0.6936 H         1 RES1    0.0000
     37 H8         9.2519    9.5954    2.0955 H         1 RES1    0.0000
     38 H9         8.4931   15.2229    8.1678 H         1 RES1    0.0000
     39 H10        7.3705   14.2320    3.8977 H         1 RES1    0.0000
     40 H11        8.2200   12.8781    3.8021 H         1 RES1    0.0000
     41 H12        5.8365    9.3874    1.7091 H         1 RES1    0.0000
     42 H13        4.2655    9.3670    1.9901 H         1 RES1    0.0000
     43 H14        4.5169    6.8360    2.2842 H         1 RES1    0.0000
     44 H15        5.4271    6.3004    3.4867 H         1 RES1    0.0000
     45 H16        6.1115    6.8985    2.1706 H         1 RES1    0.0000
     46 H17        5.6770    7.2410    7.4211 H         1 RES1    0.0000
     47 H18        5.5342    8.7675    6.9653 H         1 RES1    0.0000
     48 H19       10.0077    6.7789    5.4621 H         1 RES1    0.0000
     49 H20       10.0183    7.6434    6.8117 H         1 RES1    0.0000
     50 H21        9.5701   10.7385    5.0112 H         1 RES1    0.0000
     51 H22       10.9258   10.5700    5.8444 H         1 RES1    0.0000
     52 H23        9.5284   10.1445    6.4964 H         1 RES1    0.0000
     53 H24       12.3634    8.5541    2.2156 H         1 RES1    0.0000
     54 H25       12.3668   10.0929    1.7818 H         1 RES1    0.0000
@<TRIPOS>BOND
     1    1   18 1
     2    2   19 2
     3    3    8 1
     4    4   24 2
     5    5   10 1
     6    6   29 2
     7    7   19 1
     8    8   22 2
     9    9   24 1
    10   10   27 2
    11   11   29 1
    12   12   13 ar
    13   13   14 ar
    14   14   15 ar
    15   15   16 ar
    16   16   17 ar
    17   17   12 ar
    18   18   15 1
    19   19    1 1
    20   20    7 1
    21   21   22 1
    22   22   20 1
    23   23    3 1
    24   24   23 1
    25   25    9 1
    26   26   27 1
    27   27   25 1
    28   28    5 1
    29   29   28 1
    30   30    7 1
    31   31   12 1
    32   32   13 1
    33   33    9 1
    34   34   14 1
    35   35   16 1
    36   36   11 1
    37   37   11 1
    38   38   17 1
    39   39   18 1
    40   40   18 1
    41   41   20 1
    42   42   20 1
    43   43   21 1
    44   44   21 1
    45   45   21 1
    46   46   23 1
    47   47   23 1
    48   48   25 1
    49   49   25 1
    50   50   26 1
    51   51   26 1
    52   52   26 1
    53   53   28 1
    54   54   28 1
@<TRIPOS>SUBSTRUCTURE
     1 RES1 1

@<TRIPOS>CRYSIN
  17.7838   13.5931   18.8401  90.0000 154.3024  90.0000  14 1

