# MOL2 file generated by ConQuest
# Please check atom types

@<TRIPOS>MOLECULE
XIFFEX
    39    41     1
SMALL
NO_CHARGES
****
Generated from CSD

@<TRIPOS>ATOM
      1 O1        15.3850    3.2609   -2.0828 O.3       1 RES1    0.0000
      2 O2        14.2773    0.0315    2.4665 O.2       1 RES1    0.0000
      3 O3        14.4583    2.0433    3.1146 O.2       1 RES1    0.0000
      4 O4        17.8321    2.1813   -1.9192 O.2       1 RES1    0.0000
      5 N1        17.3239    1.1151    0.0044 N.am      1 RES1    0.0000
      6 N2        16.5130    0.8536    1.0405 N.2       1 RES1    0.0000
      7 N3        13.7212    3.1509    0.3750 N.3       1 RES1    0.0000
      8 N4        14.6552    1.1692    2.3168 N.pl3     1 RES1    0.0000
      9 C1        15.4009    1.4906    1.0805 C.2       1 RES1    0.0000
     10 C2        14.8782    2.4125    0.1288 C.2       1 RES1    0.0000
     11 C3        13.6517    4.4408   -0.2984 C.3       1 RES1    0.0000
     12 H1        14.5191    4.8695   -0.2358 H         1 RES1    0.0000
     13 H2        13.0146    5.0007    0.1714 H         1 RES1    0.0000
     14 C4        13.2478    4.3728   -1.7670 C.3       1 RES1    0.0000
     15 H3        12.2935    4.2166   -1.8348 H         1 RES1    0.0000
     16 H4        13.4461    5.2189   -2.1976 H         1 RES1    0.0000
     17 C5        13.9848    3.2772   -2.4569 C.3       1 RES1    0.0000
     18 H5        13.5822    2.4241   -2.2272 H         1 RES1    0.0000
     19 H6        13.9109    3.3938   -3.4165 H         1 RES1    0.0000
     20 C6        15.6891    2.5558   -0.9674 C.2       1 RES1    0.0000
     21 C7        17.0126    1.9834   -1.0240 C.2       1 RES1    0.0000
     22 C8        18.6285    0.4592    0.0200 C.3       1 RES1    0.0000
     23 H7        18.6922   -0.1096    0.7917 H         1 RES1    0.0000
     24 H8        19.3207    1.1235    0.0531 H         1 RES1    0.0000
     25 H9        18.7299   -0.0699   -0.7752 H         1 RES1    0.0000
     26 C9        12.4224    2.4631    0.5185 C.3       1 RES1    0.0000
     27 H10       12.5513    1.6279    0.9944 H         1 RES1    0.0000
     28 H11       12.0691    2.2551   -0.3611 H         1 RES1    0.0000
     29 C10       11.4363    3.3115    1.2615 C.ar      1 RES1    0.0000
     30 C11       11.7071    3.7970    2.5300 C.ar      1 RES1    0.0000
     31 H12       12.5035    3.5639    2.9502 H         1 RES1    0.0000
     32 C12       10.8108    4.6222    3.1781 C.ar      1 RES1    0.0000
     33 H13       11.0019    4.9415    4.0298 H         1 RES1    0.0000
     34 C13        9.6364    4.9695    2.5622 C.ar      1 RES1    0.0000
     35 H14        9.0399    5.5429    2.9867 H         1 RES1    0.0000
     36 C14        9.3454    4.4753    1.3268 C.ar      1 RES1    0.0000
     37 H15        8.5389    4.6991    0.9213 H         1 RES1    0.0000
     38 C15       10.2345    3.6455    0.6682 C.ar      1 RES1    0.0000
     39 H16       10.0231    3.3099   -0.1740 H         1 RES1    0.0000
@<TRIPOS>BOND
     1    1   17 1
     2    2    8 2
     3    3    8 2
     4    4   21 2
     5    5    6 1
     6    6    9 2
     7    7   10 1
     8    8    9 1
     9    9   10 1
    10   10   20 2
    11   11    7 1
    12   12   11 1
    13   13   11 1
    14   14   11 1
    15   15   14 1
    16   16   14 1
    17   17   14 1
    18   18   17 1
    19   19   17 1
    20   20    1 1
    21   21    5 1
    22   22    5 1
    23   23   22 1
    24   24   22 1
    25   25   22 1
    26   26    7 1
    27   27   26 1
    28   28   26 1
    29   29   26 1
    30   30   29 ar
    31   31   30 1
    32   32   30 ar
    33   33   32 1
    34   34   32 ar
    35   35   34 1
    36   36   34 ar
    37   37   36 1
    38   38   29 ar
    39   39   38 1
    40   20   21 1
    41   36   38 ar
@<TRIPOS>SUBSTRUCTURE
     1 RES1 1

@<TRIPOS>CRYSIN
  14.4800   23.3090    8.7000  90.0000  90.0000  90.0000  61 1

