# MOL2 file generated by ConQuest
# Please check atom types

@<TRIPOS>MOLECULE
XIFGUR
    22    21     1
SMALL
USER_CHARGES
****
Generated from CSD

@<TRIPOS>ATOM
      1 O1         0.2870    3.6256    6.4842 O.3       1 RES1    0.0000
      2 H1         0.2704    2.8389    6.3499 H         1 RES1    0.0000
      3 O2         3.5658    3.7245    7.4965 O.2       1 RES1   -1.0000
      4 O3         4.3192    5.2152    5.6765 O.3       1 RES1    0.0000
      5 H2         4.6270    4.5143    6.0263 H         1 RES1    0.0000
      6 N1         2.8260    4.7178    7.1615 N.pl3     1 RES1    1.0000
      7 N2         3.1301    5.5326    6.2497 N.2       1 RES1    0.0000
      8 C1         0.6692    3.8171    7.8400 C.3       1 RES1    0.0000
      9 H3         1.1288    3.0074    8.1753 H         1 RES1    0.0000
     10 H4        -0.1358    3.9688    8.3951 H         1 RES1    0.0000
     11 C2         1.5983    5.0150    7.9472 C.3       1 RES1    0.0000
     12 H5         1.1448    5.8127    7.5498 H         1 RES1    0.0000
     13 C3         1.9977    5.3417    9.3971 C.3       1 RES1    0.0000
     14 H6         2.2797    4.4938    9.8470 H         1 RES1    0.0000
     15 C4         3.1621    6.3302    9.4493 C.3       1 RES1    0.0000
     16 H7         3.9468    5.9347    9.0166 H         1 RES1    0.0000
     17 H8         3.3735    6.5369   10.3836 H         1 RES1    0.0000
     18 H9         2.9120    7.1549    8.9815 H         1 RES1    0.0000
     19 C5         0.7994    5.9160   10.1504 C.3       1 RES1    0.0000
     20 H10        0.5039    6.7416    9.7136 H         1 RES1    0.0000
     21 H11        1.0575    6.1096   11.0752 H         1 RES1    0.0000
     22 H12        0.0676    5.2636   10.1450 H         1 RES1    0.0000
@<TRIPOS>BOND
     1    1    2 1
     2    3    6 1
     3    4    5 1
     4    6    7 2
     5    7    4 1
     6    8    1 1
     7    9    8 1
     8   10    8 1
     9   11    6 1
    10   12   11 1
    11   13   11 1
    12   14   13 1
    13   15   13 1
    14   16   15 1
    15   17   15 1
    16   18   15 1
    17   19   13 1
    18   20   19 1
    19   21   19 1
    20   22   19 1
    21    8   11 1
@<TRIPOS>SUBSTRUCTURE
     1 RES1 1

@<TRIPOS>CRYSIN
   6.1448    9.3078   13.4817  90.0000  90.0000  90.0000  19 1

