# MOL2 file generated by ConQuest
# Please check atom types

@<TRIPOS>MOLECULE
XIFGUP
    70    74     1
SMALL
NO_CHARGES
****
Generated from CSD

@<TRIPOS>ATOM
      1 O1        -3.8525    0.9244    1.7983 O.3       1 RES1    0.0000
      2 O2         1.0798    1.8831    3.0861 O.3       1 RES1    0.0000
      3 O3        -0.2150    0.4966    6.7178 O.3       1 RES1    0.0000
      4 O4         0.4355   -0.9142    8.3502 O.2       1 RES1    0.0000
      5 O5        -3.4396    2.9236   12.5883 O.2       1 RES1    0.0000
      6 O6        -4.2443    3.8064   11.0321 O.2       1 RES1    0.0000
      7 O7         3.3527   -1.8437    3.1173 O.3       1 RES1    0.0000
      8 O8         4.8096   -2.7548    4.5456 O.2       1 RES1    0.0000
      9 O9         6.9221   -4.3399   -2.1381 O.2       1 RES1    0.0000
     10 O10        8.1382   -5.2179   -0.9177 O.2       1 RES1    0.0000
     11 N1        -3.0028    1.2832    2.8527 N.pl3     1 RES1    0.0000
     12 N2         0.6202   -0.3076    5.8538 N.2       1 RES1    0.0000
     13 N3        -3.5502    3.0322   11.4421 N.pl3     1 RES1    0.0000
     14 N4         7.2872   -4.5202   -1.1130 N.pl3     1 RES1    0.0000
     15 C1        -1.6782    0.9909    2.8996 C.2       1 RES1    0.0000
     16 C2        -1.1413    1.7209    3.9286 C.2       1 RES1    0.0000
     17 C3        -2.1771    2.5302    4.4646 C.ar      1 RES1    0.0000
     18 C4        -2.2266    3.5117    5.4282 C.ar      1 RES1    0.0000
     19 C5        -3.4271    4.1490    5.7211 C.ar      1 RES1    0.0000
     20 C6        -4.5463    3.8359    5.0474 C.ar      1 RES1    0.0000
     21 C7        -4.5538    2.8723    4.0321 C.ar      1 RES1    0.0000
     22 C8        -3.3454    2.2409    3.7782 C.ar      1 RES1    0.0000
     23 C9        -4.3613   -0.3692    1.9526 C.3       1 RES1    0.0000
     24 C10        0.3079    1.6719    4.2820 C.3       1 RES1    0.0000
     25 C11        0.7723    0.3027    4.7448 C.2       1 RES1    0.0000
     26 C12        1.6942   -0.2747    3.7001 C.3       1 RES1    0.0000
     27 C13        2.2317    1.0240    3.0616 C.3       1 RES1    0.0000
     28 C14        2.6489   -1.2719    4.2566 C.3       1 RES1    0.0000
     29 C15        3.3681    1.6246    3.8856 C.3       1 RES1    0.0000
     30 C16        2.6102    0.8766    1.6011 C.3       1 RES1    0.0000
     31 C17       -0.2195    0.0192    8.0075 C.2       1 RES1    0.0000
     32 C18       -1.1277    0.8168    8.8520 C.ar      1 RES1    0.0000
     33 C19       -1.0495    0.6059   10.2276 C.ar      1 RES1    0.0000
     34 C20       -1.8673    1.3148   11.0711 C.ar      1 RES1    0.0000
     35 C21       -2.7142    2.2276   10.5537 C.ar      1 RES1    0.0000
     36 C22       -2.8395    2.4509    9.1869 C.ar      1 RES1    0.0000
     37 C23       -2.0262    1.7230    8.3570 C.ar      1 RES1    0.0000
     38 C24        4.4576   -2.5528    3.4268 C.2       1 RES1    0.0000
     39 C25        5.1282   -3.0540    2.2064 C.ar      1 RES1    0.0000
     40 C26        6.1930   -3.8758    2.4017 C.ar      1 RES1    0.0000
     41 C27        6.9586   -4.3078    1.3278 C.ar      1 RES1    0.0000
     42 C28        6.5408   -4.0354    0.0781 C.ar      1 RES1    0.0000
     43 C29        5.4438   -3.2441   -0.1367 C.ar      1 RES1    0.0000
     44 C30        4.7429   -2.7712    0.9470 C.ar      1 RES1    0.0000
     45 H1        -1.2617    0.1704    2.2455 H         1 RES1    0.0000
     46 H2        -1.3425    3.6916    5.8675 H         1 RES1    0.0000
     47 H3        -3.5016    4.9241    6.4435 H         1 RES1    0.0000
     48 H4        -5.4767    4.3879    5.3403 H         1 RES1    0.0000
     49 H5        -5.3725    2.6415    3.4902 H         1 RES1    0.0000
     50 H6        -5.1576   -0.5032    2.3138 H         1 RES1    0.0000
     51 H7        -4.3159   -0.8781    1.0651 H         1 RES1    0.0000
     52 H8        -3.6806   -0.9461    2.4788 H         1 RES1    0.0000
     53 H9         0.6044    2.3981    4.9498 H         1 RES1    0.0000
     54 H10        1.0421   -0.7031    3.1144 H         1 RES1    0.0000
     55 H11        3.2933   -0.9919    4.8814 H         1 RES1    0.0000
     56 H12        2.0656   -2.0889    4.6081 H         1 RES1    0.0000
     57 H13        3.1373    1.6702    4.7838 H         1 RES1    0.0000
     58 H14        3.5177    2.4374    3.5146 H         1 RES1    0.0000
     59 H15        4.4330    1.0235    4.0516 H         1 RES1    0.0000
     60 H16        3.5686    0.5238    1.5230 H         1 RES1    0.0000
     61 H17        3.0023    1.9786    1.2692 H         1 RES1    0.0000
     62 H18        1.9126    0.3431    1.1618 H         1 RES1    0.0000
     63 H19       -0.4601   -0.1721   10.5830 H         1 RES1    0.0000
     64 H20       -1.8054    1.1523   12.0279 H         1 RES1    0.0000
     65 H21       -3.4972    3.1470    8.7866 H         1 RES1    0.0000
     66 H22       -2.1828    1.8428    7.4003 H         1 RES1    0.0000
     67 H23        6.5785   -3.7191    3.2218 H         1 RES1    0.0000
     68 H24        7.6114   -5.2302    1.5621 H         1 RES1    0.0000
     69 H25        5.0806   -3.1944   -0.9763 H         1 RES1    0.0000
     70 H26        3.9932   -2.2390    0.7810 H         1 RES1    0.0000
@<TRIPOS>BOND
     1    1   11 1
     2    2   24 1
     3    3   12 1
     4    4   31 2
     5    5   13 2
     6    6   13 2
     7    7   28 1
     8    8   38 2
     9    9   14 2
    10   10   14 2
    11   11   15 1
    12   12   25 2
    13   13   35 1
    14   14   42 1
    15   15   16 2
    16   16   17 1
    17   17   18 ar
    18   18   19 ar
    19   19   20 ar
    20   20   21 ar
    21   21   22 ar
    22   22   11 1
    23   23    1 1
    24   24   16 1
    25   25   24 1
    26   26   25 1
    27   27    2 1
    28   28   26 1
    29   29   27 1
    30   30   27 1
    31   31    3 1
    32   32   31 1
    33   33   32 ar
    34   34   33 ar
    35   35   34 ar
    36   36   35 ar
    37   37   32 ar
    38   38    7 1
    39   39   38 1
    40   40   39 ar
    41   41   40 ar
    42   42   41 ar
    43   43   42 ar
    44   44   39 ar
    45   45   15 1
    46   46   18 1
    47   47   19 1
    48   48   20 1
    49   49   21 1
    50   50   23 1
    51   51   23 1
    52   52   23 1
    53   53   24 1
    54   54   26 1
    55   55   28 1
    56   56   28 1
    57   57   29 1
    58   58   29 1
    59   59   29 1
    60   60   30 1
    61   61   30 1
    62   62   30 1
    63   63   33 1
    64   64   34 1
    65   65   36 1
    66   66   37 1
    67   67   40 1
    68   68   41 1
    69   69   43 1
    70   70   44 1
    71   17   22 ar
    72   26   27 1
    73   36   37 ar
    74   43   44 ar
@<TRIPOS>SUBSTRUCTURE
     1 RES1 1

@<TRIPOS>CRYSIN
  11.7790   12.6400   10.1960 106.1500  92.3000  97.2900   2 1

