# MOL2 file generated by ConQuest
# Please check atom types

@<TRIPOS>MOLECULE
XIJJAB
    56    60     2
SMALL
USER_CHARGES
****
Generated from CSD

@<TRIPOS>ATOM
      1 O1         2.0529    5.8259   -2.5547 O.2       1 RES1   -1.0000
      2 O2         4.5712    4.2421    1.0375 Du        2 SUP2    0.0000
      3 N1         3.0903    6.3648   -1.9786 N.pl3     1 RES1    1.0000
      4 N2         3.3179    4.3139    0.9306 N.ar      1 RES1    0.0000
      5 C1         3.4286    6.0655   -0.6830 C.ar      1 RES1    0.0000
      6 C2         4.5473    6.6641   -0.1147 C.ar      1 RES1    0.0000
      7 C3         5.3188    7.5642   -0.8238 C.ar      1 RES1    0.0000
      8 C4         4.9812    7.8415   -2.1454 C.ar      1 RES1    0.0000
      9 C5         3.8762    7.2186   -2.7085 C.ar      1 RES1    0.0000
     10 C6         5.7500    8.8134   -3.0161 C.3       1 RES1    0.0000
     11 C7         5.1657    8.8653   -4.4238 C.3       1 RES1    0.0000
     12 C8         3.6110    9.0353   -4.4029 C.3       1 RES1    0.0000
     13 C9         3.5734    7.4781   -4.1527 C.3       1 RES1    0.0000
     14 C10        4.9382    7.4030   -4.9060 C.3       1 RES1    0.0000
     15 C11        2.9721    9.9498   -3.3628 C.3       1 RES1    0.0000
     16 C12        3.0513    9.3921   -5.7845 C.3       1 RES1    0.0000
     17 C13        2.6023    5.1102    0.0965 C.ar      1 RES1    0.0000
     18 C14        1.2123    5.1069    0.0678 C.ar      1 RES1    0.0000
     19 C15        0.5194    4.2819    0.9489 C.ar      1 RES1    0.0000
     20 C16        1.2369    3.4790    1.8274 C.ar      1 RES1    0.0000
     21 C17        2.6372    3.4955    1.7466 C.ar      1 RES1    0.0000
     22 C18        0.6007    2.5910    2.8779 C.3       1 RES1    0.0000
     23 C19        1.6620    1.7516    3.5922 C.3       1 RES1    0.0000
     24 C20        2.8791    2.6175    4.0823 C.3       1 RES1    0.0000
     25 C21        3.3814    2.5269    2.6068 C.3       1 RES1    0.0000
     26 C22        2.6092    1.1663    2.5156 C.3       1 RES1    0.0000
     27 C23        3.7990    1.8455    5.0233 C.3       1 RES1    0.0000
     28 C24        2.6140    4.0036    4.6688 C.3       1 RES1    0.0000
     29 H1         4.7810    6.4532    0.7612 H         1 RES1    0.0000
     30 H2         6.0501    7.9784   -0.4249 H         1 RES1    0.0000
     31 H3         6.6795    8.5406   -3.0630 H         1 RES1    0.0000
     32 H4         5.7166    9.6991   -2.6199 H         1 RES1    0.0000
     33 H5         5.6421    9.4440   -5.0546 H         1 RES1    0.0000
     34 H6         2.8231    6.9844   -4.5437 H         1 RES1    0.0000
     35 H7         4.8569    7.3080   -5.8680 H         1 RES1    0.0000
     36 H8         5.5628    6.7580   -4.5385 H         1 RES1    0.0000
     37 H9         3.0609   10.8632   -3.6443 H         1 RES1    0.0000
     38 H10        3.4122    9.8316   -2.5182 H         1 RES1    0.0000
     39 H11        2.0420    9.7311   -3.2742 H         1 RES1    0.0000
     40 H12        2.0946    9.3092   -5.7741 H         1 RES1    0.0000
     41 H13        3.4163    8.7957   -6.4415 H         1 RES1    0.0000
     42 H14        3.2919   10.2955   -6.0035 H         1 RES1    0.0000
     43 H15        0.7517    5.6492   -0.5318 H         1 RES1    0.0000
     44 H16       -0.4107    4.2675    0.9489 H         1 RES1    0.0000
     45 H17       -0.0465    2.0045    2.4556 H         1 RES1    0.0000
     46 H18        0.1319    3.1410    3.5244 H         1 RES1    0.0000
     47 H19        1.3176    1.1055    4.2439 H         1 RES1    0.0000
     48 H20        4.3518    2.4861    2.4791 H         1 RES1    0.0000
     49 H21        2.1862    1.0039    1.6579 H         1 RES1    0.0000
     50 H22        3.1210    0.3965    2.8102 H         1 RES1    0.0000
     51 H23        4.6108    2.3414    5.1563 H         1 RES1    0.0000
     52 H24        4.0053    0.9896    4.6401 H         1 RES1    0.0000
     53 H25        3.3602    1.7207    5.8680 H         1 RES1    0.0000
     54 H26        2.2080    3.9119    5.5343 H         1 RES1    0.0000
     55 H27        2.0235    4.4895    4.0875 H         1 RES1    0.0000
     56 H28        3.4436    4.4796    4.7548 H         1 RES1    0.0000
@<TRIPOS>BOND
     1    1    3 1
     2    3    5 ar
     3    4   17 ar
     4    5    6 ar
     5    6    7 ar
     6    7    8 ar
     7    8    9 ar
     8    9    3 ar
     9   10    8 1
    10   11   10 1
    11   12   11 1
    12   13    9 1
    13   14   11 1
    14   15   12 1
    15   16   12 1
    16   17    5 1
    17   18   17 ar
    18   19   18 ar
    19   20   19 ar
    20   21    4 ar
    21   22   20 1
    22   23   22 1
    23   24   23 1
    24   25   21 1
    25   26   23 1
    26   27   24 1
    27   28   24 1
    28   29    6 1
    29   30    7 1
    30   31   10 1
    31   32   10 1
    32   33   11 1
    33   34   13 1
    34   35   14 1
    35   36   14 1
    36   37   15 1
    37   38   15 1
    38   39   15 1
    39   40   16 1
    40   41   16 1
    41   42   16 1
    42   43   18 1
    43   44   19 1
    44   45   22 1
    45   46   22 1
    46   47   23 1
    47   48   25 1
    48   49   26 1
    49   50   26 1
    50   51   27 1
    51   52   27 1
    52   53   27 1
    53   54   28 1
    54   55   28 1
    55   56   28 1
    56   12   13 1
    57   13   14 1
    58   20   21 ar
    59   24   25 1
    60   25   26 1
@<TRIPOS>SUBSTRUCTURE
     1 RES1 1
     2 SUP2 2

@<TRIPOS>CRYSIN
   6.8339   11.0443   26.0682  90.0000  90.0000  90.0000  19 1

