# MOL2 file generated by ConQuest
# Please check atom types

@<TRIPOS>MOLECULE
XIJLOT
    47    51     1
SMALL
NO_CHARGES
****
Generated from CSD

@<TRIPOS>ATOM
      1 O1        -0.0551    0.4511    4.8009 O.2       1 RES1    0.0000
      2 O2         3.9677    1.2839    2.8342 O.2       1 RES1    0.0000
      3 O3         1.6066    4.4326    6.0745 O.3       1 RES1    0.0000
      4 N1         2.0094    0.5568    3.8021 N.am      1 RES1    0.0000
      5 C1         2.1877   -0.8432    3.5711 C.ar      1 RES1    0.0000
      6 C2         0.8983    1.1005    4.4594 C.2       1 RES1    0.0000
      7 C3         1.1360    2.5860    4.6466 C.3       1 RES1    0.0000
      8 H1         0.4206    3.0985    4.2132 H         1 RES1    0.0000
      9 C4         2.4321    2.2563    6.7461 C.2       1 RES1    0.0000
     10 H2         2.3392    1.7033    7.4873 H         1 RES1    0.0000
     11 C5         1.2729    3.0216    6.1513 C.3       1 RES1    0.0000
     12 C6         1.4534   -2.9066    2.6426 C.ar      1 RES1    0.0000
     13 H3         0.8348   -3.4045    2.1576 H         1 RES1    0.0000
     14 C7         3.4980    3.4079    4.9717 C.3       1 RES1    0.0000
     15 H4         4.3728    3.5649    4.5598 H         1 RES1    0.0000
     16 C8        -0.0299    2.9397    6.9190 C.ar      1 RES1    0.0000
     17 C9        -0.8311    4.0652    7.0668 C.ar      1 RES1    0.0000
     18 H5        -0.5539    4.8756    6.7045 H         1 RES1    0.0000
     19 C10        3.3219   -1.4530    4.0697 C.ar      1 RES1    0.0000
     20 H6         3.9482   -0.9561    4.5447 H         1 RES1    0.0000
     21 C11        3.5949    2.4349    6.1261 C.2       1 RES1    0.0000
     22 C12        1.2397   -1.5703    2.8801 C.ar      1 RES1    0.0000
     23 H7         0.4628   -1.1588    2.5773 H         1 RES1    0.0000
     24 C13        2.9033    4.6969    5.5263 C.3       1 RES1    0.0000
     25 H8         3.4836    5.0551    6.2158 H         1 RES1    0.0000
     26 H9         2.8320    5.3569    4.8181 H         1 RES1    0.0000
     27 C14        2.4777    2.8555    3.9456 C.3       1 RES1    0.0000
     28 H10        2.3595    3.4847    3.2037 H         1 RES1    0.0000
     29 C15        2.9457    1.5209    3.4376 C.2       1 RES1    0.0000
     30 C16       -0.4759    1.7436    7.4830 C.ar      1 RES1    0.0000
     31 H11        0.0458    0.9772    7.4141 H         1 RES1    0.0000
     32 O4         2.0578   -5.5124    2.1382 O.2       1 RES1    0.0000
     33 N2         2.8306   -4.9139    2.8500 N.pl3     1 RES1    0.0000
     34 C17       -1.6959    1.6919    8.1467 C.ar      1 RES1    0.0000
     35 H12       -1.9890    0.8865    8.5076 H         1 RES1    0.0000
     36 C18        3.5234   -2.7964    3.8624 C.ar      1 RES1    0.0000
     37 H13        4.2743   -3.2230    4.2089 H         1 RES1    0.0000
     38 C19        2.5937   -3.4967    3.1305 C.ar      1 RES1    0.0000
     39 C20        4.9093    1.8173    6.4827 C.3       1 RES1    0.0000
     40 H14        5.2418    1.3171    5.7337 H         1 RES1    0.0000
     41 H15        4.7938    1.2305    7.2333 H         1 RES1    0.0000
     42 H16        5.5359    2.5075    6.7102 H         1 RES1    0.0000
     43 C21       -2.0358    3.9982    7.7470 C.ar      1 RES1    0.0000
     44 H17       -2.5530    4.7638    7.8446 H         1 RES1    0.0000
     45 O5         3.8051   -5.4299    3.3228 O.2       1 RES1    0.0000
     46 C22       -2.4692    2.8148    8.2751 C.ar      1 RES1    0.0000
     47 H18       -3.2845    2.7713    8.7200 H         1 RES1    0.0000
@<TRIPOS>BOND
     1    1    6 2
     2    2   29 2
     3    3   11 1
     4    4    5 1
     5    5   19 ar
     6    6    4 1
     7    7    6 1
     8    8    7 1
     9    9   10 1
    10   11    7 1
    11   12   13 1
    12   14   15 1
    13   16   11 1
    14   17   16 ar
    15   18   17 1
    16   19   20 1
    17   21    9 2
    18   22    5 ar
    19   23   22 1
    20   24    3 1
    21   25   24 1
    22   26   24 1
    23   27    7 1
    24   28   27 1
    25   29    4 1
    26   30   16 ar
    27   31   30 1
    28   32   33 2
    29   33   38 1
    30   34   30 ar
    31   35   34 1
    32   36   19 ar
    33   37   36 1
    34   38   12 ar
    35   39   21 1
    36   40   39 1
    37   41   39 1
    38   42   39 1
    39   43   17 ar
    40   44   43 1
    41   45   33 2
    42   46   34 ar
    43   47   46 1
    44    9   11 1
    45   12   22 ar
    46   14   21 1
    47   14   24 1
    48   14   27 1
    49   27   29 1
    50   36   38 ar
    51   43   46 ar
@<TRIPOS>SUBSTRUCTURE
     1 RES1 1

@<TRIPOS>CRYSIN
  12.5002   21.1067    7.4487  90.0000 105.5760  90.0000  14 1

