# MOL2 file generated by ConQuest
# Please check atom types

@<TRIPOS>MOLECULE
XIJWEU
    48    49     1
SMALL
USER_CHARGES
****
Generated from CSD

@<TRIPOS>ATOM
      1 N1         6.6285    2.7668    2.1982 N.3       1 RES1    0.0000
      2 O1         6.0993    2.1338    1.0515 O.3       1 RES1    0.0000
      3 H1         6.5062    2.3951    0.3779 H         1 RES1    0.0000
      4 C1         7.3152    1.8384    3.1259 C.3       1 RES1    0.0000
      5 C2         8.6733    1.4375    2.5860 C.3       1 RES1    0.0000
      6 H2         8.5573    0.8596    1.8149 H         1 RES1    0.0000
      7 H3         9.1701    0.9645    3.2727 H         1 RES1    0.0000
      8 H4         9.1649    2.2318    2.3220 H         1 RES1    0.0000
      9 C3         6.4687    0.5813    3.3548 C.3       1 RES1    0.0000
     10 H5         6.4804    0.0347    2.5531 H         1 RES1    0.0000
     11 H6         5.5540    0.8392    3.5575 H         1 RES1    0.0000
     12 H7         6.8341    0.0755    4.0964 H         1 RES1    0.0000
     13 C4         7.3370    2.7742    4.3767 C.3       1 RES1    0.0000
     14 C5         7.3583    2.0392    5.7020 C.3       1 RES1    0.0000
     15 H8         7.3825    2.6824    6.4282 H         1 RES1    0.0000
     16 H9         8.1439    1.4742    5.7459 H         1 RES1    0.0000
     17 H10        6.5632    1.4913    5.7798 H         1 RES1    0.0000
     18 C6         8.4751    3.8115    4.3307 C.3       1 RES1    0.0000
     19 H11        8.4458    4.3608    5.1292 H         1 RES1    0.0000
     20 H12        8.3667    4.3737    3.5476 H         1 RES1    0.0000
     21 H13        9.3270    3.3535    4.2847 H         1 RES1    0.0000
     22 N2         6.0605    3.5529    4.2289 N.2       1 RES1    0.0000
     23 C7         5.7425    3.4862    2.9857 C.2       1 RES1    0.0000
     24 C8         4.5451    4.1825    2.4644 C.2       1 RES1    0.0000
     25 N3         4.4735    4.6140    1.2508 N.pl3     1 RES1    1.0000
     26 O2         5.4336    4.7528    0.4688 O.2       1 RES1   -1.0000
     27 C9         3.2589    5.3770    0.8127 C.3       1 RES1    0.0000
     28 C10        3.5503    6.8417    1.1511 C.3       1 RES1    0.0000
     29 H14        3.6223    6.9431    2.1128 H         1 RES1    0.0000
     30 H15        2.8282    7.3998    0.8193 H         1 RES1    0.0000
     31 H16        4.3856    7.1099    0.7349 H         1 RES1    0.0000
     32 C11        3.1435    5.2259   -0.7130 C.3       1 RES1    0.0000
     33 H17        2.9623    4.2989   -0.9332 H         1 RES1    0.0000
     34 H18        3.9744    5.5029   -1.1292 H         1 RES1    0.0000
     35 H19        2.4199    5.7820   -1.0383 H         1 RES1    0.0000
     36 C12        2.0074    4.8400    1.5159 C.3       1 RES1    0.0000
     37 C13        1.6732    3.3916    1.1457 C.3       1 RES1    0.0000
     38 H20        0.8721    3.1139    1.6199 H         1 RES1    0.0000
     39 H21        2.4138    2.8158    1.3943 H         1 RES1    0.0000
     40 H22        1.5207    3.3290    0.1906 H         1 RES1    0.0000
     41 C14        0.7969    5.7200    1.2946 C.3       1 RES1    0.0000
     42 H23        0.0309    5.3389    1.7546 H         1 RES1    0.0000
     43 H24        0.6097    5.7772    0.3450 H         1 RES1    0.0000
     44 H25        0.9756    6.6076    1.6440 H         1 RES1    0.0000
     45 N4         2.2925    4.7910    3.0044 N.pl3     1 RES1    1.0000
     46 O3         1.3160    4.9761    3.8105 O.2       1 RES1   -1.0000
     47 C15        3.4778    4.4255    3.4030 C.2       1 RES1    0.0000
     48 H26        3.6411    4.3179    4.3220 H         1 RES1    0.0000
@<TRIPOS>BOND
     1    1    2 1
     2    2    3 1
     3    4    1 1
     4    5    4 1
     5    6    5 1
     6    7    5 1
     7    8    5 1
     8    9    4 1
     9   10    9 1
    10   11    9 1
    11   12    9 1
    12   13    4 1
    13   14   13 1
    14   15   14 1
    15   16   14 1
    16   17   14 1
    17   18   13 1
    18   19   18 1
    19   20   18 1
    20   21   18 1
    21   22   13 1
    22   23    1 1
    23   24   23 1
    24   25   24 2
    25   26   25 1
    26   27   25 1
    27   28   27 1
    28   29   28 1
    29   30   28 1
    30   31   28 1
    31   32   27 1
    32   33   32 1
    33   34   32 1
    34   35   32 1
    35   36   27 1
    36   37   36 1
    37   38   37 1
    38   39   37 1
    39   40   37 1
    40   41   36 1
    41   42   41 1
    42   43   41 1
    43   44   41 1
    44   45   36 1
    45   46   45 1
    46   47   24 1
    47   48   47 1
    48   22   23 2
    49   45   47 2
@<TRIPOS>SUBSTRUCTURE
     1 RES1 1

@<TRIPOS>CRYSIN
  43.5720    6.8063   11.2344  90.0000 102.8550  90.0000  15 1

