# MOL2 file generated by ConQuest
# Please check atom types

@<TRIPOS>MOLECULE
XIKBIE
    54    58     1
SMALL
NO_CHARGES
****
Generated from CSD

@<TRIPOS>ATOM
      1 O1         2.6109   -0.9608    0.9418 O.2       1 RES1    0.0000
      2 O2         3.9199    0.5455    1.4810 O.2       1 RES1    0.0000
      3 O3         5.9612    3.7682    2.0091 O.2       1 RES1    0.0000
      4 N1         3.0037    0.1585    0.8301 N.pl3     1 RES1    0.0000
      5 N2        -0.6737    3.1073    2.2035 N.pl3     1 RES1    0.0000
      6 H1        -1.5021    2.9158    2.0697 H         1 RES1    0.0000
      7 C1         2.4069    1.0242   -0.1848 C.ar      1 RES1    0.0000
      8 C2         1.4265    0.4687   -0.9790 C.ar      1 RES1    0.0000
      9 H2         1.1871   -0.4220   -0.8701 H         1 RES1    0.0000
     10 C3         0.8031    1.2394   -1.9360 C.ar      1 RES1    0.0000
     11 H3         0.1463    0.8691   -2.4807 H         1 RES1    0.0000
     12 C4         1.1586    2.5589   -2.0808 C.ar      1 RES1    0.0000
     13 H4         0.7493    3.0843   -2.7289 H         1 RES1    0.0000
     14 C5         2.1202    3.0960   -1.2603 C.ar      1 RES1    0.0000
     15 H5         2.3373    3.9951   -1.3637 H         1 RES1    0.0000
     16 C6         2.7804    2.3654   -0.2910 C.ar      1 RES1    0.0000
     17 C7         3.8441    2.9976    0.4923 C.2       1 RES1    0.0000
     18 H6         4.6697    2.5689    0.4799 H         1 RES1    0.0000
     19 C8         3.7712    4.1068    1.2148 C.2       1 RES1    0.0000
     20 C9         5.0448    4.5505    1.8436 C.2       1 RES1    0.0000
     21 C10        5.2057    5.9651    2.2642 C.3       1 RES1    0.0000
     22 H7         5.9287    6.3571    1.7485 H         1 RES1    0.0000
     23 H8         5.4750    5.9784    3.1949 H         1 RES1    0.0000
     24 C11        3.9773    6.8475    2.1097 C.3       1 RES1    0.0000
     25 H9         4.0538    7.6232    2.6875 H         1 RES1    0.0000
     26 H10        3.9066    7.1578    1.1928 H         1 RES1    0.0000
     27 C12        2.7540    6.0568    2.4765 C.3       1 RES1    0.0000
     28 H11        1.9846    6.6490    2.4958 H         1 RES1    0.0000
     29 H12        2.8675    5.6865    3.3659 H         1 RES1    0.0000
     30 C13        2.4899    4.9122    1.4782 C.3       1 RES1    0.0000
     31 H13        2.2166    5.3179    0.6288 H         1 RES1    0.0000
     32 C14        1.3620    4.0399    1.9470 C.2       1 RES1    0.0000
     33 C15        1.4257    3.0629    2.9922 C.ar      1 RES1    0.0000
     34 C16        2.4327    2.6299    3.8554 C.ar      1 RES1    0.0000
     35 H14        3.2969    2.9642    3.7713 H         1 RES1    0.0000
     36 C17        2.1384    1.7031    4.8289 C.ar      1 RES1    0.0000
     37 H15        2.8040    1.4229    5.4150 H         1 RES1    0.0000
     38 C18        0.8550    1.1843    4.9475 C.ar      1 RES1    0.0000
     39 H16        0.6777    0.5588    5.6122 H         1 RES1    0.0000
     40 C19       -0.1566    1.5713    4.1064 C.ar      1 RES1    0.0000
     41 H17       -1.0083    1.2077    4.1822 H         1 RES1    0.0000
     42 C20        0.1310    2.5222    3.1370 C.ar      1 RES1    0.0000
     43 C21        0.0539    4.0610    1.5003 C.2       1 RES1    0.0000
     44 C22       -0.6234    4.8385    0.4578 C.ar      1 RES1    0.0000
     45 C23       -1.4267    4.1969   -0.4619 C.ar      1 RES1    0.0000
     46 H18       -1.5226    3.2728   -0.4233 H         1 RES1    0.0000
     47 C24       -2.0890    4.9075   -1.4382 C.ar      1 RES1    0.0000
     48 H19       -2.6190    4.4571   -2.0546 H         1 RES1    0.0000
     49 C25       -1.9761    6.2754   -1.5113 C.ar      1 RES1    0.0000
     50 H20       -2.4113    6.7524   -2.1814 H         1 RES1    0.0000
     51 C26       -1.2106    6.9259   -0.5805 C.ar      1 RES1    0.0000
     52 H21       -1.1440    7.8534   -0.6081 H         1 RES1    0.0000
     53 C27       -0.5354    6.2186    0.4013 C.ar      1 RES1    0.0000
     54 H22       -0.0188    6.6740    1.0259 H         1 RES1    0.0000
@<TRIPOS>BOND
     1    1    4 2
     2    2    4 2
     3    3   20 2
     4    4    7 1
     5    5    6 1
     6    7    8 ar
     7    8    9 1
     8   10    8 ar
     9   11   10 1
    10   12   10 ar
    11   13   12 1
    12   14   12 ar
    13   15   14 1
    14   16    7 ar
    15   17   16 1
    16   18   17 1
    17   19   17 2
    18   20   19 1
    19   21   20 1
    20   22   21 1
    21   23   21 1
    22   24   21 1
    23   25   24 1
    24   26   24 1
    25   27   24 1
    26   28   27 1
    27   29   27 1
    28   30   19 1
    29   31   30 1
    30   32   30 1
    31   33   32 1
    32   34   33 ar
    33   35   34 1
    34   36   34 ar
    35   37   36 1
    36   38   36 ar
    37   39   38 1
    38   40   38 ar
    39   41   40 1
    40   42    5 1
    41   43    5 1
    42   44   43 1
    43   45   44 ar
    44   46   45 1
    45   47   45 ar
    46   48   47 1
    47   49   47 ar
    48   50   49 1
    49   51   49 ar
    50   52   51 1
    51   53   44 ar
    52   54   53 1
    53   14   16 ar
    54   27   30 1
    55   32   43 2
    56   33   42 ar
    57   40   42 ar
    58   51   53 ar
@<TRIPOS>SUBSTRUCTURE
     1 RES1 1

@<TRIPOS>CRYSIN
   9.4871   16.6809   14.2027  90.0000 103.8610  90.0000  14 1

