# MOL2 file generated by ConQuest
# Please check atom types

@<TRIPOS>MOLECULE
XIKBEA
    55    58     2
SMALL
NO_CHARGES
****
Generated from CSD

@<TRIPOS>ATOM
      1 C1        12.3115    7.1427    0.9740 C.ar      1 RES1    0.0000
      2 C2        13.3419    7.9985    0.6368 C.ar      1 RES1    0.0000
      3 H1        13.9581    7.7626   -0.0471 H         1 RES1    0.0000
      4 C3        13.4663    9.1918    1.2998 C.ar      1 RES1    0.0000
      5 H2        14.1747    9.7872    1.0831 H         1 RES1    0.0000
      6 C4        12.5594    9.5230    2.2801 C.ar      1 RES1    0.0000
      7 H3        12.6299   10.3584    2.7265 H         1 RES1    0.0000
      8 C5        11.5465    8.6444    2.6195 C.ar      1 RES1    0.0000
      9 H4        10.9334    8.8885    3.3026 H         1 RES1    0.0000
     10 C6        11.3993    7.4172    1.9892 C.ar      1 RES1    0.0000
     11 C7        10.3518    6.4894    2.4934 C.2       1 RES1    0.0000
     12 H5         9.4564    6.6602    2.2258 H         1 RES1    0.0000
     13 C8        10.5592    5.4468    3.2817 C.2       1 RES1    0.0000
     14 C9        11.9513    5.0562    3.6628 C.2       1 RES1    0.0000
     15 C10       12.1677    4.7553    5.1014 C.3       1 RES1    0.0000
     16 H6        12.1600    5.6017    5.6163 H         1 RES1    0.0000
     17 H7        13.0567    4.3369    5.2176 H         1 RES1    0.0000
     18 C11       11.1081    3.8318    5.6445 C.3       1 RES1    0.0000
     19 H8        11.2449    3.7161    6.6177 H         1 RES1    0.0000
     20 H9        11.1985    2.9440    5.2176 H         1 RES1    0.0000
     21 C12        9.7053    4.3651    5.3973 C.3       1 RES1    0.0000
     22 H10        9.5880    5.2150    5.8894 H         1 RES1    0.0000
     23 H11        9.0438    3.7161    5.7465 H         1 RES1    0.0000
     24 C13        9.4382    4.6060    3.8956 C.3       1 RES1    0.0000
     25 H12        9.4725    3.7106    3.4501 H         1 RES1    0.0000
     26 C14        8.0572    5.1613    3.6479 C.2       1 RES1    0.0000
     27 C15        7.4712    6.3132    4.2913 C.ar      1 RES1    0.0000
     28 C16        7.9434    7.3109    5.1637 C.ar      1 RES1    0.0000
     29 H13        8.8452    7.2988    5.4640 H         1 RES1    0.0000
     30 C17        7.0853    8.3038    5.5778 C.ar      1 RES1    0.0000
     31 H14        7.3996    8.9724    6.1750 H         1 RES1    0.0000
     32 C18        5.7590    8.3470    5.1369 C.ar      1 RES1    0.0000
     33 H15        5.1916    9.0467    5.4373 H         1 RES1    0.0000
     34 C19        5.2620    7.3958    4.2772 C.ar      1 RES1    0.0000
     35 H16        4.3607    7.4254    3.9791 H         1 RES1    0.0000
     36 C20        6.1278    6.3853    3.8589 C.ar      1 RES1    0.0000
     37 C21        7.0837    4.6086    2.8394 C.2       1 RES1    0.0000
     38 C22        7.1149    3.4540    1.9368 C.ar      1 RES1    0.0000
     39 C23        8.2264    3.1836    1.1347 C.ar      1 RES1    0.0000
     40 H17        8.9892    3.7492    1.1772 H         1 RES1    0.0000
     41 C24        8.2230    2.0926    0.2736 C.ar      1 RES1    0.0000
     42 H18        8.9893    1.9104   -0.2574 H         1 RES1    0.0000
     43 C25        7.1225    1.2756    0.1824 C.ar      1 RES1    0.0000
     44 H19        7.1285    0.5313   -0.4081 H         1 RES1    0.0000
     45 C26        6.0062    1.5422    0.9540 C.ar      1 RES1    0.0000
     46 H20        5.2381    0.9882    0.8837 H         1 RES1    0.0000
     47 C27        6.0081    2.6152    1.8279 C.ar      1 RES1    0.0000
     48 H21        5.2411    2.7830    2.3623 H         1 RES1    0.0000
     49 N1        12.2184    5.8908    0.2237 N.pl3     1 RES1    0.0000
     50 N2         5.9123    5.3460    2.9952 N.pl3     1 RES1    0.0000
     51 H22        5.1473    5.1696    2.5978 H         1 RES1    0.0000
     52 O1        13.3723    5.2232    0.1177 O.2       1 RES1    0.0000
     53 O2        11.1105    5.3885    0.0510 O.2       1 RES1    0.0000
     54 O3        12.8583    5.0105    2.8438 O.2       1 RES1    0.0000
     55 O4        13.1038    5.6582   -0.5698 Du        2 SUP2    0.0000
@<TRIPOS>BOND
     1    1    2 ar
     2    2    3 1
     3    4    2 ar
     4    5    4 1
     5    6    4 ar
     6    7    6 1
     7    8    6 ar
     8    9    8 1
     9   10    1 ar
    10   11   10 1
    11   12   11 1
    12   13   11 2
    13   14   13 1
    14   15   14 1
    15   16   15 1
    16   17   15 1
    17   18   15 1
    18   19   18 1
    19   20   18 1
    20   21   18 1
    21   22   21 1
    22   23   21 1
    23   24   13 1
    24   25   24 1
    25   26   24 1
    26   27   26 1
    27   28   27 ar
    28   29   28 1
    29   30   28 ar
    30   31   30 1
    31   32   30 ar
    32   33   32 1
    33   34   32 ar
    34   35   34 1
    35   36   27 ar
    36   37   26 2
    37   38   37 1
    38   39   38 ar
    39   40   39 1
    40   41   39 ar
    41   42   41 1
    42   43   41 ar
    43   44   43 1
    44   45   43 ar
    45   46   45 1
    46   47   38 ar
    47   48   47 1
    48   49    1 1
    49   50   36 1
    50   51   50 1
    51   52   49 2
    52   53   49 2
    53   54   14 2
    54    8   10 ar
    55   21   24 1
    56   34   36 ar
    57   37   50 1
    58   45   47 ar
@<TRIPOS>SUBSTRUCTURE
     1 RES1 1
     2 SUP2 55

@<TRIPOS>CRYSIN
   9.9265   13.7635   16.0077  90.0000 101.3140  90.0000  14 1

