# MOL2 file generated by ConQuest
# Please check atom types

@<TRIPOS>MOLECULE
XIKMUC
    51    55     1
SMALL
NO_CHARGES
****
Generated from CSD

@<TRIPOS>ATOM
      1 N1         0.9904    8.7752    1.2606 N.am      1 RES1    0.0000
      2 O1         0.9694   10.9413    0.4973 O.2       1 RES1    0.0000
      3 O2         1.3912    6.5084    1.3744 O.2       1 RES1    0.0000
      4 O3         1.5875    9.0707    2.4790 O.3       1 RES1    0.0000
      5 O4        -2.5470    9.8116    2.2209 O.3       1 RES1    0.0000
      6 O5        -1.5565    7.8268    2.0206 O.2       1 RES1    0.0000
      7 O6         0.7593   10.5004    5.5617 O.3       1 RES1    0.0000
      8 O7         2.7179   10.2537    4.4829 O.2       1 RES1    0.0000
      9 C1         0.7421    9.7746    0.3175 C.2       1 RES1    0.0000
     10 C2         0.1208    9.0573   -0.8652 C.3       1 RES1    0.0000
     11 H1        -0.8513    9.2853   -0.9140 H         1 RES1    0.0000
     12 C3         0.2745    7.5406   -0.5593 C.3       1 RES1    0.0000
     13 H2        -0.6294    7.1176   -0.5035 H         1 RES1    0.0000
     14 C4         0.9534    7.4628    0.7883 C.2       1 RES1    0.0000
     15 C5         0.7940    9.3887   -2.2287 C.3       1 RES1    0.0000
     16 H3         0.6973   10.3533   -2.4731 H         1 RES1    0.0000
     17 C6         0.1322    8.4716   -3.2414 C.ar      1 RES1    0.0000
     18 C7         0.3029    7.1119   -2.9578 C.ar      1 RES1    0.0000
     19 C8         1.0997    6.8577   -1.6882 C.3       1 RES1    0.0000
     20 H4         1.2385    5.8819   -1.5180 H         1 RES1    0.0000
     21 C9         2.2460    8.9638   -2.1340 C.ar      1 RES1    0.0000
     22 C10        2.4085    7.6078   -1.8247 C.ar      1 RES1    0.0000
     23 C11       -0.5859    8.8619   -4.3607 C.ar      1 RES1    0.0000
     24 H5        -0.7006    9.7837   -4.5583 H         1 RES1    0.0000
     25 C12       -1.1389    7.8908   -5.1957 C.ar      1 RES1    0.0000
     26 H6        -1.6359    8.1532   -5.9618 H         1 RES1    0.0000
     27 C13       -0.9663    6.5490   -4.9124 C.ar      1 RES1    0.0000
     28 H7        -1.3456    5.8952   -5.4875 H         1 RES1    0.0000
     29 C14       -0.2426    6.1457   -3.7920 C.ar      1 RES1    0.0000
     30 H8        -0.1237    5.2224   -3.6021 H         1 RES1    0.0000
     31 C15        3.3471    9.7620   -2.3948 C.ar      1 RES1    0.0000
     32 H9         3.2375   10.6856   -2.5876 H         1 RES1    0.0000
     33 C16        4.6161    9.1930   -2.3700 C.ar      1 RES1    0.0000
     34 H10        5.3751    9.7268   -2.5725 H         1 RES1    0.0000
     35 C17        4.7819    7.8550   -2.0530 C.ar      1 RES1    0.0000
     36 H11        5.6535    7.4775   -2.0409 H         1 RES1    0.0000
     37 C18        3.6809    7.0593   -1.7529 C.ar      1 RES1    0.0000
     38 H12        3.7992    6.1510   -1.5018 H         1 RES1    0.0000
     39 C19        0.7026    9.5209    3.4402 C.2       1 RES1    0.0000
     40 C20        1.5294   10.1300    4.5458 C.2       1 RES1    0.0000
     41 C21        1.4399   11.1723    6.6522 C.3       1 RES1    0.0000
     42 H13        0.7838   11.4514    7.3242 H         1 RES1    0.0000
     43 H14        1.9104   11.9602    6.3075 H         1 RES1    0.0000
     44 H15        2.0857   10.5594    7.0617 H         1 RES1    0.0000
     45 C22       -0.6251    9.5092    3.4566 C.2       1 RES1    0.0000
     46 H16       -1.0194    9.9336    4.2093 H         1 RES1    0.0000
     47 C23       -1.5926    8.9367    2.4812 C.2       1 RES1    0.0000
     48 C24       -3.5593    9.3903    1.2683 C.3       1 RES1    0.0000
     49 H17       -4.2351   10.0948    1.1766 H         1 RES1    0.0000
     50 H18       -3.9860    8.5679    1.5871 H         1 RES1    0.0000
     51 H19       -3.1403    9.2236    0.3987 H         1 RES1    0.0000
@<TRIPOS>BOND
     1    1    4 1
     2    2    9 2
     3    3   14 2
     4    4   39 1
     5    5   47 1
     6    6   47 2
     7    7   40 1
     8    8   40 2
     9    9    1 1
    10   10    9 1
    11   11   10 1
    12   12   10 1
    13   13   12 1
    14   14    1 1
    15   15   10 1
    16   16   15 1
    17   17   15 1
    18   18   17 ar
    19   19   12 1
    20   20   19 1
    21   21   15 1
    22   22   19 1
    23   23   17 ar
    24   24   23 1
    25   25   23 ar
    26   26   25 1
    27   27   25 ar
    28   28   27 1
    29   29   18 ar
    30   30   29 1
    31   31   21 ar
    32   32   31 1
    33   33   31 ar
    34   34   33 1
    35   35   33 ar
    36   36   35 1
    37   37   22 ar
    38   38   37 1
    39   39   40 1
    40   41    7 1
    41   42   41 1
    42   43   41 1
    43   44   41 1
    44   45   39 2
    45   46   45 1
    46   47   45 1
    47   48    5 1
    48   49   48 1
    49   50   48 1
    50   51   48 1
    51   12   14 1
    52   18   19 1
    53   21   22 ar
    54   27   29 ar
    55   35   37 ar
@<TRIPOS>SUBSTRUCTURE
     1 RES1 1

@<TRIPOS>CRYSIN
   8.1160   11.3300   11.9749 112.9840  99.6600  92.2100   2 1

