# MOL2 file generated by ConQuest
# Please check atom types

@<TRIPOS>MOLECULE
XIKXUM
    34    36     1
SMALL
NO_CHARGES
****
Generated from CSD

@<TRIPOS>ATOM
      1 C1         1.0586    2.6225    9.8954 C.2       1 RES1    0.0000
      2 C2         0.9985    3.4432   10.9431 C.2       1 RES1    0.0000
      3 C3         0.9830    3.0821   12.3559 C.2       1 RES1    0.0000
      4 C4         0.6900    3.3598   14.5026 C.ar      1 RES1    0.0000
      5 C5         1.2418    2.1037   14.2299 C.ar      1 RES1    0.0000
      6 C6         0.3930    3.7820   15.7896 C.ar      1 RES1    0.0000
      7 C7         1.5214    1.2219   15.2803 C.ar      1 RES1    0.0000
      8 C8         1.2073    1.6356   16.5467 C.ar      1 RES1    0.0000
      9 C9         0.6591    2.8956   16.8027 C.ar      1 RES1    0.0000
     10 C10        0.0101    5.3171   13.0536 C.3       1 RES1    0.0000
     11 C11        1.1876    3.0046    8.4746 C.ar      1 RES1    0.0000
     12 C12        1.7848    4.2088    8.1272 C.ar      1 RES1    0.0000
     13 C13        0.7399    2.1740    7.4537 C.ar      1 RES1    0.0000
     14 C14        1.4302    3.7649    5.8004 C.ar      1 RES1    0.0000
     15 C15        1.9101    4.5903    6.8107 C.ar      1 RES1    0.0000
     16 C16        0.8471    2.5831    6.1288 C.ar      1 RES1    0.0000
     17 N1         1.4083    1.9389   12.8641 N.2       1 RES1    0.0000
     18 N2         0.5526    3.9797   13.2872 N.pl3     1 RES1    0.0000
     19 N3         1.0130    1.1747   10.1139 N.pl3     1 RES1    0.0000
     20 O1        -0.0748    0.6783   10.3834 O.2       1 RES1    0.0000
     21 O2         2.0483    0.5568    9.9892 O.2       1 RES1    0.0000
     22 H1        -0.0250    4.6619   15.9761 H         1 RES1    0.0000
     23 H2         0.6248    3.2436   17.5904 H         1 RES1    0.0000
     24 H3         1.4309    0.9586   17.3121 H         1 RES1    0.0000
     25 H4         1.9924    0.3480   15.1133 H         1 RES1    0.0000
     26 H5         0.2565    1.3395    7.6541 H         1 RES1    0.0000
     27 H6         2.3502    5.4695    6.4851 H         1 RES1    0.0000
     28 H7         1.4992    4.0184    4.6759 H         1 RES1    0.0000
     29 H8         2.1983    4.7275    8.7952 H         1 RES1    0.0000
     30 H9         0.3953    1.9829    5.5109 H         1 RES1    0.0000
     31 H10       -0.6685    5.2397   12.3857 H         1 RES1    0.0000
     32 H11        0.7822    5.7781   12.5527 H         1 RES1    0.0000
     33 H12       -0.4367    5.5942   13.8051 H         1 RES1    0.0000
     34 H13        0.9892    4.3139   10.7769 H         1 RES1    0.0000
@<TRIPOS>BOND
     1    1    2 2
     2    2    3 1
     3    3   17 2
     4    4    5 ar
     5    5    7 ar
     6    6    4 ar
     7    7    8 ar
     8    8    9 ar
     9    9    6 ar
    10   10   18 1
    11   11    1 1
    12   12   11 ar
    13   13   11 ar
    14   14   15 ar
    15   15   12 ar
    16   16   13 ar
    17   17    5 1
    18   18    3 1
    19   19    1 1
    20   20   19 2
    21   21   19 2
    22   22    6 1
    23   23    9 1
    24   24    8 1
    25   25    7 1
    26   26   13 1
    27   27   15 1
    28   28   14 1
    29   29   12 1
    30   30   16 1
    31   31   10 1
    32   32   10 1
    33   33   10 1
    34   34    2 1
    35    4   18 1
    36   14   16 ar
@<TRIPOS>SUBSTRUCTURE
     1 RES1 1

@<TRIPOS>CRYSIN
   7.4690    6.5660   27.9190  90.0000  94.5000  90.0000  14 1

