# MOL2 file generated by ConQuest
# Please check atom types

@<TRIPOS>MOLECULE
XILHAE
    51    54     1
SMALL
NO_CHARGES
****
Generated from CSD

@<TRIPOS>ATOM
      1 O1        14.7549    0.9431   10.6277 O.2       1 RES1    0.0000
      2 O2        13.7211    5.5736   10.8529 O.3       1 RES1    0.0000
      3 O3        19.3349   -1.1454    5.8050 O.2       1 RES1    0.0000
      4 O4        13.7028    4.2517   12.7173 O.3       1 RES1    0.0000
      5 O5        14.4285   -0.8668    9.4843 O.2       1 RES1    0.0000
      6 N1        15.0492    0.1654    9.7001 N.pl3     1 RES1    0.0000
      7 C1        18.5406    6.3377    9.9796 C.ar      1 RES1    0.0000
      8 H1        18.8773    5.6896    9.4039 H         1 RES1    0.0000
      9 N2        16.3941    2.7506    9.6998 N.pl3     1 RES1    0.0000
     10 H2        15.7369    2.6126   10.2370 H         1 RES1    0.0000
     11 N3        17.0407    3.9581    9.7071 N.2       1 RES1    0.0000
     12 N4        14.6135    3.4510   13.4632 N.2       1 RES1    0.0000
     13 C2        17.8195    2.0019    7.9047 C.ar      1 RES1    0.0000
     14 H3        18.1723    2.8576    7.8138 H         1 RES1    0.0000
     15 C3        16.6942    4.7650   10.6587 C.2       1 RES1    0.0000
     16 C4        16.7883    1.7724    8.8476 C.ar      1 RES1    0.0000
     17 C5        19.2879    2.3609   13.5331 C.ar      1 RES1    0.0000
     18 H4        20.1602    2.5522   13.2735 H         1 RES1    0.0000
     19 C6        15.7640    3.5540   12.8318 C.2       1 RES1    0.0000
     20 C7        16.9157    2.7995   13.3681 C.ar      1 RES1    0.0000
     21 C8        17.3775    6.0795   10.7202 C.ar      1 RES1    0.0000
     22 C9        16.8740    7.0818   11.5525 C.ar      1 RES1    0.0000
     23 H5        16.0996    6.9257   12.0432 H         1 RES1    0.0000
     24 C10       19.0457    1.3483   14.4492 C.ar      1 RES1    0.0000
     25 H6        19.7540    0.8618   14.8050 H         1 RES1    0.0000
     26 C11       18.6818    8.5486   10.9393 C.ar      1 RES1    0.0000
     27 H7        19.1198    9.3653   11.0171 H         1 RES1    0.0000
     28 C12       17.7411    1.0628   14.8338 C.ar      1 RES1    0.0000
     29 H8        17.5784    0.3932   15.4584 H         1 RES1    0.0000
     30 C13       19.1905    7.5586   10.1044 C.ar      1 RES1    0.0000
     31 H9        19.9722    7.7159    9.6257 H         1 RES1    0.0000
     32 C14       16.1870    0.4832    8.8500 C.ar      1 RES1    0.0000
     33 C15       15.6761    4.4072   11.6808 C.2       1 RES1    0.0000
     34 C16       18.2295    3.0917   13.0005 C.ar      1 RES1    0.0000
     35 H10       18.3990    3.7784   12.3969 H         1 RES1    0.0000
     36 C17       16.6821    1.7722   14.2908 C.ar      1 RES1    0.0000
     37 H11       15.8105    1.5649   14.5405 H         1 RES1    0.0000
     38 C18       18.3068    0.9882    7.1248 C.ar      1 RES1    0.0000
     39 H12       18.9975    1.1485    6.5229 H         1 RES1    0.0000
     40 C19       14.3656    4.7880   11.6877 C.2       1 RES1    0.0000
     41 C20       17.7545   -0.2908    7.2424 C.ar      1 RES1    0.0000
     42 C21       17.5166    8.3101   11.6553 C.ar      1 RES1    0.0000
     43 H13       17.1655    8.9732   12.2050 H         1 RES1    0.0000
     44 C22       16.6808   -0.5431    8.0648 C.ar      1 RES1    0.0000
     45 H14       16.2940   -1.3885    8.0923 H         1 RES1    0.0000
     46 O6        17.9477   -2.5337    6.7211 O.2       1 RES1    0.0000
     47 N5        18.3756   -1.3946    6.5332 N.pl3     1 RES1    0.0000
     48 C23       12.2916    5.7312   11.0707 C.3       1 RES1    0.0000
     49 H15       11.9377    6.3557   10.4333 H         1 RES1    0.0000
     50 H16       12.1377    6.0594   11.9597 H         1 RES1    0.0000
     51 H17       11.8560    4.8825   10.9631 H         1 RES1    0.0000
@<TRIPOS>BOND
     1    1    6 2
     2    2   40 1
     3    3   47 2
     4    4   12 1
     5    5    6 2
     6    6   32 1
     7    7    8 1
     8    9   10 1
     9   11    9 1
    10   12   19 2
    11   13   14 1
    12   15   11 2
    13   16    9 1
    14   17   18 1
    15   19   20 1
    16   20   34 ar
    17   21    7 ar
    18   22   21 ar
    19   23   22 1
    20   24   17 ar
    21   25   24 1
    22   26   27 1
    23   28   24 ar
    24   29   28 1
    25   30    7 ar
    26   31   30 1
    27   32   16 ar
    28   33   15 1
    29   34   17 ar
    30   35   34 1
    31   36   20 ar
    32   37   36 1
    33   38   13 ar
    34   39   38 1
    35   40    4 1
    36   41   38 ar
    37   42   22 ar
    38   43   42 1
    39   44   32 ar
    40   45   44 1
    41   46   47 2
    42   47   41 1
    43   48    2 1
    44   49   48 1
    45   50   48 1
    46   51   48 1
    47   13   16 ar
    48   15   21 1
    49   19   33 1
    50   26   30 ar
    51   26   42 ar
    52   28   36 ar
    53   33   40 2
    54   41   44 ar
@<TRIPOS>SUBSTRUCTURE
     1 RES1 1

@<TRIPOS>CRYSIN
  15.9253    9.0209   28.8978  90.0000  90.0000  90.0000  61 1

