# MOL2 file generated by ConQuest
# Please check atom types

@<TRIPOS>MOLECULE
XIMJAE
    52    54     1
SMALL
NO_CHARGES
****
Generated from CSD

@<TRIPOS>ATOM
      1 O1         5.2330    9.8098    7.6192 O.3       1 RES1    0.0000
      2 C1         4.3313    8.9564    8.3397 C.3       1 RES1    0.0000
      3 H1         3.8682    9.4795    9.0424 H         1 RES1    0.0000
      4 C2         3.3032    8.4212    7.3308 C.3       1 RES1    0.0000
      5 H2         3.4506    7.4513    7.1961 H         1 RES1    0.0000
      6 C3         3.6506    9.1715    6.0424 C.3       1 RES1    0.0000
      7 H3         2.8387    9.4714    5.5615 H         1 RES1    0.0000
      8 C4         4.4864   10.3420    6.5177 C.3       1 RES1    0.0000
      9 H4         3.8766   11.0409    6.8629 H         1 RES1    0.0000
     10 C5         5.2008    7.9058    8.9821 C.3       1 RES1    0.0000
     11 H5         5.6135    7.3370    8.2994 H         1 RES1    0.0000
     12 H6         5.9103    8.3239    9.5130 H         1 RES1    0.0000
     13 C6         1.8597    8.6571    7.7601 C.3       1 RES1    0.0000
     14 H7         1.6660    9.6075    7.7365 H         1 RES1    0.0000
     15 H8         1.7320    8.3239    8.6619 H         1 RES1    0.0000
     16 H9         1.2618    8.1905    7.1556 H         1 RES1    0.0000
     17 C7         5.4177   10.9754    5.5148 C.3       1 RES1    0.0000
     18 H10        5.8184   11.7691    5.9014 H         1 RES1    0.0000
     19 H11        4.9187   11.2192    4.7194 H         1 RES1    0.0000
     20 H12        6.1152   10.3439    5.2778 H         1 RES1    0.0000
     21 O2         4.3205    7.1234    9.8343 O.3       1 RES1    0.0000
     22 O3         6.0907    5.9134   10.4706 O.2       1 RES1    0.0000
     23 C8         4.9138    6.1535   10.5251 C.2       1 RES1    0.0000
     24 C9         3.9608    5.4144   11.4037 C.ar      1 RES1    0.0000
     25 C10        4.4836    4.4967   12.3030 C.ar      1 RES1    0.0000
     26 H13        5.4106    4.3437   12.3253 H         1 RES1    0.0000
     27 C11        3.6625    3.8110   13.1613 C.ar      1 RES1    0.0000
     28 H14        4.0155    3.1893   13.7708 H         1 RES1    0.0000
     29 C12        2.3158    4.0553   13.1066 C.ar      1 RES1    0.0000
     30 C13        1.7509    4.9441   12.2156 C.ar      1 RES1    0.0000
     31 H15        0.8211    5.0787   12.1924 H         1 RES1    0.0000
     32 C14        2.5853    5.6299   11.3586 C.ar      1 RES1    0.0000
     33 H16        2.2260    6.2426   10.7446 H         1 RES1    0.0000
     34 N1         1.4232    3.3146   14.0261 N.pl3     1 RES1    0.0000
     35 O4         1.9327    2.6556   14.9146 O.2       1 RES1    0.0000
     36 O5         0.2211    3.3937   13.8496 O.2       1 RES1    0.0000
     37 O6         4.5083    8.3650    5.1956 O.3       1 RES1    0.0000
     38 O7         2.7034    7.4301    4.2566 O.2       1 RES1    0.0000
     39 C15        3.8976    7.5380    4.3449 C.2       1 RES1    0.0000
     40 C16        4.8773    6.7759    3.5177 C.ar      1 RES1    0.0000
     41 C17        4.3826    5.9728    2.4941 C.ar      1 RES1    0.0000
     42 H17        3.4576    5.9417    2.3304 H         1 RES1    0.0000
     43 C18        5.2429    5.2225    1.7193 C.ar      1 RES1    0.0000
     44 H18        4.9159    4.6595    1.0402 H         1 RES1    0.0000
     45 C19        6.5910    5.3206    1.9681 C.ar      1 RES1    0.0000
     46 C20        7.1202    6.1232    2.9618 C.ar      1 RES1    0.0000
     47 H19        8.0486    6.1731    3.1005 H         1 RES1    0.0000
     48 C21        6.2436    6.8488    3.7426 C.ar      1 RES1    0.0000
     49 H20        6.5749    7.3955    4.4311 H         1 RES1    0.0000
     50 N2         7.5215    4.5557    1.1238 N.pl3     1 RES1    0.0000
     51 O8         7.0737    3.5931    0.5152 O.2       1 RES1    0.0000
     52 O9         8.6863    4.9184    1.0666 O.2       1 RES1    0.0000
@<TRIPOS>BOND
     1    1    2 1
     2    2    3 1
     3    4    2 1
     4    5    4 1
     5    6    4 1
     6    7    6 1
     7    8    1 1
     8    9    8 1
     9   10    2 1
    10   11   10 1
    11   12   10 1
    12   13    4 1
    13   14   13 1
    14   15   13 1
    15   16   13 1
    16   17    8 1
    17   18   17 1
    18   19   17 1
    19   20   17 1
    20   21   10 1
    21   22   23 2
    22   23   21 1
    23   24   23 1
    24   25   24 ar
    25   26   25 1
    26   27   25 ar
    27   28   27 1
    28   29   27 ar
    29   30   29 ar
    30   31   30 1
    31   32   24 ar
    32   33   32 1
    33   34   29 1
    34   35   34 2
    35   36   34 2
    36   37    6 1
    37   38   39 2
    38   39   37 1
    39   40   39 1
    40   41   40 ar
    41   42   41 1
    42   43   41 ar
    43   44   43 1
    44   45   43 ar
    45   46   45 ar
    46   47   46 1
    47   48   40 ar
    48   49   48 1
    49   50   45 1
    50   51   50 2
    51   52   50 2
    52    6    8 1
    53   30   32 ar
    54   46   48 ar
@<TRIPOS>SUBSTRUCTURE
     1 RES1 1

@<TRIPOS>CRYSIN
   7.0177   13.6122   22.5160  90.0000  90.0000  90.0000  19 1

