# MOL2 file generated by ConQuest
# Please check atom types

@<TRIPOS>MOLECULE
XIMJEI
    52    54     1
SMALL
NO_CHARGES
****
Generated from CSD

@<TRIPOS>ATOM
      1 O1         3.6154   20.2612    0.2958 O.3       1 RES1    0.0000
      2 C1         4.2052   20.9729    1.4048 C.3       1 RES1    0.0000
      3 H1         3.7938   21.8698    1.4761 H         1 RES1    0.0000
      4 C2         5.6792   21.1191    1.0501 C.3       1 RES1    0.0000
      5 H2         6.2629   21.1254    1.8503 H         1 RES1    0.0000
      6 C3         5.9361   19.9276    0.1536 C.3       1 RES1    0.0000
      7 H3         5.9745   19.1201    0.7262 H         1 RES1    0.0000
      8 C4         4.6359   19.8777   -0.6298 C.3       1 RES1    0.0000
      9 H4         4.6798   20.5671   -1.3385 H         1 RES1    0.0000
     10 C5         4.2729   18.5727   -1.2757 C.3       1 RES1    0.0000
     11 H5         3.3806   18.6371   -1.6757 H         1 RES1    0.0000
     12 H6         4.9147   18.3632   -1.9865 H         1 RES1    0.0000
     13 C6         7.2148   19.9745   -0.6710 C.3       1 RES1    0.0000
     14 H7         7.9828   19.9523   -0.0789 H         1 RES1    0.0000
     15 H8         7.2329   20.7908   -1.1940 H         1 RES1    0.0000
     16 H9         7.2442   19.2079   -1.2659 H         1 RES1    0.0000
     17 C7         3.9703   20.2047    2.6945 C.3       1 RES1    0.0000
     18 H10        3.0203   20.0443    2.8076 H         1 RES1    0.0000
     19 H11        4.3022   20.7218    3.4444 H         1 RES1    0.0000
     20 H12        4.4385   19.3564    2.6554 H         1 RES1    0.0000
     21 O2         4.2894   17.5201   -0.2692 O.3       1 RES1    0.0000
     22 O3         4.4073   16.0208   -1.9250 O.2       1 RES1    0.0000
     23 C8         4.3419   16.2807   -0.7527 C.2       1 RES1    0.0000
     24 C9         4.2730   15.2327    0.3219 C.ar      1 RES1    0.0000
     25 C10        4.4445   13.9054   -0.0712 C.ar      1 RES1    0.0000
     26 H13        4.6179   13.7023   -0.9726 H         1 RES1    0.0000
     27 C11        4.3603   12.8896    0.8560 C.ar      1 RES1    0.0000
     28 H14        4.4910   11.9940    0.6047 H         1 RES1    0.0000
     29 C12        4.0780   13.2283    2.1673 C.ar      1 RES1    0.0000
     30 C13        3.8900   14.5251    2.5883 C.ar      1 RES1    0.0000
     31 H15        3.6851   14.7165    3.4856 H         1 RES1    0.0000
     32 C14        4.0110   15.5424    1.6520 C.ar      1 RES1    0.0000
     33 H16        3.9161   16.4394    1.9166 H         1 RES1    0.0000
     34 N1         3.9419   12.1320    3.1434 N.pl3     1 RES1    0.0000
     35 O4         4.4448   11.0564    2.8858 O.2       1 RES1    0.0000
     36 O5         3.3173   12.3499    4.1712 O.2       1 RES1    0.0000
     37 O6         5.8760   22.2978    0.2041 O.3       1 RES1    0.0000
     38 O7         5.6994   23.6712    1.9725 O.2       1 RES1    0.0000
     39 C15        5.8607   23.4947    0.7869 C.2       1 RES1    0.0000
     40 C16        6.0674   24.5885   -0.2046 C.ar      1 RES1    0.0000
     41 C17        5.9871   25.9069    0.2409 C.ar      1 RES1    0.0000
     42 H17        5.8083   26.0831    1.1465 H         1 RES1    0.0000
     43 C18        6.1691   26.9593   -0.6424 C.ar      1 RES1    0.0000
     44 H18        6.0881   27.8521   -0.3561 H         1 RES1    0.0000
     45 C19        6.4723   26.6573   -1.9536 C.ar      1 RES1    0.0000
     46 C20        6.5726   25.3607   -2.4270 C.ar      1 RES1    0.0000
     47 H19        6.7860   25.1903   -3.3271 H         1 RES1    0.0000
     48 C21        6.3517   24.3302   -1.5466 C.ar      1 RES1    0.0000
     49 H20        6.3921   23.4422   -1.8510 H         1 RES1    0.0000
     50 N2         6.7269   27.7731   -2.8851 N.pl3     1 RES1    0.0000
     51 O8         6.2554   28.8617   -2.6184 O.2       1 RES1    0.0000
     52 O9         7.4272   27.5552   -3.8647 O.2       1 RES1    0.0000
@<TRIPOS>BOND
     1    1    2 1
     2    2    3 1
     3    4    2 1
     4    5    4 1
     5    6    4 1
     6    7    6 1
     7    8    1 1
     8    9    8 1
     9   10    8 1
    10   11   10 1
    11   12   10 1
    12   13    6 1
    13   14   13 1
    14   15   13 1
    15   16   13 1
    16   17    2 1
    17   18   17 1
    18   19   17 1
    19   20   17 1
    20   21   10 1
    21   22   23 2
    22   23   21 1
    23   24   23 1
    24   25   24 ar
    25   26   25 1
    26   27   25 ar
    27   28   27 1
    28   29   27 ar
    29   30   29 ar
    30   31   30 1
    31   32   24 ar
    32   33   32 1
    33   34   29 1
    34   35   34 2
    35   36   34 2
    36   37    4 1
    37   38   39 2
    38   39   37 1
    39   40   39 1
    40   41   40 ar
    41   42   41 1
    42   43   41 ar
    43   44   43 1
    44   45   43 ar
    45   46   45 ar
    46   47   46 1
    47   48   40 ar
    48   49   48 1
    49   50   45 1
    50   51   50 2
    51   52   50 2
    52    6    8 1
    53   30   32 ar
    54   46   48 ar
@<TRIPOS>SUBSTRUCTURE
     1 RES1 1

@<TRIPOS>CRYSIN
   6.9620   20.9100    7.2754  90.0000 106.3190  90.0000   4 1

