# MOL2 file generated by ConQuest
# Please check atom types

@<TRIPOS>MOLECULE
XIMPAN
    28    30     1
SMALL
NO_CHARGES
****
Generated from CSD

@<TRIPOS>ATOM
      1 C1         2.5654    1.0229    7.3644 C.2       1 RES1    0.0000
      2 C2         3.8660    0.4448    7.8012 C.3       1 RES1    0.0000
      3 H1         3.8234    0.2239    8.7448 H         1 RES1    0.0000
      4 H2         4.5711    1.0996    7.6764 H         1 RES1    0.0000
      5 C3         4.1872   -0.8150    6.9924 C.3       1 RES1    0.0000
      6 H3         4.4549   -0.5612    6.0956 H         1 RES1    0.0000
      7 H4         4.9317   -1.2807    7.4065 H         1 RES1    0.0000
      8 C4         2.9861   -1.7523    6.9158 C.3       1 RES1    0.0000
      9 H5         2.7477   -2.0459    7.8091 H         1 RES1    0.0000
     10 H6         3.2203   -2.5365    6.3942 H         1 RES1    0.0000
     11 C5         1.7858   -1.0536    6.2724 C.3       1 RES1    0.0000
     12 H7         1.0456   -1.6757    6.2032 H         1 RES1    0.0000
     13 H8         2.0200   -0.7612    5.3773 H         1 RES1    0.0000
     14 C6         1.3659    0.1558    7.1153 C.3       1 RES1    0.0000
     15 C7         0.6466   -0.2576    8.4262 C.3       1 RES1    0.0000
     16 H9         0.2476   -1.1364    8.3342 H         1 RES1    0.0000
     17 H10        1.2714   -0.2756    9.1680 H         1 RES1    0.0000
     18 C8        -0.4283    0.7981    8.6563 C.3       1 RES1    0.0000
     19 H11       -0.0627    1.5762    9.1063 H         1 RES1    0.0000
     20 H12       -1.1601    0.4418    9.1841 H         1 RES1    0.0000
     21 C9        -0.8900    1.1483    7.2468 C.3       1 RES1    0.0000
     22 H13       -1.3266    2.0150    7.2269 H         1 RES1    0.0000
     23 H14       -1.5006    0.4776    6.9021 H         1 RES1    0.0000
     24 C10        0.4107    1.1700    6.4524 C.3       1 RES1    0.0000
     25 N1         2.3880    2.2592    7.1163 N.2       1 RES1    0.0000
     26 O1         1.0428    2.4684    6.7024 O.3       1 RES1    0.0000
     27 O2         0.2885    0.9823    5.0913 O.3       1 RES1    0.0000
     28 H15       -0.3337    1.4349    4.8076 H         1 RES1    0.0000
@<TRIPOS>BOND
     1    1    2 1
     2    2    3 1
     3    4    2 1
     4    5    2 1
     5    6    5 1
     6    7    5 1
     7    8    5 1
     8    9    8 1
     9   10    8 1
    10   11    8 1
    11   12   11 1
    12   13   11 1
    13   14    1 1
    14   15   14 1
    15   16   15 1
    16   17   15 1
    17   18   15 1
    18   19   18 1
    19   20   18 1
    20   21   18 1
    21   22   21 1
    22   23   21 1
    23   24   14 1
    24   25    1 2
    25   26   24 1
    26   27   24 1
    27   28   27 1
    28   11   14 1
    29   21   24 1
    30   25   26 1
@<TRIPOS>SUBSTRUCTURE
     1 RES1 1

@<TRIPOS>CRYSIN
   8.3644    9.9508   11.4386  90.0000  90.0000  90.0000  19 1

