# MOL2 file generated by ConQuest
# Please check atom types

@<TRIPOS>MOLECULE
XIMROD
    94   100     1
SMALL
NO_CHARGES
****
Generated from CSD

@<TRIPOS>ATOM
      1 O1       -11.0917  -12.6949  -13.6989 O.2       1 RES1    0.0000
      2 O2        -8.9285   -6.1257  -15.6717 O.3       1 RES1    0.0000
      3 O3        -3.2966   -3.7377  -10.9221 O.3       1 RES1    0.0000
      4 O4       -10.8607  -12.6882  -15.8504 O.2       1 RES1    0.0000
      5 O5        -9.9861   -5.8780  -13.6943 O.2       1 RES1    0.0000
      6 O6        -6.3416   -4.6254  -15.8473 O.3       1 RES1    0.0000
      7 O7        -4.0720   -5.6855  -12.6762 O.3       1 RES1    0.0000
      8 O8        -5.7135   -0.1592  -14.6564 O.3       1 RES1    0.0000
      9 O9        -3.5958    0.2703  -15.2578 O.2       1 RES1    0.0000
     10 N1       -10.8233  -12.1373  -14.7581 N.pl3     1 RES1    0.0000
     11 C1       -10.4314  -10.7161  -14.7039 C.ar      1 RES1    0.0000
     12 C2       -10.6325  -10.0185  -13.5271 C.ar      1 RES1    0.0000
     13 H1       -10.9556  -10.4444  -12.7663 H         1 RES1    0.0000
     14 C3       -10.3377   -8.6655  -13.5168 C.ar      1 RES1    0.0000
     15 H2       -10.4809   -8.1666  -12.7457 H         1 RES1    0.0000
     16 C4        -9.8276   -8.0477  -14.6561 C.ar      1 RES1    0.0000
     17 C5        -9.5954   -6.5708  -14.5981 C.2       1 RES1    0.0000
     18 C6        -8.7825   -4.6805  -15.7897 C.3       1 RES1    0.0000
     19 H3        -9.5450   -4.2507  -15.3710 H         1 RES1    0.0000
     20 H4        -8.7842   -4.4389  -16.7290 H         1 RES1    0.0000
     21 C7        -7.5241   -4.1662  -15.1552 C.3       1 RES1    0.0000
     22 C8        -7.1842   -4.5183  -13.7152 C.2       1 RES1    0.0000
     23 H5        -7.7799   -4.7665  -13.0458 H         1 RES1    0.0000
     24 C9        -5.8656   -4.3995  -13.6058 C.2       1 RES1    0.0000
     25 C10       -5.0013   -4.6155  -12.4029 C.3       1 RES1    0.0000
     26 H6        -5.5642   -4.8625  -11.6397 H         1 RES1    0.0000
     27 C11       -4.1441   -3.3985  -12.0274 C.3       1 RES1    0.0000
     28 H7        -3.5783   -3.1690  -12.7937 H         1 RES1    0.0000
     29 C12       -1.9928   -4.1968  -11.3056 C.3       1 RES1    0.0000
     30 H8        -1.6361   -3.6242  -12.0032 H         1 RES1    0.0000
     31 H9        -2.0535   -5.0987  -11.6568 H         1 RES1    0.0000
     32 C13       -1.0763   -4.1771  -10.1141 C.ar      1 RES1    0.0000
     33 C14       -0.1680   -5.1969   -9.9572 C.ar      1 RES1    0.0000
     34 H10       -0.1589   -5.9025  -10.5628 H         1 RES1    0.0000
     35 C15        0.7357   -5.1825   -8.9023 C.ar      1 RES1    0.0000
     36 H11        1.3507   -5.8735   -8.8103 H         1 RES1    0.0000
     37 C16        0.7240   -4.1477   -7.9893 C.ar      1 RES1    0.0000
     38 H12        1.3210   -4.1457   -7.2774 H         1 RES1    0.0000
     39 C17       -9.5974   -8.7874  -15.8132 C.ar      1 RES1    0.0000
     40 H13       -9.2299   -8.3770  -16.5627 H         1 RES1    0.0000
     41 C18       -9.9166  -10.1394  -15.8473 C.ar      1 RES1    0.0000
     42 H14       -9.7875  -10.6422  -16.6193 H         1 RES1    0.0000
     43 C19       -5.3718   -3.9690  -14.9913 C.3       1 RES1    0.0000
     44 C20       -4.7052   -6.9299  -12.9813 C.3       1 RES1    0.0000
     45 H15       -4.0257   -7.5755  -13.2310 H         1 RES1    0.0000
     46 H16       -5.2907   -6.8060  -13.7437 H         1 RES1    0.0000
     47 C21       -5.5086   -7.4859  -11.8334 C.ar      1 RES1    0.0000
     48 C22       -4.9496   -7.5669  -10.5673 C.ar      1 RES1    0.0000
     49 H17       -4.0831   -7.2613  -10.4256 H         1 RES1    0.0000
     50 C23       -5.6734   -8.1011   -9.5108 C.ar      1 RES1    0.0000
     51 H18       -5.2850   -8.1637   -8.6680 H         1 RES1    0.0000
     52 C24       -6.9638   -8.5397   -9.7054 C.ar      1 RES1    0.0000
     53 H19       -7.4458   -8.9035   -8.9973 H         1 RES1    0.0000
     54 C25       -7.5377   -8.4381  -10.9502 C.ar      1 RES1    0.0000
     55 H20       -8.4150   -8.7185  -11.0807 H         1 RES1    0.0000
     56 C26       -6.8135   -7.9183  -12.0135 C.ar      1 RES1    0.0000
     57 H21       -7.2070   -7.8600  -12.8537 H         1 RES1    0.0000
     58 C27       -4.9491   -2.1296  -11.6112 C.3       1 RES1    0.0000
     59 C28       -5.7597   -2.4411  -10.3354 C.3       1 RES1    0.0000
     60 H22       -6.2755   -3.2503  -10.4788 H         1 RES1    0.0000
     61 H23       -5.1455   -2.6067   -9.6026 H         1 RES1    0.0000
     62 C29       -6.7058   -1.3111   -9.9455 C.3       1 RES1    0.0000
     63 H24       -7.1699   -1.5411   -9.1259 H         1 RES1    0.0000
     64 H25       -6.1988   -0.4994   -9.7895 H         1 RES1    0.0000
     65 C30       -7.7161   -1.0800  -11.0596 C.3       1 RES1    0.0000
     66 H26       -8.3842   -1.7819  -11.0344 H         1 RES1    0.0000
     67 H27       -8.1668   -0.2341  -10.9109 H         1 RES1    0.0000
     68 C31       -7.0663   -1.0629  -12.4141 C.2       1 RES1    0.0000
     69 H28       -7.5345   -0.6532  -13.1058 H         1 RES1    0.0000
     70 C32       -5.8734   -1.5861  -12.7095 C.2       1 RES1    0.0000
     71 C33       -5.3209   -1.4708  -14.1207 C.3       1 RES1    0.0000
     72 H29       -4.3424   -1.5160  -14.0815 H         1 RES1    0.0000
     73 C34       -5.8228   -2.4765  -15.1710 C.3       1 RES1    0.0000
     74 H30       -5.4912   -2.1759  -16.0431 H         1 RES1    0.0000
     75 C35       -7.3563   -2.6289  -15.2922 C.3       1 RES1    0.0000
     76 H31       -7.6785   -2.3118  -16.1512 H         1 RES1    0.0000
     77 H32       -7.8175   -2.1567  -14.5822 H         1 RES1    0.0000
     78 C36       -4.7579    0.5838  -15.2249 C.2       1 RES1    0.0000
     79 C37       -5.3199    1.8238  -15.8495 C.3       1 RES1    0.0000
     80 H33       -5.5719    1.6388  -16.7565 H         1 RES1    0.0000
     81 H34       -4.6568    2.5181  -15.8356 H         1 RES1    0.0000
     82 H35       -6.0921    2.1096  -15.3555 H         1 RES1    0.0000
     83 C38       -3.9179   -1.0099  -11.3221 C.3       1 RES1    0.0000
     84 H36       -4.3793   -0.2108  -11.0584 H         1 RES1    0.0000
     85 H37       -3.4038   -0.8367  -12.1147 H         1 RES1    0.0000
     86 H38       -3.3320   -1.2896  -10.6143 H         1 RES1    0.0000
     87 C39       -0.1702   -3.1275   -8.1382 C.ar      1 RES1    0.0000
     88 H39       -0.1830   -2.4261   -7.5277 H         1 RES1    0.0000
     89 C40       -1.0579   -3.1402   -9.2010 C.ar      1 RES1    0.0000
     90 H40       -1.6550   -2.4353   -9.3025 H         1 RES1    0.0000
     91 C41       -3.9760   -4.3032  -15.4587 C.3       1 RES1    0.0000
     92 H41       -3.8995   -4.1158  -16.3964 H         1 RES1    0.0000
     93 H42       -3.8006   -5.2336  -15.3024 H         1 RES1    0.0000
     94 H43       -3.3399   -3.7725  -14.9731 H         1 RES1    0.0000
@<TRIPOS>BOND
     1    1   10 2
     2    2   17 1
     3    3   27 1
     4    4   10 2
     5    5   17 2
     6    6   21 1
     7    7   25 1
     8    8   71 1
     9    9   78 2
    10   10   11 1
    11   11   12 ar
    12   12   13 1
    13   14   12 ar
    14   15   14 1
    15   16   14 ar
    16   17   16 1
    17   18    2 1
    18   19   18 1
    19   20   18 1
    20   21   18 1
    21   22   21 1
    22   23   22 1
    23   24   22 2
    24   25   24 1
    25   26   25 1
    26   27   25 1
    27   28   27 1
    28   29    3 1
    29   30   29 1
    30   31   29 1
    31   32   29 1
    32   33   32 ar
    33   34   33 1
    34   35   33 ar
    35   36   35 1
    36   37   35 ar
    37   38   37 1
    38   39   16 ar
    39   40   39 1
    40   41   11 ar
    41   42   41 1
    42   43    6 1
    43   44    7 1
    44   45   44 1
    45   46   44 1
    46   47   44 1
    47   48   47 ar
    48   49   48 1
    49   50   48 ar
    50   51   50 1
    51   52   50 ar
    52   53   52 1
    53   54   52 ar
    54   55   54 1
    55   56   47 ar
    56   57   56 1
    57   58   27 1
    58   59   58 1
    59   60   59 1
    60   61   59 1
    61   62   59 1
    62   63   62 1
    63   64   62 1
    64   65   62 1
    65   66   65 1
    66   67   65 1
    67   68   65 1
    68   69   68 1
    69   70   58 1
    70   71   70 1
    71   72   71 1
    72   73   43 1
    73   74   73 1
    74   75   21 1
    75   76   75 1
    76   77   75 1
    77   78    8 1
    78   79   78 1
    79   80   79 1
    80   81   79 1
    81   82   79 1
    82   83   58 1
    83   84   83 1
    84   85   83 1
    85   86   83 1
    86   87   37 ar
    87   88   87 1
    88   89   32 ar
    89   90   89 1
    90   91   43 1
    91   92   91 1
    92   93   91 1
    93   94   91 1
    94   24   43 1
    95   39   41 ar
    96   54   56 ar
    97   68   70 2
    98   71   73 1
    99   73   75 1
   100   87   89 ar
@<TRIPOS>SUBSTRUCTURE
     1 RES1 1

@<TRIPOS>CRYSIN
   9.3426   10.9852   17.3448  81.9690  86.5420  88.1240   2 1

