# MOL2 file generated by ConQuest
# Please check atom types

@<TRIPOS>MOLECULE
XINFAE
    38    40     1
SMALL
NO_CHARGES
****
Generated from CSD

@<TRIPOS>ATOM
      1 O1         8.0793    5.2034    0.5073 O.2       1 RES1    0.0000
      2 O2         8.6599    6.6871    3.9379 O.3       1 RES1    0.0000
      3 H1         9.1752    6.5294    4.5556 H         1 RES1    0.0000
      4 O3         6.9932    8.9414    8.1278 O.2       1 RES1    0.0000
      5 O4         4.8964    9.2092    7.7721 O.2       1 RES1    0.0000
      6 N1         6.7137    4.8717   -1.3811 N.am      1 RES1    0.0000
      7 N2         5.3801    5.1806   -1.7334 N.2       1 RES1    0.0000
      8 N3         5.5663    6.5719    1.4778 N.2       1 RES1    0.0000
      9 N4         6.5676    6.5991    2.3370 N.pl3     1 RES1    0.0000
     10 H2         7.3588    6.2476    2.1258 H         1 RES1    0.0000
     11 N5         6.0076    8.8518    7.4189 N.pl3     1 RES1    0.0000
     12 C1         7.0183    5.3134   -0.1147 C.2       1 RES1    0.0000
     13 C2         5.7915    5.9658    0.3378 C.2       1 RES1    0.0000
     14 C3         4.8526    5.8271   -0.7361 C.2       1 RES1    0.0000
     15 C4         7.5812    4.2641   -2.3406 C.ar      1 RES1    0.0000
     16 C5         7.0780    3.7321   -3.5165 C.ar      1 RES1    0.0000
     17 H3         6.1605    3.7270   -3.6684 H         1 RES1    0.0000
     18 C6         7.9395    3.2074   -4.4666 C.ar      1 RES1    0.0000
     19 H4         7.5972    2.8633   -5.2601 H         1 RES1    0.0000
     20 C7         9.3022    3.1920   -4.2440 C.ar      1 RES1    0.0000
     21 H5         9.8797    2.8325   -4.8779 H         1 RES1    0.0000
     22 C8         9.7902    3.7189   -3.0667 C.ar      1 RES1    0.0000
     23 H6        10.7067    3.7079   -2.9102 H         1 RES1    0.0000
     24 C9         8.9509    4.2641   -2.1136 C.ar      1 RES1    0.0000
     25 H7         9.2982    4.6259   -1.3308 H         1 RES1    0.0000
     26 C10        3.4592    6.3554   -0.7506 C.3       1 RES1    0.0000
     27 H8         3.0921    6.2659   -1.6331 H         1 RES1    0.0000
     28 H9         3.4663    7.2822   -0.5004 H         1 RES1    0.0000
     29 H10        2.9219    5.8601   -0.1289 H         1 RES1    0.0000
     30 C11        6.3933    7.1832    3.5886 C.ar      1 RES1    0.0000
     31 C12        7.5199    7.2309    4.4308 C.ar      1 RES1    0.0000
     32 C13        7.3982    7.8054    5.6888 C.ar      1 RES1    0.0000
     33 H11        8.1309    7.8707    6.2563 H         1 RES1    0.0000
     34 C14        6.1559    8.2780    6.0770 C.ar      1 RES1    0.0000
     35 C15        5.0382    8.2171    5.2678 C.ar      1 RES1    0.0000
     36 H12        4.2171    8.5370    5.5656 H         1 RES1    0.0000
     37 C16        5.1695    7.6719    4.0090 C.ar      1 RES1    0.0000
     38 H13        4.4341    7.6323    3.4412 H         1 RES1    0.0000
@<TRIPOS>BOND
     1    1   12 2
     2    2    3 1
     3    4   11 2
     4    5   11 2
     5    6    7 1
     6    7   14 2
     7    8    9 1
     8    9   10 1
     9   11   34 1
    10   12    6 1
    11   13    8 2
    12   14   13 1
    13   15    6 1
    14   16   15 ar
    15   17   16 1
    16   18   16 ar
    17   19   18 1
    18   20   18 ar
    19   21   20 1
    20   22   20 ar
    21   23   22 1
    22   24   15 ar
    23   25   24 1
    24   26   14 1
    25   27   26 1
    26   28   26 1
    27   29   26 1
    28   30    9 1
    29   31    2 1
    30   32   31 ar
    31   33   32 1
    32   34   32 ar
    33   35   34 ar
    34   36   35 1
    35   37   30 ar
    36   38   37 1
    37   12   13 1
    38   22   24 ar
    39   30   31 ar
    40   35   37 ar
@<TRIPOS>SUBSTRUCTURE
     1 RES1 1

@<TRIPOS>CRYSIN
  13.4280    7.3380   15.7110  90.0000 102.3230  90.0000 231 1

