# MOL2 file generated by ConQuest
# Please check atom types

@<TRIPOS>MOLECULE
XINGAC
    23    24     1
SMALL
NO_CHARGES
****
Generated from CSD

@<TRIPOS>ATOM
      1 O1         5.7139    0.3246    7.7078 O.2       1 RES1    0.0000
      2 N1         4.5021    0.5210    7.7948 N.2       1 RES1    0.0000
      3 N2         4.0285    1.3608    6.9092 N.3       1 RES1    0.0000
      4 N3         1.9163    0.9983    5.8613 N.3       1 RES1    0.0000
      5 N4         1.5491    1.7686    4.7922 N.2       1 RES1    0.0000
      6 N5         0.9704    0.9952    3.9279 N.2       1 RES1    0.0000
      7 C1         4.8484    1.9974    5.9100 C.3       1 RES1    0.0000
      8 C2         2.5996    1.5946    6.9798 C.3       1 RES1    0.0000
      9 C3         1.5745   -0.3021    5.6479 C.ar      1 RES1    0.0000
     10 C4         1.7406   -1.4714    6.3869 C.ar      1 RES1    0.0000
     11 C5         1.2531   -2.6101    5.8129 C.ar      1 RES1    0.0000
     12 C6         0.6235   -2.6071    4.5699 C.ar      1 RES1    0.0000
     13 C7         0.4585   -1.4733    3.8448 C.ar      1 RES1    0.0000
     14 C8         0.9615   -0.2884    4.3994 C.ar      1 RES1    0.0000
     15 H1         2.2401   -1.5010    7.2733 H         1 RES1    0.0000
     16 H2         2.4785    2.5396    7.0412 H         1 RES1    0.0000
     17 H3         0.0292   -1.4897    3.0366 H         1 RES1    0.0000
     18 H4         2.2531    1.2609    7.9653 H         1 RES1    0.0000
     19 H5         4.2983    2.3615    5.2165 H         1 RES1    0.0000
     20 H6         0.2998   -3.5274    4.3094 H         1 RES1    0.0000
     21 H7         5.7277    2.1544    6.3299 H         1 RES1    0.0000
     22 H8         1.2816   -3.5378    6.3246 H         1 RES1    0.0000
     23 H9         5.3921    1.3423    5.5191 H         1 RES1    0.0000
@<TRIPOS>BOND
     1    1    2 2
     2    2    3 1
     3    3    7 1
     4    4    5 1
     5    5    6 2
     6    6   14 1
     7    7   19 1
     8    8    3 1
     9    9    4 1
    10   10    9 ar
    11   11   10 ar
    12   12   11 ar
    13   13   12 ar
    14   14    9 ar
    15   15   10 1
    16   16    8 1
    17   17   13 1
    18   18    8 1
    19   20   12 1
    20   21    7 1
    21   22   11 1
    22   23    7 1
    23    4    8 1
    24   13   14 ar
@<TRIPOS>SUBSTRUCTURE
     1 RES1 1

@<TRIPOS>CRYSIN
  10.8320    8.0570   10.7430  90.0000  95.3600  90.0000  14 1

