# MOL2 file generated by ConQuest
# Please check atom types

@<TRIPOS>MOLECULE
XINJEJ
    45    48     2
SMALL
NO_CHARGES
****
Generated from CSD

@<TRIPOS>ATOM
      1 O1        11.2145    3.5618    6.2768 O.3       1 RES1    0.0000
      2 O2        11.2908    3.4271    3.5618 O.3       1 RES1    0.0000
      3 O3         4.4620    4.9290    5.1282 O.2       1 RES1    0.0000
      4 O4         2.8301    3.5371    5.2785 O.2       1 RES1    0.0000
      5 O5         8.9902    3.3407    5.6445 O.3       1 RES1    0.0000
      6 O6        10.7699    1.2799    4.2514 O.3       1 RES1    0.0000
      7 N1         4.0351    3.7819    5.1419 N.pl3     1 RES1    0.0000
      8 C1         7.2119    1.8872    4.9521 C.ar      1 RES1    0.0000
      9 C2         6.3029    2.9109    4.9534 C.ar      1 RES1    0.0000
     10 C3         4.9437    2.6661    5.1323 C.ar      1 RES1    0.0000
     11 C4         4.4963    1.3539    5.2348 C.ar      1 RES1    0.0000
     12 C5         5.3776    0.3473    5.2348 C.ar      1 RES1    0.0000
     13 C6         6.7698    0.5541    5.0736 C.ar      1 RES1    0.0000
     14 C7         7.7459   -0.5664    5.0572 C.ar      1 RES1    0.0000
     15 C8         7.3418   -1.8796    5.0395 C.ar      1 RES1    0.0000
     16 C9         8.2536   -2.9185    4.9725 C.ar      1 RES1    0.0000
     17 C10        9.5963   -2.6509    4.8687 C.ar      1 RES1    0.0000
     18 C11       10.0147   -1.3350    4.8933 C.ar      1 RES1    0.0000
     19 C12        9.1039   -0.2951    4.9944 C.ar      1 RES1    0.0000
     20 C13        9.6420    1.1215    5.1323 C.3       1 RES1    0.0000
     21 C14        8.6646    2.2344    4.7704 C.3       1 RES1    0.0000
     22 C15       10.0579    1.4574    6.5650 C.3       1 RES1    0.0000
     23 C16        9.9869    2.9783    6.6305 C.3       1 RES1    0.0000
     24 C17        9.5632    3.4802    7.9675 C.3       1 RES1    0.0000
     25 C18        9.0293    2.5637    3.3460 C.3       1 RES1    0.0000
     26 C19       10.5310    2.2686    3.2586 C.3       1 RES1    0.0000
     27 C20       10.9885    1.7354    1.9270 C.3       1 RES1    0.0000
     28 H1        11.6452    4.7440    6.8285 Du        2 SUP2    0.0000
     29 H2        11.1735    3.4536    4.6161 H         1 RES1    0.0000
     30 H3         6.4627    3.8047    4.9575 H         1 RES1    0.0000
     31 H4         3.4301    1.4137    5.5311 H         1 RES1    0.0000
     32 H5         5.1111   -0.7021    5.3809 H         1 RES1    0.0000
     33 H6         6.3555   -2.0115    5.2307 H         1 RES1    0.0000
     34 H7         7.9560   -3.9375    4.8892 H         1 RES1    0.0000
     35 H8        11.1089   -0.9962    4.9302 H         1 RES1    0.0000
     36 H9         9.3746    1.3093    7.1290 H         1 RES1    0.0000
     37 H10       10.7788    1.0152    6.9924 H         1 RES1    0.0000
     38 H11        8.5986    3.1310    8.2898 H         1 RES1    0.0000
     39 H12       10.4127    3.2639    8.6176 H         1 RES1    0.0000
     40 H13        9.5097    4.3550    7.8801 H         1 RES1    0.0000
     41 H14        8.8485    3.5580    3.2367 H         1 RES1    0.0000
     42 H15        8.5510    1.8407    2.8543 H         1 RES1    0.0000
     43 H16       10.5435    0.8539    1.6388 H         1 RES1    0.0000
     44 H17       10.6447    2.5712    1.1062 H         1 RES1    0.0000
     45 H18       11.9024    1.6035    1.8437 H         1 RES1    0.0000
@<TRIPOS>BOND
     1    1   23 1
     2    2   26 1
     3    3    7 2
     4    4    7 2
     5    5   21 1
     6    6   20 1
     7    7   10 1
     8    8    9 ar
     9    9   10 ar
    10   10   11 ar
    11   11   12 ar
    12   12   13 ar
    13   13    8 ar
    14   14   13 1
    15   15   14 ar
    16   16   15 ar
    17   17   16 ar
    18   18   17 ar
    19   19   14 ar
    20   20   19 1
    21   21    8 1
    22   22   20 1
    23   23    5 1
    24   24   23 1
    25   25   21 1
    26   26    6 1
    27   27   26 1
    28   29    2 1
    29   30    9 1
    30   31   11 1
    31   32   12 1
    32   33   15 1
    33   34   16 1
    34   35   18 1
    35   36   22 1
    36   37   22 1
    37   38   24 1
    38   39   24 1
    39   40   24 1
    40   41   25 1
    41   42   25 1
    42   43   27 1
    43   44   27 1
    44   45   27 1
    45   18   19 ar
    46   20   21 1
    47   22   23 1
    48   25   26 1
@<TRIPOS>SUBSTRUCTURE
     1 RES1 1
     2 SUP2 28

@<TRIPOS>CRYSIN
  27.2840    9.4880   14.2290  90.0000 106.3000  90.0000  15 1

