# MOL2 file generated by ConQuest
# Please check atom types

@<TRIPOS>MOLECULE
XIQBIL01
    48    52     1
SMALL
NO_CHARGES
****
Generated from CSD

@<TRIPOS>ATOM
      1 O1         0.1307   -0.5405   11.6331 O.2       1 RES1    0.0000
      2 O2         2.1961   -0.3967   12.2878 O.2       1 RES1    0.0000
      3 N1        -2.6019    3.5214    7.5450 N.pl3     1 RES1    0.0000
      4 N2        -2.0050    4.7358    7.5554 N.2       1 RES1    0.0000
      5 N3        -0.8309    4.5744    8.1257 N.2       1 RES1    0.0000
      6 N4         1.9115    4.5088    8.3986 N.pl3     1 RES1    0.0000
      7 H1         1.2306    4.8174    7.9333 H         1 RES1    0.0000
      8 H2         2.6939    4.9083    8.3515 H         1 RES1    0.0000
      9 N5         1.2340    0.0116   11.6234 N.pl3     1 RES1    0.0000
     10 N6         4.4500    4.6967    9.2628 N.2       1 RES1    0.0000
     11 N7         5.7210    4.9965    9.3905 N.2       1 RES1    0.0000
     12 N8         6.2874    3.9959   10.0923 N.pl3     1 RES1    0.0000
     13 C1        -3.9621    3.4140    7.1084 C.ar      1 RES1    0.0000
     14 C2        -4.7289    2.3511    7.5500 C.ar      1 RES1    0.0000
     15 H3        -4.3431    1.6723    8.0926 H         1 RES1    0.0000
     16 C3        -6.0649    2.2883    7.1930 C.ar      1 RES1    0.0000
     17 H4        -6.6019    1.5670    7.5002 H         1 RES1    0.0000
     18 C4        -6.6245    3.2652    6.3937 C.ar      1 RES1    0.0000
     19 H5        -7.5412    3.2156    6.1485 H         1 RES1    0.0000
     20 C5        -5.8428    4.3160    5.9511 C.ar      1 RES1    0.0000
     21 H6        -6.2265    4.9866    5.3992 H         1 RES1    0.0000
     22 C6        -4.5099    4.4019    6.3041 C.ar      1 RES1    0.0000
     23 H7        -3.9761    5.1271    5.9991 H         1 RES1    0.0000
     24 C7        -1.8074    2.5930    8.1100 C.2       1 RES1    0.0000
     25 H8        -1.9890    1.6668    8.2146 H         1 RES1    0.0000
     26 C8        -0.6768    3.2707    8.5036 C.2       1 RES1    0.0000
     27 C9         0.4877    2.7770    9.2606 C.ar      1 RES1    0.0000
     28 C10        0.3349    1.6673   10.0666 C.ar      1 RES1    0.0000
     29 H9        -0.5104    1.2381   10.1264 H         1 RES1    0.0000
     30 C11        1.4116    1.1780   10.7898 C.ar      1 RES1    0.0000
     31 C12        2.6595    1.7814   10.7265 C.ar      1 RES1    0.0000
     32 H10        3.3826    1.4287   11.2316 H         1 RES1    0.0000
     33 C13        2.8554    2.8944    9.9287 C.ar      1 RES1    0.0000
     34 C14        1.7544    3.4234    9.1842 C.ar      1 RES1    0.0000
     35 C15        4.1937    3.5033    9.8749 C.2       1 RES1    0.0000
     36 C16        5.3757    3.0536   10.4034 C.2       1 RES1    0.0000
     37 H11        5.5212    2.2492   10.8856 H         1 RES1    0.0000
     38 C17        7.6824    4.0471   10.3912 C.ar      1 RES1    0.0000
     39 C18        8.4199    5.1359    9.9720 C.ar      1 RES1    0.0000
     40 H12        8.0021    5.8406    9.4916 H         1 RES1    0.0000
     41 C19        9.7679    5.1921   10.2556 C.ar      1 RES1    0.0000
     42 H13       10.2764    5.9442    9.9770 H         1 RES1    0.0000
     43 C20       10.3805    4.1700   10.9376 C.ar      1 RES1    0.0000
     44 H14       11.3124    4.2063   11.1196 H         1 RES1    0.0000
     45 C21        9.6311    3.0895   11.3571 C.ar      1 RES1    0.0000
     46 H15       10.0517    2.3820   11.8315 H         1 RES1    0.0000
     47 C22        8.2730    3.0233   11.0959 C.ar      1 RES1    0.0000
     48 H16        7.7584    2.2844   11.3984 H         1 RES1    0.0000
@<TRIPOS>BOND
     1    1    9 2
     2    2    9 2
     3    3    4 1
     4    4    5 2
     5    5   26 1
     6    6    7 1
     7    8    6 1
     8    9   30 1
     9   10   11 2
    10   11   12 1
    11   12   36 1
    12   13    3 1
    13   14   13 ar
    14   15   14 1
    15   16   14 ar
    16   17   16 1
    17   18   16 ar
    18   19   18 1
    19   20   18 ar
    20   21   20 1
    21   22   13 ar
    22   23   22 1
    23   24    3 1
    24   25   24 1
    25   26   24 2
    26   27   26 1
    27   28   27 ar
    28   29   28 1
    29   30   28 ar
    30   31   30 ar
    31   32   31 1
    32   33   31 ar
    33   34    6 1
    34   35   10 1
    35   36   35 2
    36   37   36 1
    37   38   12 1
    38   39   38 ar
    39   40   39 1
    40   41   39 ar
    41   42   41 1
    42   43   41 ar
    43   44   43 1
    44   45   43 ar
    45   46   45 1
    46   47   38 ar
    47   48   47 1
    48   20   22 ar
    49   27   34 ar
    50   33   34 ar
    51   33   35 1
    52   45   47 ar
@<TRIPOS>SUBSTRUCTURE
     1 RES1 1

@<TRIPOS>CRYSIN
  13.6130    5.5100   25.4280  90.0000 101.7770  90.0000  14 1

