# MOL2 file generated by ConQuest
# Please check atom types

@<TRIPOS>MOLECULE
XIQBIL
    48    52     1
SMALL
NO_CHARGES
****
Generated from CSD

@<TRIPOS>ATOM
      1 O1        10.1256    6.9515    5.9693 O.2       1 RES1    0.0000
      2 O2         9.0429    8.5061    7.0163 O.2       1 RES1    0.0000
      3 N1        10.5459    0.9507    8.0336 N.pl3     1 RES1    0.0000
      4 N2         9.8268    0.6431    9.1347 N.2       1 RES1    0.0000
      5 N3         9.2185    1.7399    9.5045 N.2       1 RES1    0.0000
      6 N4         7.8462    3.6839   10.8221 N.pl3     1 RES1    0.0000
      7 H1         7.3304    3.9468   11.4849 H         1 RES1    0.0000
      8 H2         8.1562    2.8600   10.8058 H         1 RES1    0.0000
      9 N5         9.4012    7.3316    6.8971 N.pl3     1 RES1    0.0000
     10 N6         6.2313    5.6114   11.8857 N.2       1 RES1    0.0000
     11 N7         5.4101    6.3283   12.6146 N.2       1 RES1    0.0000
     12 N8         5.3578    7.5490   12.0590 N.pl3     1 RES1    0.0000
     13 C1        11.3808   -0.0386    7.4199 C.ar      1 RES1    0.0000
     14 C2        12.1539    0.3208    6.3292 C.ar      1 RES1    0.0000
     15 H3        12.1074    1.2006    5.9733 H         1 RES1    0.0000
     16 C3        12.9986   -0.6226    5.7649 C.ar      1 RES1    0.0000
     17 H4        13.5369   -0.3854    5.0196 H         1 RES1    0.0000
     18 C4        13.0642   -1.9016    6.2744 C.ar      1 RES1    0.0000
     19 H5        13.6444   -2.5436    5.8814 H         1 RES1    0.0000
     20 C5        12.2809   -2.2452    7.3623 C.ar      1 RES1    0.0000
     21 H6        12.3270   -3.1266    7.7149 H         1 RES1    0.0000
     22 C6        11.4283   -1.3161    7.9450 C.ar      1 RES1    0.0000
     23 H7        10.8890   -1.5541    8.6899 H         1 RES1    0.0000
     24 C7        10.3887    2.2443    7.6995 C.2       1 RES1    0.0000
     25 H8        10.7849    2.7045    6.9685 H         1 RES1    0.0000
     26 C8         9.5272    2.7575    8.6484 C.2       1 RES1    0.0000
     27 C9         9.0199    4.1313    8.7580 C.ar      1 RES1    0.0000
     28 C10        9.4049    5.0547    7.8018 C.ar      1 RES1    0.0000
     29 H9         9.9795    4.7896    7.0929 H         1 RES1    0.0000
     30 C11        8.9552    6.3672    7.8739 C.ar      1 RES1    0.0000
     31 C12        8.0845    6.7755    8.8771 C.ar      1 RES1    0.0000
     32 H10        7.7771    7.6739    8.8972 H         1 RES1    0.0000
     33 C13        7.6643    5.8857    9.8436 C.ar      1 RES1    0.0000
     34 C14        8.1603    4.5411    9.8331 C.ar      1 RES1    0.0000
     35 C15        6.7131    6.3679   10.8566 C.2       1 RES1    0.0000
     36 C16        6.1470    7.6210   10.9632 C.2       1 RES1    0.0000
     37 H11        6.2815    8.3693   10.3933 H         1 RES1    0.0000
     38 C17        4.5390    8.5706   12.6395 C.ar      1 RES1    0.0000
     39 C18        4.2142    8.4862   13.9868 C.ar      1 RES1    0.0000
     40 H12        4.5252    7.7584   14.5130 H         1 RES1    0.0000
     41 C19        3.4313    9.4785   14.5520 C.ar      1 RES1    0.0000
     42 H13        3.1989    9.4295   15.4723 H         1 RES1    0.0000
     43 C20        2.9834   10.5437   13.7834 C.ar      1 RES1    0.0000
     44 H14        2.4518   11.2252   14.1779 H         1 RES1    0.0000
     45 C21        3.3142   10.6113   12.4439 C.ar      1 RES1    0.0000
     46 H15        3.0017   11.3372   11.9164 H         1 RES1    0.0000
     47 C22        4.1008    9.6214   11.8623 C.ar      1 RES1    0.0000
     48 H16        4.3331    9.6695   10.9425 H         1 RES1    0.0000
@<TRIPOS>BOND
     1    1    9 2
     2    2    9 2
     3    3    4 1
     4    4    5 2
     5    5   26 1
     6    6    7 1
     7    8    6 1
     8    9   30 1
     9   10   11 2
    10   11   12 1
    11   12   36 1
    12   13    3 1
    13   14   13 ar
    14   15   14 1
    15   16   14 ar
    16   17   16 1
    17   18   16 ar
    18   19   18 1
    19   20   18 ar
    20   21   20 1
    21   22   13 ar
    22   23   22 1
    23   24    3 1
    24   25   24 1
    25   26   24 2
    26   27   26 1
    27   28   27 ar
    28   29   28 1
    29   30   28 ar
    30   31   30 ar
    31   32   31 1
    32   33   31 ar
    33   34    6 1
    34   35   10 1
    35   36   35 2
    36   37   36 1
    37   38   12 1
    38   39   38 ar
    39   40   39 1
    40   41   39 ar
    41   42   41 1
    42   43   41 ar
    43   44   43 1
    44   45   43 ar
    45   46   45 1
    46   47   38 ar
    47   48   47 1
    48   20   22 ar
    49   27   34 ar
    50   33   34 ar
    51   33   35 1
    52   45   47 ar
@<TRIPOS>SUBSTRUCTURE
     1 RES1 1

@<TRIPOS>CRYSIN
   8.6421    9.9016   11.8880  82.1230  71.4100  82.8830   2 1

