# MOL2 file generated by ConQuest
# Please check atom types

@<TRIPOS>MOLECULE
XIQKIU
    41    45     1
SMALL
NO_CHARGES
****
Generated from CSD

@<TRIPOS>ATOM
      1 O1         3.2044    2.5100   -0.3497 O.2       1 RES1    0.0000
      2 O2         6.3704    1.7697    3.6784 O.3       1 RES1    0.0000
      3 O3         2.6648    3.8500    2.3412 O.2       1 RES1    0.0000
      4 O4         1.7607    5.4179    4.4520 O.3       1 RES1    0.0000
      5 N1         4.9431    3.8333    0.3566 N.am      1 RES1    0.0000
      6 H1         4.7247    4.5490   -0.0686 H         1 RES1    0.0000
      7 N2         3.0213    4.9000    4.3244 N.am      1 RES1    0.0000
      8 C1         4.2598    2.6744    0.2592 C.2       1 RES1    0.0000
      9 C2         5.0189    1.6124    1.0190 C.3       1 RES1    0.0000
     10 H2         5.0948    0.7927    0.4869 H         1 RES1    0.0000
     11 C3         6.3931    2.2399    1.2412 C.3       1 RES1    0.0000
     12 H3         6.9424    2.0493    0.4526 H         1 RES1    0.0000
     13 C4         7.1142    1.6990    2.4468 C.3       1 RES1    0.0000
     14 H4         7.3446    0.7713    2.2781 H         1 RES1    0.0000
     15 H5         7.9428    2.1907    2.5579 H         1 RES1    0.0000
     16 C5         4.9813    2.0874    3.5358 C.3       1 RES1    0.0000
     17 H6         4.5430    1.7586    4.3491 H         1 RES1    0.0000
     18 C6         4.3621    1.3177    2.3851 C.3       1 RES1    0.0000
     19 H7         3.4190    1.5362    2.3330 H         1 RES1    0.0000
     20 H8         4.4351    0.3678    2.5689 H         1 RES1    0.0000
     21 C7         6.0855    3.7507    1.2495 C.3       1 RES1    0.0000
     22 H9         6.8370    4.2201    0.8325 H         1 RES1    0.0000
     23 C8         5.8508    4.3512    2.6251 C.3       1 RES1    0.0000
     24 H10        5.5489    5.2654    2.5044 H         1 RES1    0.0000
     25 H11        6.7054    4.3893    3.0832 H         1 RES1    0.0000
     26 C9         4.8353    3.6307    3.5646 C.3       1 RES1    0.0000
     27 C10        3.3858    4.0994    3.2820 C.2       1 RES1    0.0000
     28 C11        3.9685    4.9509    5.3489 C.ar      1 RES1    0.0000
     29 C12        5.0654    4.1971    4.9704 C.ar      1 RES1    0.0000
     30 C13        6.1384    4.1081    5.8111 C.ar      1 RES1    0.0000
     31 H12        6.8842    3.6045    5.5752 H         1 RES1    0.0000
     32 C14        6.0947    4.7888    7.0373 C.ar      1 RES1    0.0000
     33 H13        6.8151    4.7293    7.6215 H         1 RES1    0.0000
     34 C15        5.0019    5.5418    7.3843 C.ar      1 RES1    0.0000
     35 H14        5.0032    5.9946    8.1962 H         1 RES1    0.0000
     36 C16        3.8939    5.6443    6.5518 C.ar      1 RES1    0.0000
     37 H15        3.1467    6.1463    6.7849 H         1 RES1    0.0000
     38 C17        1.6288    6.6292    3.7429 C.3       1 RES1    0.0000
     39 H16        1.8459    6.4839    2.8185 H         1 RES1    0.0000
     40 H17        2.2263    7.2837    4.1132 H         1 RES1    0.0000
     41 H18        0.7250    6.9454    3.8128 H         1 RES1    0.0000
@<TRIPOS>BOND
     1    1    8 2
     2    2   13 1
     3    3   27 2
     4    4    7 1
     5    5    6 1
     6    7   27 1
     7    8    5 1
     8    9    8 1
     9   10    9 1
    10   11    9 1
    11   12   11 1
    12   13   11 1
    13   14   13 1
    14   15   13 1
    15   16    2 1
    16   17   16 1
    17   18    9 1
    18   19   18 1
    19   20   18 1
    20   21    5 1
    21   22   21 1
    22   23   21 1
    23   24   23 1
    24   25   23 1
    25   26   16 1
    26   27   26 1
    27   28    7 1
    28   29   26 1
    29   30   29 ar
    30   31   30 1
    31   32   30 ar
    32   33   32 1
    33   34   32 ar
    34   35   34 1
    35   36   28 ar
    36   37   36 1
    37   38    4 1
    38   39   38 1
    39   40   38 1
    40   41   38 1
    41   11   21 1
    42   16   18 1
    43   23   26 1
    44   28   29 ar
    45   34   36 ar
@<TRIPOS>SUBSTRUCTURE
     1 RES1 1

@<TRIPOS>CRYSIN
   7.0225    7.9430   13.7152  90.0000  90.0070  90.0000   4 1

