# MOL2 file generated by ConQuest
# Please check atom types

@<TRIPOS>MOLECULE
XIRJEP
    51    54     1
SMALL
NO_CHARGES
****
Generated from CSD

@<TRIPOS>ATOM
      1 N1         2.7095   -2.3734    4.4411 N.pl3     1 RES1    0.0000
      2 C1         1.5211   -3.0630    4.8128 C.ar      1 RES1    0.0000
      3 C2         1.5718    0.8746    3.0941 C.ar      1 RES1    0.0000
      4 H1         0.9031    1.4979    3.2648 H         1 RES1    0.0000
      5 C3         2.4630    1.1055    2.0411 C.ar      1 RES1    0.0000
      6 C4         2.3154    2.3416    1.2916 C.2       1 RES1    0.0000
      7 H2         1.6081    2.8729    1.5787 H         1 RES1    0.0000
      8 C5         3.0025    2.8631    0.2677 C.2       1 RES1    0.0000
      9 C6         1.6535   -0.2437    3.8835 C.ar      1 RES1    0.0000
     10 H3         1.0484   -0.3592    4.5804 H         1 RES1    0.0000
     11 C7         2.6293   -1.2059    3.6551 C.ar      1 RES1    0.0000
     12 C8         3.5203   -0.9893    2.6144 C.ar      1 RES1    0.0000
     13 H4         4.1821   -1.6202    2.4447 H         1 RES1    0.0000
     14 C9         0.4094   -3.0759    3.9841 C.ar      1 RES1    0.0000
     15 H5         0.4212   -2.6005    3.1856 H         1 RES1    0.0000
     16 C10        3.4490    0.1321    1.8281 C.ar      1 RES1    0.0000
     17 H6         4.0654    0.2490    1.1419 H         1 RES1    0.0000
     18 C11        3.9673   -3.0223    4.6128 C.ar      1 RES1    0.0000
     19 C12        2.6896    4.1640   -0.3801 C.ar      1 RES1    0.0000
     20 C13       -0.7415   -4.5112    5.5095 C.ar      1 RES1    0.0000
     21 H7        -1.4916   -5.0130    5.7325 H         1 RES1    0.0000
     22 C14        0.3507   -4.4825    6.3397 C.ar      1 RES1    0.0000
     23 H8         0.3335   -4.9602    7.1375 H         1 RES1    0.0000
     24 C15        4.1017   -4.3731    4.3857 C.ar      1 RES1    0.0000
     25 H9         3.3639   -4.8704    4.1154 H         1 RES1    0.0000
     26 C16        5.0793   -2.3122    5.0139 C.ar      1 RES1    0.0000
     27 H10        5.0113   -1.4006    5.1858 H         1 RES1    0.0000
     28 C17       -0.7093   -3.7867    4.3397 C.ar      1 RES1    0.0000
     29 H11       -1.4541   -3.7792    3.7833 H         1 RES1    0.0000
     30 C18        1.4726   -3.7581    6.0076 C.ar      1 RES1    0.0000
     31 H12        2.1989   -3.7354    6.5883 H         1 RES1    0.0000
     32 C19        2.1687    6.6007   -1.5690 C.ar      1 RES1    0.0000
     33 C20        5.3211   -4.9957    4.5546 C.ar      1 RES1    0.0000
     34 H13        5.3974   -5.9095    4.4015 H         1 RES1    0.0000
     35 C21        1.5574    4.8892   -0.0618 C.ar      1 RES1    0.0000
     36 H14        0.9576    4.5459    0.5595 H         1 RES1    0.0000
     37 C22        6.4104   -4.2818    4.9449 C.ar      1 RES1    0.0000
     38 H15        7.2303   -4.7036    5.0632 H         1 RES1    0.0000
     39 C23        6.2904   -2.9506    5.1587 C.ar      1 RES1    0.0000
     40 H16        7.0398   -2.4593    5.4080 H         1 RES1    0.0000
     41 C24        1.2963    6.1102   -0.6463 C.ar      1 RES1    0.0000
     42 H17        0.5351    6.5924   -0.4138 H         1 RES1    0.0000
     43 N2         1.9049    7.9093   -2.1888 N.pl3     1 RES1    0.0000
     44 C25        4.1134    2.1711   -0.2961 C.1       1 RES1    0.0000
     45 C26        3.2759    5.9216   -1.9226 C.ar      1 RES1    0.0000
     46 H18        3.8581    6.2695   -2.5571 H         1 RES1    0.0000
     47 O1         1.0388    8.6149   -1.6781 O.2       1 RES1    0.0000
     48 C27        3.5359    4.6998   -1.3294 C.ar      1 RES1    0.0000
     49 H19        4.2988    4.2282   -1.5762 H         1 RES1    0.0000
     50 O2         2.5609    8.2436   -3.1521 O.2       1 RES1    0.0000
     51 N3         4.9992    1.6519   -0.7825 N.1       1 RES1    0.0000
@<TRIPOS>BOND
     1    1    2 1
     2    2   14 ar
     3    3    4 1
     4    5    3 ar
     5    6    5 1
     6    7    6 1
     7    8    6 2
     8    9    3 ar
     9   10    9 1
    10   11    1 1
    11   12   11 ar
    12   13   12 1
    13   14   15 1
    14   16    5 ar
    15   17   16 1
    16   18    1 1
    17   19    8 1
    18   20   21 1
    19   22   20 ar
    20   23   22 1
    21   24   18 ar
    22   25   24 1
    23   26   18 ar
    24   27   26 1
    25   28   14 ar
    26   29   28 1
    27   30    2 ar
    28   31   30 1
    29   32   41 ar
    30   33   24 ar
    31   34   33 1
    32   35   19 ar
    33   36   35 1
    34   37   33 ar
    35   38   37 1
    36   39   26 ar
    37   40   39 1
    38   41   35 ar
    39   42   41 1
    40   43   32 1
    41   44    8 1
    42   45   32 ar
    43   46   45 1
    44   47   43 2
    45   48   19 ar
    46   49   48 1
    47   50   43 2
    48   51   44 3
    49    9   11 ar
    50   12   16 ar
    51   20   28 ar
    52   22   30 ar
    53   37   39 ar
    54   45   48 ar
@<TRIPOS>SUBSTRUCTURE
     1 RES1 1

@<TRIPOS>CRYSIN
  11.1540    7.5463   25.7070  90.0000  96.4200  90.0000  14 1

