# MOL2 file generated by ConQuest
# Please check atom types

@<TRIPOS>MOLECULE
XIRTIC
    67    60     2
SMALL
NO_CHARGES
****
Generated from CSD

@<TRIPOS>ATOM
      1 O1         4.2621    2.7063    9.6973 O.3       1 RES1    0.0000
      2 O2         3.1372    4.5922    4.6916 O.3       1 RES1    0.0000
      3 C1         2.2561    3.7774    9.5533 C.2       1 RES1    0.0000
      4 C2         3.1214    3.1198   10.3489 C.2       1 RES1    0.0000
      5 C3         4.9516    2.8681    7.3803 C.ar      1 RES1    0.0000
      6 C4         4.5972    3.3646    6.1169 C.ar      1 RES1    0.0000
      7 C5         1.1219    5.6714    5.5627 C.2       1 RES1    0.0000
      8 C6         1.3246    5.0690    6.7177 C.2       1 RES1    0.0000
      9 C7         2.5367    4.3205    6.9962 C.ar      1 RES1    0.0000
     10 C8         2.8816    3.8089    8.2555 C.ar      1 RES1    0.0000
     11 C9         4.0928    3.1200    8.3996 C.ar      1 RES1    0.0000
     12 C10        3.4150    4.1131    5.9248 C.ar      1 RES1    0.0000
     13 N1         2.8071    6.9175    4.3478 N.3       1 RES1    0.0000
     14 C11        2.1314    5.6455    4.4556 C.3       1 RES1    0.0000
     15 C12        1.5901    5.3899    3.0097 C.3       1 RES1    0.0000
     16 C13        2.7918    6.1975    0.8341 C.ar      1 RES1    0.0000
     17 C14        3.7181    7.0985    0.3155 C.ar      1 RES1    0.0000
     18 C15        4.3841    7.9413    1.1221 C.ar      1 RES1    0.0000
     19 C16        4.1745    7.9562    2.5035 C.ar      1 RES1    0.0000
     20 C17        3.2448    7.0824    3.0180 C.ar      1 RES1    0.0000
     21 C18        2.5668    6.2028    2.1908 C.ar      1 RES1    0.0000
     22 C19        0.1828    6.0252    2.8561 C.3       1 RES1    0.0000
     23 C20        1.5231    3.9293    2.6229 C.3       1 RES1    0.0000
     24 C21        3.6562    7.3738    5.4255 C.3       1 RES1    0.0000
     25 C22        0.9122    4.2403   10.0471 C.3       1 RES1    0.0000
     26 H1         0.2299    3.5949    9.8043 H         1 RES1    0.0000
     27 H2         0.6854    5.0918    9.6424 H         1 RES1    0.0000
     28 C23        0.9797    4.3900   11.6082 C.3       1 RES1    0.0000
     29 H3         0.1022    4.6003   11.9649 H         1 RES1    0.0000
     30 H4         1.5899    5.1040   11.8510 H         1 RES1    0.0000
     31 C24        1.4867    3.0207   12.1871 C.3       1 RES1    0.0000
     32 H5         1.4055    3.0263   13.1543 H         1 RES1    0.0000
     33 H6         0.9392    2.2984   11.8428 H         1 RES1    0.0000
     34 C25        2.9685    2.7873   11.7907 C.3       1 RES1    0.0000
     35 H7         3.5494    3.3507   12.3243 H         1 RES1    0.0000
     36 H8         3.2130    1.8616   11.9457 H         1 RES1    0.0000
     37 C26        0.9122    4.2403   10.0471 Du        2 SUP2    0.0000
     38 H9         0.2335    4.0538    9.3804 Du        2 SUP2    0.0000
     39 H10        0.9301    5.1974   10.2049 Du        2 SUP2    0.0000
     40 C27        0.5727    3.4915   11.3723 Du        2 SUP2    0.0000
     41 H11       -0.2289    3.8654   11.7687 Du        2 SUP2    0.0000
     42 H12        0.4150    2.5514   11.1912 Du        2 SUP2    0.0000
     43 C28        1.7914    3.6541   12.3613 Du        2 SUP2    0.0000
     44 H13        1.5480    3.3477   13.2489 Du        2 SUP2    0.0000
     45 H14        2.0571    4.5858   12.4190 Du        2 SUP2    0.0000
     46 C29        2.9685    2.7873   11.7907 Du        2 SUP2    0.0000
     47 H15        3.7899    2.9832   12.2667 Du        2 SUP2    0.0000
     48 H16        2.7703    1.8436   11.8963 Du        2 SUP2    0.0000
     49 O3         6.5185    2.4136    5.2787 O.2       1 RES1    0.0000
     50 O4         5.1858    3.2885    3.8797 O.2       1 RES1    0.0000
     51 N2         5.4921    3.0174    5.0140 N.pl3     1 RES1    0.0000
     52 H17        0.3400    6.2003    5.4625 H         1 RES1    0.0000
     53 H18        0.6360    5.1127    7.3885 H         1 RES1    0.0000
     54 H19        4.6824    8.5683    3.0619 H         1 RES1    0.0000
     55 H20        5.0079    8.5761    0.7435 H         1 RES1    0.0000
     56 H21        3.9034    7.1177   -0.6310 H         1 RES1    0.0000
     57 H22        2.3033    5.5897    0.2798 H         1 RES1    0.0000
     58 H23        5.7790    2.3849    7.5106 H         1 RES1    0.0000
     59 H24        4.0501    8.2206    5.2087 H         1 RES1    0.0000
     60 H25        3.1319    7.4442    6.2143 H         1 RES1    0.0000
     61 H26        4.3642    6.7268    5.5627 H         1 RES1    0.0000
     62 H27        1.1863    3.8372    1.7271 H         1 RES1    0.0000
     63 H28        2.4286    3.5664    2.6435 H         1 RES1    0.0000
     64 H29        0.9799    3.4227    3.2237 H         1 RES1    0.0000
     65 H30        0.2169    6.9415    3.1236 H         1 RES1    0.0000
     66 H31       -0.0639    5.9500    1.9411 H         1 RES1    0.0000
     67 H32       -0.4382    5.5456    3.4089 H         1 RES1    0.0000
@<TRIPOS>BOND
     1    1    4 1
     2    2   12 1
     3    3    4 2
     4    4   34 1
     5    5    6 ar
     6    6   12 ar
     7    7    8 2
     8    8    9 1
     9    9   10 ar
    10   10    3 1
    11   11    1 1
    12   12    9 ar
    13   13   14 1
    14   14    2 1
    15   15   14 1
    16   16   17 ar
    17   17   18 ar
    18   18   19 ar
    19   19   20 ar
    20   20   13 1
    21   21   15 1
    22   22   15 1
    23   23   15 1
    24   24   13 1
    25   25    3 1
    26   26   25 1
    27   27   25 1
    28   28   25 1
    29   29   28 1
    30   30   28 1
    31   31   28 1
    32   32   31 1
    33   33   31 1
    34   34   31 1
    35   35   34 1
    36   36   34 1
    37   49   51 2
    38   50   51 2
    39   51    6 1
    40   52    7 1
    41   53    8 1
    42   54   19 1
    43   55   18 1
    44   56   17 1
    45   57   16 1
    46   58    5 1
    47   59   24 1
    48   60   24 1
    49   61   24 1
    50   62   23 1
    51   63   23 1
    52   64   23 1
    53   65   22 1
    54   66   22 1
    55   67   22 1
    56    5   11 ar
    57    7   14 1
    58   10   11 ar
    59   16   21 ar
    60   20   21 ar
@<TRIPOS>SUBSTRUCTURE
     1 RES1 1
     2 SUP2 37

@<TRIPOS>CRYSIN
   6.9700   11.0630   14.1530  75.8900  89.4100  79.9000   2 1

