# MOL2 file generated by ConQuest
# Please check atom types

@<TRIPOS>MOLECULE
XISLAN
    34    35     1
SMALL
NO_CHARGES
****
Generated from CSD

@<TRIPOS>ATOM
      1 O1         3.8915    2.4114    6.0885 O.3       1 RES1    0.0000
      2 H1         3.6675    3.0962    6.5604 H         1 RES1    0.0000
      3 O2         4.5926    3.3585    8.4108 O.2       1 RES1    0.0000
      4 O3         7.0693    1.4895   12.3194 O.3       1 RES1    0.0000
      5 N1         4.8814    1.7847    6.8624 N.am      1 RES1    0.0000
      6 C1         5.2842    0.5446    6.2960 C.ar      1 RES1    0.0000
      7 C2         5.6877    0.5065    4.9790 C.ar      1 RES1    0.0000
      8 H2         5.6947    1.2845    4.4697 H         1 RES1    0.0000
      9 C3         6.0800   -0.6875    4.4216 C.ar      1 RES1    0.0000
     10 H3         6.3533   -0.7066    3.5334 H         1 RES1    0.0000
     11 C4         6.0770   -1.8577    5.1511 C.ar      1 RES1    0.0000
     12 C5         5.6492   -1.7974    6.4665 C.ar      1 RES1    0.0000
     13 H4         5.6400   -2.5762    6.9741 H         1 RES1    0.0000
     14 C6         5.2360   -0.6129    7.0451 C.ar      1 RES1    0.0000
     15 H5         4.9310   -0.5962    7.9239 H         1 RES1    0.0000
     16 C7         6.5301   -3.1581    4.5423 C.3       1 RES1    0.0000
     17 H6         5.8222   -3.8036    4.6026 H         1 RES1    0.0000
     18 H7         7.2994   -3.4828    5.0163 H         1 RES1    0.0000
     19 H8         6.7584   -3.0184    3.6200 H         1 RES1    0.0000
     20 C8         5.2039    2.3563    8.0196 C.2       1 RES1    0.0000
     21 C9         6.3555    1.8164    8.7987 C.ar      1 RES1    0.0000
     22 C10        7.5586    1.4536    8.2163 C.ar      1 RES1    0.0000
     23 H9         7.6534    1.4600    7.2907 H         1 RES1    0.0000
     24 C11        8.6082    1.0853    9.0174 C.ar      1 RES1    0.0000
     25 H10        9.4152    0.8415    8.6243 H         1 RES1    0.0000
     26 C12        8.4957    1.0670   10.3943 C.ar      1 RES1    0.0000
     27 H11        9.2149    0.8058   10.9226 H         1 RES1    0.0000
     28 C13        7.2976    1.4433   10.9789 C.ar      1 RES1    0.0000
     29 C14        6.2354    1.8172   10.1776 C.ar      1 RES1    0.0000
     30 H12        5.4310    2.0721   10.5687 H         1 RES1    0.0000
     31 C15        8.1659    1.2639   13.1857 C.3       1 RES1    0.0000
     32 H13        7.8704    1.3155   14.0976 H         1 RES1    0.0000
     33 H14        8.8396    1.9308   13.0298 H         1 RES1    0.0000
     34 H15        8.5337    0.3930   13.0179 H         1 RES1    0.0000
@<TRIPOS>BOND
     1    1    2 1
     2    3   20 2
     3    4   28 1
     4    5    1 1
     5    6    5 1
     6    7    6 ar
     7    8    7 1
     8    9    7 ar
     9   10    9 1
    10   11    9 ar
    11   12   11 ar
    12   13   12 1
    13   14    6 ar
    14   15   14 1
    15   16   11 1
    16   17   16 1
    17   18   16 1
    18   19   16 1
    19   20    5 1
    20   21   20 1
    21   22   21 ar
    22   23   22 1
    23   24   22 ar
    24   25   24 1
    25   26   24 ar
    26   27   26 1
    27   28   26 ar
    28   29   21 ar
    29   30   29 1
    30   31    4 1
    31   32   31 1
    32   33   31 1
    33   34   31 1
    34   12   14 ar
    35   28   29 ar
@<TRIPOS>SUBSTRUCTURE
     1 RES1 1

@<TRIPOS>CRYSIN
  11.3320    7.9390   15.5670  90.0000 106.3970  90.0000  14 1

