# MOL2 file generated by ConQuest
# Please check atom types

@<TRIPOS>MOLECULE
XITMAP
    57    59     1
SMALL
NO_CHARGES
****
Generated from CSD

@<TRIPOS>ATOM
      1 N1        -1.5002    1.3806    2.4714 N.pl3     1 RES1    0.0000
      2 C1        -0.5857    1.9001    1.5492 C.2       1 RES1    0.0000
      3 C2         0.5778    1.2583    1.3218 C.2       1 RES1    0.0000
      4 C3         0.9785    0.0036    2.0835 C.3       1 RES1    0.0000
      5 H1         1.3396   -0.6507    1.4496 H         1 RES1    0.0000
      6 C4        -0.2282   -0.6112    2.7890 C.2       1 RES1    0.0000
      7 C5        -1.3388    0.1132    3.0491 C.2       1 RES1    0.0000
      8 C6        -2.4620   -0.3326    3.9339 C.3       1 RES1    0.0000
      9 H2        -2.3367   -1.2547    4.1741 H         1 RES1    0.0000
     10 H3        -3.2954   -0.2355    3.4675 H         1 RES1    0.0000
     11 H4        -2.4762    0.2049    4.7296 H         1 RES1    0.0000
     12 C7        -1.0312    3.1476    0.8461 C.3       1 RES1    0.0000
     13 H5        -0.3203    3.4694    0.2859 H         1 RES1    0.0000
     14 H6        -1.2560    3.8181    1.4941 H         1 RES1    0.0000
     15 H7        -1.8007    2.9535    0.3059 H         1 RES1    0.0000
     16 C8        -2.6239    2.2057    2.8839 C.ar      1 RES1    0.0000
     17 C9        -2.5110    2.9517    4.0499 C.ar      1 RES1    0.0000
     18 C10       -3.5578    3.7516    4.4683 C.ar      1 RES1    0.0000
     19 H8        -3.4906    4.2333    5.2593 H         1 RES1    0.0000
     20 C11       -4.7027    3.8235    3.7007 C.ar      1 RES1    0.0000
     21 H9        -5.3931    4.3915    3.9573 H         1 RES1    0.0000
     22 C12       -4.8335    3.0595    2.5499 C.ar      1 RES1    0.0000
     23 H10       -5.6212    3.0829    2.0566 H         1 RES1    0.0000
     24 C13       -3.7860    2.2740    2.1492 C.ar      1 RES1    0.0000
     25 H11       -3.8625    1.7742    1.3675 H         1 RES1    0.0000
     26 O1        -1.3298    2.8114    4.7284 O.3       1 RES1    0.0000
     27 C14       -1.1518    3.5772    5.9202 C.3       1 RES1    0.0000
     28 H12       -1.2000    4.5138    5.7092 H         1 RES1    0.0000
     29 H13       -0.2934    3.3795    6.3022 H         1 RES1    0.0000
     30 H14       -1.8409    3.3561    6.5495 H         1 RES1    0.0000
     31 C15        1.5815    1.7994    0.3914 C.2       1 RES1    0.0000
     32 O2         1.5882    2.8816   -0.1383 O.2       1 RES1    0.0000
     33 O3         2.5630    0.9509    0.1723 O.3       1 RES1    0.0000
     34 C16        3.6581    1.4219   -0.6164 C.3       1 RES1    0.0000
     35 H15        3.3260    1.7886   -1.4390 H         1 RES1    0.0000
     36 H16        4.2516    0.6921   -0.8086 H         1 RES1    0.0000
     37 H17        4.1317    2.0996   -0.1312 H         1 RES1    0.0000
     38 C17       -0.1376   -2.0133    3.1863 C.2       1 RES1    0.0000
     39 O4        -0.9491   -2.6658    3.8050 O.2       1 RES1    0.0000
     40 O5         0.9870   -2.5885    2.7550 O.3       1 RES1    0.0000
     41 C18        1.1102   -4.0069    2.9906 C.3       1 RES1    0.0000
     42 H18        1.0721   -4.1776    3.9351 H         1 RES1    0.0000
     43 H19        1.9493   -4.3178    2.6425 H         1 RES1    0.0000
     44 H20        0.3916   -4.4670    2.5523 H         1 RES1    0.0000
     45 C19        2.0644    0.3415    3.1218 C.ar      1 RES1    0.0000
     46 C20        1.8628    1.4381    3.9503 C.ar      1 RES1    0.0000
     47 H21        1.0888    1.9414    3.8413 H         1 RES1    0.0000
     48 C21        2.7641    1.8120    4.9311 C.ar      1 RES1    0.0000
     49 H22        2.5974    2.5652    5.4514 H         1 RES1    0.0000
     50 C22        3.9030    1.0768    5.1386 C.ar      1 RES1    0.0000
     51 H23        4.5167    1.3338    5.7889 H         1 RES1    0.0000
     52 C23        4.1289   -0.0360    4.3804 C.ar      1 RES1    0.0000
     53 H24        4.8796   -0.5609    4.5386 H         1 RES1    0.0000
     54 C24        3.2367   -0.3847    3.3714 C.ar      1 RES1    0.0000
     55 N2         3.6032   -1.5783    2.5863 N.pl3     1 RES1    0.0000
     56 O6         4.0589   -2.5436    3.2132 O.2       1 RES1    0.0000
     57 O7         3.4730   -1.5765    1.3793 O.2       1 RES1    0.0000
@<TRIPOS>BOND
     1    1    2 1
     2    2    3 2
     3    3    4 1
     4    4    5 1
     5    6    4 1
     6    7    1 1
     7    8    7 1
     8    9    8 1
     9   10    8 1
    10   11    8 1
    11   12    2 1
    12   13   12 1
    13   14   12 1
    14   15   12 1
    15   16    1 1
    16   17   16 ar
    17   18   17 ar
    18   19   18 1
    19   20   18 ar
    20   21   20 1
    21   22   20 ar
    22   23   22 1
    23   24   16 ar
    24   25   24 1
    25   26   17 1
    26   27   26 1
    27   28   27 1
    28   29   27 1
    29   30   27 1
    30   31    3 1
    31   32   31 2
    32   33   31 1
    33   34   33 1
    34   35   34 1
    35   36   34 1
    36   37   34 1
    37   38    6 1
    38   39   38 2
    39   40   38 1
    40   41   40 1
    41   42   41 1
    42   43   41 1
    43   44   41 1
    44   45    4 1
    45   46   45 ar
    46   47   46 1
    47   48   46 ar
    48   49   48 1
    49   50   48 ar
    50   51   50 1
    51   52   50 ar
    52   53   52 1
    53   54   45 ar
    54   55   54 1
    55   56   55 2
    56   57   55 2
    57    6    7 2
    58   22   24 ar
    59   52   54 ar
@<TRIPOS>SUBSTRUCTURE
     1 RES1 1

@<TRIPOS>CRYSIN
  10.3140   17.9760   12.7620  90.0000 113.3310  90.0000 231 1

