# MOL2 file generated by ConQuest
# Please check atom types

@<TRIPOS>MOLECULE
XITSOJ
    45    47     1
SMALL
NO_CHARGES
****
Generated from CSD

@<TRIPOS>ATOM
      1 O1         7.7423    6.7680   13.5279 O.3       1 RES1    0.0000
      2 O2         8.9915    6.7242   15.7372 O.3       1 RES1    0.0000
      3 O3        -3.9861    1.8523   13.8529 O.2       1 RES1    0.0000
      4 O4        -4.7855    1.0115   15.6917 O.2       1 RES1    0.0000
      5 N1         3.9304    4.6127   15.7978 N.3       1 RES1    0.0000
      6 N2         5.0168    4.5523   17.7193 N.3       1 RES1    0.0000
      7 N3         2.8874    3.6102   17.8294 N.2       1 RES1    0.0000
      8 N4         1.8086    3.3164   17.0793 N.2       1 RES1    0.0000
      9 N5         0.9046    2.7264   17.7803 N.2       1 RES1    0.0000
     10 N6        -3.8754    1.5539   15.0418 N.pl3     1 RES1    0.0000
     11 C1         3.8503    4.2335   17.1060 C.2       1 RES1    0.0000
     12 C2         5.1879    5.2020   15.6011 C.ar      1 RES1    0.0000
     13 C3         5.7499    5.7383   14.4450 C.ar      1 RES1    0.0000
     14 H1         5.2695    5.7678   13.6140 H         1 RES1    0.0000
     15 C4         7.0410    6.2158   14.5611 C.ar      1 RES1    0.0000
     16 C5         7.7310    6.1840   15.7922 C.ar      1 RES1    0.0000
     17 C6         7.1476    5.6741   16.9325 C.ar      1 RES1    0.0000
     18 H2         7.6013    5.6635   17.7796 H         1 RES1    0.0000
     19 C7         5.8522    5.1710   16.7897 C.ar      1 RES1    0.0000
     20 C8         2.9248    4.4843   14.7382 C.3       1 RES1    0.0000
     21 H3         2.7045    3.5377   14.6089 H         1 RES1    0.0000
     22 H4         3.2810    4.8537   13.9040 H         1 RES1    0.0000
     23 H5         2.1157    4.9753   14.9932 H         1 RES1    0.0000
     24 C9         7.0738    6.8964   12.2673 C.3       1 RES1    0.0000
     25 H6         6.8230    6.0080   11.9396 H         1 RES1    0.0000
     26 H7         7.6732    7.3255   11.6215 H         1 RES1    0.0000
     27 H8         6.2679    7.4426   12.3798 H         1 RES1    0.0000
     28 C10        9.7697    6.7083   16.9391 C.3       1 RES1    0.0000
     29 H9         9.2866    7.1835   17.6473 H         1 RES1    0.0000
     30 H10       10.6291    7.1502   16.7770 H         1 RES1    0.0000
     31 H11        9.9263    5.7814   17.2147 H         1 RES1    0.0000
     32 C11        5.3761    4.2108   19.0919 C.3       1 RES1    0.0000
     33 H12        5.3787    5.0229   19.6397 H         1 RES1    0.0000
     34 H13        6.2688    3.8052   19.1053 H         1 RES1    0.0000
     35 H14        4.7234    3.5755   19.4514 H         1 RES1    0.0000
     36 C12       -0.2499    2.4348   17.0116 C.ar      1 RES1    0.0000
     37 C13       -1.2819    1.7708   17.6686 C.ar      1 RES1    0.0000
     38 H15       -1.1631    1.5411   18.5939 H         1 RES1    0.0000
     39 C14       -2.4581    1.4633   17.0322 C.ar      1 RES1    0.0000
     40 H16       -3.1664    1.0017   17.4895 H         1 RES1    0.0000
     41 C15       -2.6174    1.8251   15.7288 C.ar      1 RES1    0.0000
     42 C16       -1.6190    2.4597   15.0128 C.ar      1 RES1    0.0000
     43 H17       -1.7502    2.6705   14.0847 H         1 RES1    0.0000
     44 C17       -0.4366    2.7710   15.6642 C.ar      1 RES1    0.0000
     45 H18        0.2690    3.2303   15.2018 H         1 RES1    0.0000
@<TRIPOS>BOND
     1    1   15 1
     2    2   16 1
     3    3   10 2
     4    4   10 2
     5    5   11 1
     6    6   11 1
     7    7    8 1
     8    8    9 2
     9    9   36 1
    10   10   41 1
    11   11    7 2
    12   12    5 1
    13   13   12 ar
    14   14   13 1
    15   15   13 ar
    16   16   15 ar
    17   17   16 ar
    18   18   17 1
    19   19    6 1
    20   20    5 1
    21   21   20 1
    22   22   20 1
    23   23   20 1
    24   24    1 1
    25   25   24 1
    26   26   24 1
    27   27   24 1
    28   28    2 1
    29   29   28 1
    30   30   28 1
    31   31   28 1
    32   32    6 1
    33   33   32 1
    34   34   32 1
    35   35   32 1
    36   36   37 ar
    37   37   38 1
    38   39   37 ar
    39   40   39 1
    40   41   39 ar
    41   42   41 ar
    42   43   42 1
    43   44   36 ar
    44   45   44 1
    45   12   19 ar
    46   17   19 ar
    47   42   44 ar
@<TRIPOS>SUBSTRUCTURE
     1 RES1 1

@<TRIPOS>CRYSIN
   8.9005    7.5544   25.4468  90.0000  90.1970  90.0000  14 1

