# MOL2 file generated by ConQuest
# Please check atom types

@<TRIPOS>MOLECULE
XIVBUB
    39    43     1
SMALL
NO_CHARGES
****
Generated from CSD

@<TRIPOS>ATOM
      1 C1         7.1962   13.2535    2.5618 C.2       1 RES1    0.0000
      2 C2         7.1429   12.1897    3.5050 C.2       1 RES1    0.0000
      3 C3         8.4347   11.8551    3.6736 C.2       1 RES1    0.0000
      4 C4         7.9910   10.0514    5.0593 C.2       1 RES1    0.0000
      5 C5         8.5819    8.9175    5.8419 C.3       1 RES1    0.0000
      6 H1         9.3627    8.5795    5.3756 H         1 RES1    0.0000
      7 H2         8.8695    9.2424    6.7094 H         1 RES1    0.0000
      8 C6         7.6031    7.8086    6.0315 C.3       1 RES1    0.0000
      9 H3         7.9657    7.1702    6.6653 H         1 RES1    0.0000
     10 H4         7.4760    7.3499    5.1864 H         1 RES1    0.0000
     11 C7         6.2810    8.2952    6.5283 C.3       1 RES1    0.0000
     12 H5         6.3670    8.5259    7.4662 H         1 RES1    0.0000
     13 H6         5.6379    7.5725    6.4598 H         1 RES1    0.0000
     14 C8         5.7453    9.4897    5.7840 C.2       1 RES1    0.0000
     15 C9         6.6452   10.2924    4.9830 C.2       1 RES1    0.0000
     16 C10        6.0240   11.4644    4.2098 C.3       1 RES1    0.0000
     17 C11        4.9030   11.1137    3.2449 C.ar      1 RES1    0.0000
     18 C12        4.8839   10.2932    2.1385 C.ar      1 RES1    0.0000
     19 H7         5.6291    9.7864    1.9083 H         1 RES1    0.0000
     20 C13        3.7162   10.2410    1.3687 C.ar      1 RES1    0.0000
     21 H8         3.6817    9.6900    0.6210 H         1 RES1    0.0000
     22 C14        2.6159   10.9994    1.7088 C.ar      1 RES1    0.0000
     23 H9         1.8522   10.9517    1.1805 H         1 RES1    0.0000
     24 C15        2.6207   11.8320    2.8203 C.ar      1 RES1    0.0000
     25 H10        1.8758   12.3383    3.0506 H         1 RES1    0.0000
     26 C16        3.7797   11.8740    3.5668 C.ar      1 RES1    0.0000
     27 C17        5.2857   12.4422    5.1798 C.2       1 RES1    0.0000
     28 C18        6.0738   14.0115    1.9579 C.3       1 RES1    0.0000
     29 H11        6.4088   14.8212    1.5659 H         1 RES1    0.0000
     30 H12        5.4311   14.2273    2.6373 H         1 RES1    0.0000
     31 H13        5.6545   13.4762    1.2792 H         1 RES1    0.0000
     32 N1         8.4295   13.5432    2.2187 N.2       1 RES1    0.0000
     33 N2         8.9140   10.8351    4.4249 N.3       1 RES1    0.0000
     34 H14        9.7578   10.6874    4.4992 H         1 RES1    0.0000
     35 N3         4.0449   12.6569    4.6964 N.am      1 RES1    0.0000
     36 H15        3.4836   13.2096    5.0413 H         1 RES1    0.0000
     37 O1         9.2595   12.6136    2.9483 O.3       1 RES1    0.0000
     38 O2         4.5577    9.7960    5.8951 O.2       1 RES1    0.0000
     39 O3         5.7476   12.9623    6.1816 O.2       1 RES1    0.0000
@<TRIPOS>BOND
     1    1    2 1
     2    2    3 2
     3    3   33 1
     4    4    5 1
     5    5    6 1
     6    7    5 1
     7    8    5 1
     8    9    8 1
     9   10    8 1
    10   11    8 1
    11   12   11 1
    12   13   11 1
    13   14   11 1
    14   15    4 2
    15   16    2 1
    16   17   16 1
    17   18   17 ar
    18   19   18 1
    19   20   18 ar
    20   21   20 1
    21   22   20 ar
    22   23   22 1
    23   24   22 ar
    24   25   24 1
    25   26   17 ar
    26   27   16 1
    27   28    1 1
    28   29   28 1
    29   30   28 1
    30   31   28 1
    31   32    1 2
    32   33    4 1
    33   34   33 1
    34   35   26 1
    35   36   35 1
    36   37    3 1
    37   38   14 2
    38   39   27 2
    39   14   15 1
    40   15   16 1
    41   24   26 ar
    42   27   35 1
    43   32   37 1
@<TRIPOS>SUBSTRUCTURE
     1 RES1 1

@<TRIPOS>CRYSIN
  10.9160   11.9027   12.4848  90.0000 111.6020  90.0000  14 1

