# MOL2 file generated by ConQuest
# Please check atom types

@<TRIPOS>MOLECULE
XIVCUC
    32    34     1
SMALL
NO_CHARGES
****
Generated from CSD

@<TRIPOS>ATOM
      1 O1         2.2060    1.1090   -5.3665 O.2       1 RES1    0.0000
      2 O2         3.2362   -0.3693   -4.1705 O.2       1 RES1    0.0000
      3 O3         2.2436    3.2462    1.4656 O.3       1 RES1    0.0000
      4 O4         2.3639    3.1156    3.6667 O.2       1 RES1    0.0000
      5 O5         0.1387    9.7222    1.6192 O.2       1 RES1    0.0000
      6 O6        -0.0679    9.6649    3.7721 O.2       1 RES1    0.0000
      7 N1         2.6483    0.6897   -4.3025 N.pl3     1 RES1    0.0000
      8 N2         1.3440    4.9060   -2.3904 N.pl3     1 RES1    0.0000
      9 H1         1.2299    5.4652   -1.7124 H         1 RES1    0.0000
     10 H2         1.2377    5.1672   -3.2306 H         1 RES1    0.0000
     11 N3         1.4867    5.1465    0.3075 N.2       1 RES1    0.0000
     12 N4         0.2482    9.1590    2.7061 N.pl3     1 RES1    0.0000
     13 C1         2.4481    1.5304   -3.1036 C.ar      1 RES1    0.0000
     14 C2         2.0192    2.8166   -3.2934 C.ar      1 RES1    0.0000
     15 H3         1.8653    3.1427   -4.1731 H         1 RES1    0.0000
     16 C3         1.8055    3.6584   -2.1756 C.ar      1 RES1    0.0000
     17 C4         2.0681    3.1198   -0.8801 C.ar      1 RES1    0.0000
     18 C5         2.4941    1.7838   -0.7574 C.ar      1 RES1    0.0000
     19 H4         2.6504    1.4301    0.1100 H         1 RES1    0.0000
     20 C6         2.6918    0.9717   -1.8528 C.ar      1 RES1    0.0000
     21 H5         2.9807    0.0715   -1.7576 H         1 RES1    0.0000
     22 C7         1.8992    3.9272    0.3263 C.2       1 RES1    0.0000
     23 C8         2.0979    3.8024    2.7322 C.2       1 RES1    0.0000
     24 C9         1.6367    5.1916    2.7471 C.ar      1 RES1    0.0000
     25 C10        1.3623    5.8112    1.5224 C.ar      1 RES1    0.0000
     26 C11        0.9259    7.1413    1.5092 C.ar      1 RES1    0.0000
     27 H6         0.7483    7.5905    0.6923 H         1 RES1    0.0000
     28 C12        0.7628    7.7768    2.7199 C.ar      1 RES1    0.0000
     29 C13        1.0148    7.1772    3.9507 C.ar      1 RES1    0.0000
     30 H7         0.8825    7.6517    4.7618 H         1 RES1    0.0000
     31 C14        1.4626    5.8725    3.9548 C.ar      1 RES1    0.0000
     32 H8         1.6522    5.4377    4.7769 H         1 RES1    0.0000
@<TRIPOS>BOND
     1    1    7 2
     2    2    7 2
     3    3   22 1
     4    4   23 2
     5    5   12 2
     6    6   12 2
     7    7   13 1
     8    8    9 1
     9   10    8 1
    10   11   22 2
    11   12   28 1
    12   13   14 ar
    13   14   15 1
    14   16    8 1
    15   17   16 ar
    16   18   17 ar
    17   19   18 1
    18   20   13 ar
    19   21   20 1
    20   22   17 1
    21   23    3 1
    22   24   23 1
    23   25   11 1
    24   26   25 ar
    25   27   26 1
    26   28   26 ar
    27   29   28 ar
    28   30   29 1
    29   31   24 ar
    30   32   31 1
    31   14   16 ar
    32   18   20 ar
    33   24   25 ar
    34   29   31 ar
@<TRIPOS>SUBSTRUCTURE
     1 RES1 1

@<TRIPOS>CRYSIN
   7.0229    8.6148   21.5662  90.0000  90.0290  90.0000 231 1

