# MOL2 file generated by ConQuest
# Please check atom types

@<TRIPOS>MOLECULE
XIVXEF
    44    47     1
SMALL
USER_CHARGES
****
Generated from CSD

@<TRIPOS>ATOM
      1 O1         1.9406    0.1068    4.3575 O.2       1 RES1   -1.0000
      2 O2         2.4708   -0.3954    2.1604 O.3       1 RES1    0.0000
      3 O3         0.6115    2.5965    0.1944 O.2       1 RES1    0.0000
      4 O4         1.6329    4.2120   -0.7904 O.2       1 RES1    0.0000
      5 O5         4.1382    6.0906    3.0886 O.2       1 RES1    0.0000
      6 O6         4.0234    4.6310    4.6531 O.2       1 RES1    0.0000
      7 N1         2.2270    0.5619    3.2465 N.pl3     1 RES1    1.0000
      8 N2         1.6127    3.2292   -0.0794 N.pl3     1 RES1    0.0000
      9 N3         2.7652    0.3298    1.0304 N.2       1 RES1    0.0000
     10 N4         3.7138    5.0467    3.5562 N.pl3     1 RES1    0.0000
     11 C1         2.9685    2.7549    0.4988 C.3       1 RES1    0.0000
     12 C2         3.6055    3.8461    1.3947 C.3       1 RES1    0.0000
     13 H1         3.7309    4.6520    0.8507 H         1 RES1    0.0000
     14 C3         2.7343    4.2314    2.6395 C.3       1 RES1    0.0000
     15 C4         2.1894    3.0356    3.4724 C.3       1 RES1    0.0000
     16 H2         2.7169    2.9790    4.2967 H         1 RES1    0.0000
     17 C5         2.3709    1.7563    2.7266 C.2       1 RES1    0.0000
     18 C6         2.6923    1.5822    1.3765 C.2       1 RES1    0.0000
     19 C7         0.7060    3.2199    3.8733 C.3       1 RES1    0.0000
     20 H3         0.1413    3.0217    3.1100 H         1 RES1    0.0000
     21 H4         0.4851    2.5918    4.5781 H         1 RES1    0.0000
     22 C8         0.4197    4.6214    4.3499 C.2       1 RES1    0.0000
     23 C9        -0.3587    4.7881    5.6224 C.3       1 RES1    0.0000
     24 H5         0.1612    4.4649    6.3614 H         1 RES1    0.0000
     25 H6        -1.1776    4.2898    5.5655 H         1 RES1    0.0000
     26 H7        -0.5598    5.7182    5.7552 H         1 RES1    0.0000
     27 C10        0.8664    5.5978    3.5850 C.2       1 RES1    0.0000
     28 H8         0.7207    6.4861    3.8191 H         1 RES1    0.0000
     29 C11        1.6182    5.2522    2.3254 C.3       1 RES1    0.0000
     30 H9         2.0089    6.0554    1.9473 H         1 RES1    0.0000
     31 H10        1.0072    4.8761    1.6724 H         1 RES1    0.0000
     32 C12        3.8382    2.4344   -0.7185 C.3       1 RES1    0.0000
     33 H11        3.4921    1.6424   -1.1578 H         1 RES1    0.0000
     34 H12        3.7897    3.1708   -1.3475 H         1 RES1    0.0000
     35 C13        5.2606    2.2046   -0.3443 C.2       1 RES1    0.0000
     36 H13        5.8061    1.7545   -0.9471 H         1 RES1    0.0000
     37 C14        5.7893    2.6048    0.7989 C.2       1 RES1    0.0000
     38 C15        7.2134    2.3112    1.1814 C.3       1 RES1    0.0000
     39 H14        7.2258    1.7406    1.9538 H         1 RES1    0.0000
     40 H15        7.6660    3.1328    1.3845 H         1 RES1    0.0000
     41 H16        7.6566    1.8730    0.4519 H         1 RES1    0.0000
     42 C16        4.9952    3.3449    1.8333 C.3       1 RES1    0.0000
     43 H17        5.5148    4.1101    2.1258 H         1 RES1    0.0000
     44 H18        4.8795    2.7632    2.6002 H         1 RES1    0.0000
@<TRIPOS>BOND
     1    1    7 1
     2    2    7 1
     3    3    8 2
     4    4    8 2
     5    5   10 2
     6    6   10 2
     7    7   17 2
     8    8   11 1
     9    9    2 1
    10   10   14 1
    11   11   12 1
    12   12   13 1
    13   14   12 1
    14   15   14 1
    15   16   15 1
    16   17   15 1
    17   18    9 2
    18   19   15 1
    19   20   19 1
    20   21   19 1
    21   22   19 1
    22   23   22 1
    23   24   23 1
    24   25   23 1
    25   26   23 1
    26   27   22 2
    27   28   27 1
    28   29   14 1
    29   30   29 1
    30   31   29 1
    31   32   11 1
    32   33   32 1
    33   34   32 1
    34   35   32 1
    35   36   35 1
    36   37   35 2
    37   38   37 1
    38   39   38 1
    39   40   38 1
    40   41   38 1
    41   42   12 1
    42   43   42 1
    43   44   42 1
    44   11   18 1
    45   17   18 1
    46   27   29 1
    47   37   42 1
@<TRIPOS>SUBSTRUCTURE
     1 RES1 1

@<TRIPOS>CRYSIN
  10.9902    9.2632   16.3690  90.0000 100.7730  90.0000  14 1

