# MOL2 file generated by ConQuest
# Please check atom types

@<TRIPOS>MOLECULE
XIVXAB
    37    40     1
SMALL
NO_CHARGES
****
Generated from CSD

@<TRIPOS>ATOM
      1 O1         7.2877    6.2025   -2.8982 O.3       1 RES1    0.0000
      2 N1         6.9126    6.0043   -1.5801 N.2       1 RES1    0.0000
      3 N2         8.1525    7.2871   -3.0279 N.2       1 RES1    0.0000
      4 C1         8.2797    7.7430   -1.8088 C.2       1 RES1    0.0000
      5 C2         7.5188    6.9367   -0.9076 C.2       1 RES1    0.0000
      6 C3         7.4818    7.2113    0.5096 C.ar      1 RES1    0.0000
      7 C4         8.1998    8.3155    0.9535 C.ar      1 RES1    0.0000
      8 C5         8.9812    9.1618    0.0225 C.ar      1 RES1    0.0000
      9 C6         9.0403    8.8809   -1.3478 C.ar      1 RES1    0.0000
     10 C7         9.7871    9.6998   -2.2329 C.ar      1 RES1    0.0000
     11 H1         9.8150    9.4915   -3.1386 H         1 RES1    0.0000
     12 C8        10.4782   10.8103   -1.7602 C.ar      1 RES1    0.0000
     13 C9        10.4358   11.1052   -0.3881 C.ar      1 RES1    0.0000
     14 C10        9.7022   10.2782    0.4799 C.ar      1 RES1    0.0000
     15 H2         9.6952   10.4770    1.3892 H         1 RES1    0.0000
     16 C11        6.7482    6.3978    1.4118 C.ar      1 RES1    0.0000
     17 H3         6.2797    5.6619    1.0921 H         1 RES1    0.0000
     18 C12        6.7249    6.6946    2.7785 C.ar      1 RES1    0.0000
     19 C13        7.4110    7.8016    3.2458 C.ar      1 RES1    0.0000
     20 C14        8.1470    8.6045    2.3517 C.ar      1 RES1    0.0000
     21 H4         8.6093    9.3418    2.6804 H         1 RES1    0.0000
     22 C15        5.9250    5.8196    3.7185 C.3       1 RES1    0.0000
     23 H5         6.5047    5.4658    4.3973 H         1 RES1    0.0000
     24 H6         5.5322    5.0957    3.2251 H         1 RES1    0.0000
     25 H7         5.2309    6.3401    4.1281 H         1 RES1    0.0000
     26 C16        7.3938    8.2056    4.6981 C.3       1 RES1    0.0000
     27 H8         6.4891    8.3665    4.9754 H         1 RES1    0.0000
     28 H9         7.9109    9.0053    4.8142 H         1 RES1    0.0000
     29 H10        7.7708    7.5010    5.2311 H         1 RES1    0.0000
     30 C17       11.1594   12.2956    0.1693 C.3       1 RES1    0.0000
     31 H11       11.0294   12.3323    1.1200 H         1 RES1    0.0000
     32 H12       10.8151   13.0963   -0.2323 H         1 RES1    0.0000
     33 H13       12.0971   12.2182   -0.0225 H         1 RES1    0.0000
     34 C18       11.2422   11.6932   -2.7254 C.3       1 RES1    0.0000
     35 H14       11.1731   11.3322   -3.6122 H         1 RES1    0.0000
     36 H15       12.1652   11.7284   -2.4652 H         1 RES1    0.0000
     37 H16       10.8721   12.5792   -2.7101 H         1 RES1    0.0000
@<TRIPOS>BOND
     1    1    2 1
     2    2    5 2
     3    3    1 1
     4    4    3 2
     5    5    4 1
     6    6    5 1
     7    7    6 ar
     8    8    7 1
     9    9    4 1
    10   10    9 ar
    11   11   10 1
    12   12   10 ar
    13   13   12 ar
    14   14    8 ar
    15   15   14 1
    16   16    6 ar
    17   17   16 1
    18   18   16 ar
    19   19   18 ar
    20   20    7 ar
    21   21   20 1
    22   22   18 1
    23   23   22 1
    24   24   22 1
    25   25   22 1
    26   26   19 1
    27   27   26 1
    28   28   26 1
    29   29   26 1
    30   30   13 1
    31   31   30 1
    32   32   30 1
    33   33   30 1
    34   34   12 1
    35   35   34 1
    36   36   34 1
    37   37   34 1
    38    8    9 ar
    39   13   14 ar
    40   19   20 ar
@<TRIPOS>SUBSTRUCTURE
     1 RES1 1

@<TRIPOS>CRYSIN
   8.7431    9.4247   10.0659  75.8620  64.8700  75.1310   2 1

