# MOL2 file generated by ConQuest
# Please check atom types

@<TRIPOS>MOLECULE
XIWHOA
    34    34     1
SMALL
NO_CHARGES
****
Generated from CSD

@<TRIPOS>ATOM
      1 O1        -2.8848    2.1269    5.0645 O.2       1 RES1    0.0000
      2 O2        -3.0028    0.1814    4.1272 O.2       1 RES1    0.0000
      3 N1        -2.7745    0.8986    5.1022 N.pl3     1 RES1    0.0000
      4 N2        -1.1129   -1.4971    9.8908 N.3       1 RES1    0.0000
      5 C1        -2.3603    0.2817    6.3405 C.ar      1 RES1    0.0000
      6 C2        -2.1677   -1.1003    6.3899 C.ar      1 RES1    0.0000
      7 C3        -1.7572   -1.6895    7.5580 C.ar      1 RES1    0.0000
      8 C4        -1.5303   -0.9180    8.7334 C.ar      1 RES1    0.0000
      9 C5        -1.7524    0.4769    8.6408 C.ar      1 RES1    0.0000
     10 C6        -2.1547    1.0616    7.4655 C.ar      1 RES1    0.0000
     11 C7        -0.7053   -2.8994    9.9465 C.3       1 RES1    0.0000
     12 C8        -1.8599   -3.8606   10.1945 C.3       1 RES1    0.0000
     13 C9        -1.3864   -5.3089   10.1190 C.3       1 RES1    0.0000
     14 C10       -1.0473   -0.7476   11.1506 C.3       1 RES1    0.0000
     15 C11        0.2699   -0.0341   11.3833 C.3       1 RES1    0.0000
     16 C12        0.2035    0.7937   12.6620 C.3       1 RES1    0.0000
     17 H1        -2.3181   -1.6196    5.6333 H         1 RES1    0.0000
     18 H2        -1.6258   -2.6093    7.5832 H         1 RES1    0.0000
     19 H3        -1.6233    1.0082    9.3930 H         1 RES1    0.0000
     20 H4        -2.2867    1.9814    7.4242 H         1 RES1    0.0000
     21 H5        -0.0511   -3.0071   10.6546 H         1 RES1    0.0000
     22 H6        -0.2748   -3.1342    9.1090 H         1 RES1    0.0000
     23 H7        -2.5520   -3.7124    9.5313 H         1 RES1    0.0000
     24 H8        -2.2406   -3.6903   11.0697 H         1 RES1    0.0000
     25 H9        -2.1274   -5.8973   10.2763 H         1 RES1    0.0000
     26 H10       -0.7104   -5.4599   10.7849 H         1 RES1    0.0000
     27 H11       -1.0199   -5.4811    9.2483 H         1 RES1    0.0000
     28 H12       -1.2011   -1.3618   11.8857 H         1 RES1    0.0000
     29 H13       -1.7626   -0.0921   11.1605 H         1 RES1    0.0000
     30 H14        0.4639    0.5460   10.6303 H         1 RES1    0.0000
     31 H15        0.9849   -0.6850   11.4543 H         1 RES1    0.0000
     32 H16        1.0441    1.2356   12.8013 H         1 RES1    0.0000
     33 H17        0.0180    0.2173   13.4070 H         1 RES1    0.0000
     34 H18       -0.4927    1.4492   12.5830 H         1 RES1    0.0000
@<TRIPOS>BOND
     1    1    3 2
     2    2    3 2
     3    3    5 1
     4    4    8 1
     5    5    6 ar
     6    6    7 ar
     7    7    8 ar
     8    8    9 ar
     9    9   10 ar
    10   10    5 ar
    11   11    4 1
    12   12   11 1
    13   13   12 1
    14   14    4 1
    15   15   14 1
    16   16   15 1
    17   17    6 1
    18   18    7 1
    19   19    9 1
    20   20   10 1
    21   21   11 1
    22   22   11 1
    23   23   12 1
    24   24   12 1
    25   25   13 1
    26   26   13 1
    27   27   13 1
    28   28   14 1
    29   29   14 1
    30   30   15 1
    31   31   15 1
    32   32   16 1
    33   33   16 1
    34   34   16 1
@<TRIPOS>SUBSTRUCTURE
     1 RES1 1

@<TRIPOS>CRYSIN
  14.7361    9.2073   10.1036  90.0000 117.2050  90.0000   9 1

