# MOL2 file generated by ConQuest
# Please check atom types

@<TRIPOS>MOLECULE
XIWXOQ
    45    48     1
SMALL
NO_CHARGES
****
Generated from CSD

@<TRIPOS>ATOM
      1 O1         3.4659   10.3856    6.5300 O.3       1 RES1    0.0000
      2 C1         3.2208    9.0428    7.1091 C.3       1 RES1    0.0000
      3 C2         4.5490    8.3247    7.2534 C.3       1 RES1    0.0000
      4 H1         4.7527    8.2315    6.1182 H         1 RES1    0.0000
      5 H2         4.3623    7.3877    7.6630 H         1 RES1    0.0000
      6 C3         5.4958    9.1034    8.1559 C.3       1 RES1    0.0000
      7 H3         6.4191    8.7818    8.0390 H         1 RES1    0.0000
      8 H4         5.2602    9.0418    9.0553 H         1 RES1    0.0000
      9 C4         5.4795   10.5591    7.7900 C.2       1 RES1    0.0000
     10 C5         6.5479   11.3920    8.2738 C.2       1 RES1    0.0000
     11 C6         6.5446   12.8713    7.9152 C.2       1 RES1    0.0000
     12 C7         5.5362   13.3526    6.9402 C.ar      1 RES1    0.0000
     13 C8         5.5765   14.6613    6.4536 C.ar      1 RES1    0.0000
     14 H5         6.2837   15.2188    6.7585 H         1 RES1    0.0000
     15 C9         4.6402   15.0756    5.5237 C.ar      1 RES1    0.0000
     16 H6         4.6735   15.9463    5.1934 H         1 RES1    0.0000
     17 C10        3.6681   14.2111    5.0633 C.ar      1 RES1    0.0000
     18 H7         2.9980   14.5024    4.4006 H         1 RES1    0.0000
     19 C11        3.6300   12.9095    5.5298 C.ar      1 RES1    0.0000
     20 H8         3.0275   12.3135    5.1832 H         1 RES1    0.0000
     21 C12        4.5555   12.4661    6.4759 C.ar      1 RES1    0.0000
     22 C13        4.5255   11.0826    6.9804 C.2       1 RES1    0.0000
     23 C14        2.5254    9.2607    8.4567 C.3       1 RES1    0.0000
     24 H9         1.6161    9.7671    8.2321 H         1 RES1    0.0000
     25 H10        2.3654    8.3239    8.8826 H         1 RES1    0.0000
     26 H11        3.1650    9.8317    9.0858 H         1 RES1    0.0000
     27 C15        2.3021    8.3680    6.1192 C.3       1 RES1    0.0000
     28 H12        2.9856    8.2924    5.2543 H         1 RES1    0.0000
     29 H13        2.0229    7.4693    6.4231 H         1 RES1    0.0000
     30 H14        1.4871    8.8975    6.1893 H         1 RES1    0.0000
     31 O2         7.4505   10.9583    8.9819 O.2       1 RES1    0.0000
     32 N1         7.3551   13.7185    8.4134 N.2       1 RES1    0.0000
     33 N2        11.8291   13.1087   11.7374 N.pl3     1 RES1    0.0000
     34 O3        12.9111   12.8543   11.2048 O.2       1 RES1    0.0000
     35 O4        11.7046   13.3032   12.9336 O.2       1 RES1    0.0000
     36 C16        8.4242   13.4343    9.2749 C.ar      1 RES1    0.0000
     37 C17        8.3320   13.7238   10.6286 C.ar      1 RES1    0.0000
     38 H15        7.4956   14.0159   10.9660 H         1 RES1    0.0000
     39 C18        9.4401   13.6029   11.4376 C.ar      1 RES1    0.0000
     40 H16        9.3948   13.8258   12.3380 H         1 RES1    0.0000
     41 C19       10.6425   13.2152   10.8928 C.ar      1 RES1    0.0000
     42 C20       10.7604   12.9418    9.5472 C.ar      1 RES1    0.0000
     43 H17       11.6707   12.6766    9.1773 H         1 RES1    0.0000
     44 C21        9.6567   13.0579    8.7423 C.ar      1 RES1    0.0000
     45 H18        9.7423   12.8950    7.7951 H         1 RES1    0.0000
@<TRIPOS>BOND
     1    1    2 1
     2    2    3 1
     3    3    4 1
     4    5    3 1
     5    6    3 1
     6    7    6 1
     7    8    6 1
     8    9    6 1
     9   10    9 1
    10   11   10 1
    11   12   11 1
    12   13   12 ar
    13   14   13 1
    14   15   13 ar
    15   16   15 1
    16   17   15 ar
    17   18   17 1
    18   19   17 ar
    19   20   19 1
    20   21   12 ar
    21   22    1 1
    22   23    2 1
    23   24   23 1
    24   25   23 1
    25   26   23 1
    26   27    2 1
    27   28   27 1
    28   29   27 1
    29   30   27 1
    30   31   10 2
    31   32   11 2
    32   33   34 2
    33   35   33 2
    34   36   32 1
    35   37   36 ar
    36   38   37 1
    37   39   37 ar
    38   40   39 1
    39   41   33 1
    40   42   41 ar
    41   43   42 1
    42   44   36 ar
    43   45   44 1
    44    9   22 2
    45   19   21 ar
    46   21   22 1
    47   39   41 ar
    48   42   44 ar
@<TRIPOS>SUBSTRUCTURE
     1 RES1 1

@<TRIPOS>CRYSIN
   8.0374   10.8815   11.0140  67.5280  84.5030  82.9710   2 1

