# MOL2 file generated by ConQuest
# Please check atom types

@<TRIPOS>MOLECULE
XIZCOZ
    92    91     2
SMALL
NO_CHARGES
****
Generated from CSD

@<TRIPOS>ATOM
      1 C1         5.0934    2.1009    3.9414 C.3       1 RES1    0.0000
      2 H1         5.4793    2.2140    4.8358 H         1 RES1    0.0000
      3 C2         6.1716    2.3393    2.8164 C.3       1 RES1    0.0000
      4 H2         7.0415    2.5499    3.2172 H         1 RES1    0.0000
      5 C3         6.0526    0.8415    2.5607 C.2       1 RES1    0.0000
      6 C4         3.8016    2.8830    3.7962 C.3       1 RES1    0.0000
      7 H3         3.5663    2.8969    2.8467 H         1 RES1    0.0000
      8 C5         3.9233    4.3448    4.2714 C.3       1 RES1    0.0000
      9 H4         4.2018    4.9169    3.5275 H         1 RES1    0.0000
     10 C6         2.5287    4.7439    4.7396 C.3       1 RES1    0.0000
     11 H5         2.6242    5.3127    5.5333 H         1 RES1    0.0000
     12 C7         1.8850    3.3936    5.1862 C.3       1 RES1    0.0000
     13 C8         0.3777    3.2661    4.8668 C.3       1 RES1    0.0000
     14 H6        -0.1298    3.8692    5.4331 H         1 RES1    0.0000
     15 H7         0.2164    3.5078    3.9414 H         1 RES1    0.0000
     16 C9        -0.0586    1.8559    5.1081 C.ar      1 RES1    0.0000
     17 C10       -1.1043    1.4745    5.9321 C.ar      1 RES1    0.0000
     18 H8        -1.6137    2.1186    6.3676 H         1 RES1    0.0000
     19 C11       -1.3865    0.1375    6.1046 C.ar      1 RES1    0.0000
     20 H9        -2.0942   -0.1175    6.6513 H         1 RES1    0.0000
     21 C12       -0.6328   -0.8193    5.4779 C.ar      1 RES1    0.0000
     22 H10       -0.8348   -1.7195    5.5967 H         1 RES1    0.0000
     23 C13        0.4228   -0.4534    4.6692 C.ar      1 RES1    0.0000
     24 H11        0.9366   -1.1042    4.2484 H         1 RES1    0.0000
     25 C14        0.7140    0.8836    4.4880 C.ar      1 RES1    0.0000
     26 C15        1.8877    1.3836    3.7054 C.3       1 RES1    0.0000
     27 H12        2.4493    0.6386    3.4441 H         1 RES1    0.0000
     28 H13        1.5794    1.8293    2.9001 H         1 RES1    0.0000
     29 C16        1.7669    5.5233    3.6891 C.ar      1 RES1    0.0000
     30 C17        0.8195    6.4568    4.0925 C.ar      1 RES1    0.0000
     31 H14        0.6707    6.5832    5.0026 H         1 RES1    0.0000
     32 C18        0.0992    7.1940    3.1965 C.ar      1 RES1    0.0000
     33 H15       -0.5409    7.7971    3.4975 H         1 RES1    0.0000
     34 C19        0.3227    7.0444    1.8352 C.ar      1 RES1    0.0000
     35 C20        1.2504    6.1364    1.4047 C.ar      1 RES1    0.0000
     36 H16        1.4090    6.0277    0.4939 H         1 RES1    0.0000
     37 C21        1.9544    5.3770    2.3254 C.ar      1 RES1    0.0000
     38 H17        2.5710    4.7517    2.0191 H         1 RES1    0.0000
     39 C22        5.8687    3.2871    1.6883 C.ar      1 RES1    0.0000
     40 C23        6.4024    4.5566    1.6954 C.ar      1 RES1    0.0000
     41 H18        7.0046    4.8038    2.3595 H         1 RES1    0.0000
     42 C24        6.0436    5.4668    0.7139 C.ar      1 RES1    0.0000
     43 H19        6.4051    6.3237    0.7275 H         1 RES1    0.0000
     44 C25        5.1646    5.1209   -0.2763 C.ar      1 RES1    0.0000
     45 H20        4.9113    5.7439   -0.9178 H         1 RES1    0.0000
     46 C26        4.6652    3.8537   -0.3107 C.ar      1 RES1    0.0000
     47 H21        4.0847    3.6053   -0.9945 H         1 RES1    0.0000
     48 C27        5.0150    2.9357    0.6631 C.ar      1 RES1    0.0000
     49 H22        4.6715    2.0721    0.6274 H         1 RES1    0.0000
     50 C28        4.7490   -0.4623    4.2848 C.ar      1 RES1    0.0000
     51 C29        4.0729   -0.3470    5.4779 C.ar      1 RES1    0.0000
     52 H23        3.8214    0.4945    5.7836 H         1 RES1    0.0000
     53 C30        3.7646   -1.4701    6.2271 C.ar      1 RES1    0.0000
     54 H24        3.3193   -1.3792    7.0384 H         1 RES1    0.0000
     55 C31        4.1135   -2.7106    5.7755 C.ar      1 RES1    0.0000
     56 C32        4.8185   -2.8293    4.5851 C.ar      1 RES1    0.0000
     57 H25        5.0799   -3.6707    4.2918 H         1 RES1    0.0000
     58 C33        5.1340   -1.7273    3.8392 C.ar      1 RES1    0.0000
     59 H26        5.6019   -1.8204    3.0403 H         1 RES1    0.0000
     60 C34        3.1110   -3.7949    7.6394 C.3       1 RES1    0.0000
     61 H27        2.9902   -4.6730    8.0062 H         1 RES1    0.0000
     62 H28        2.2537   -3.4002    7.4622 H         1 RES1    0.0000
     63 H29        3.5915   -3.2483    8.2665 H         1 RES1    0.0000
     64 C35        1.9427    3.2805    6.7187 C.2       1 RES1    0.0000
     65 C36        2.0464    1.8769    8.5602 C.3       1 RES1    0.0000
     66 H30        2.8649    1.5200    8.9340 H         1 RES1    0.0000
     67 H31        1.9220    2.7572    8.9473 H         1 RES1    0.0000
     68 C37        2.4908    1.8404    8.6002 Du        2 SUP2    0.0000
     69 H32        2.1365    2.5710    9.1342 Du        2 SUP2    0.0000
     70 H33        3.4266    1.7084    8.8138 Du        2 SUP2    0.0000
     71 C38        1.1206    1.1674    8.9874 C.3       1 RES1    0.0000
     72 H34        1.1972    1.0832    9.9385 H         1 RES1    0.0000
     73 H35        1.1719    0.2982    8.5836 H         1 RES1    0.0000
     74 H36        0.2786    1.5732    8.7671 H         1 RES1    0.0000
     75 C39        1.6407    0.5011    8.7871 Du        2 SUP2    0.0000
     76 H37        1.5587    0.3016    9.7249 Du        2 SUP2    0.0000
     77 H38        2.0833   -0.2251    8.3433 Du        2 SUP2    0.0000
     78 H39        0.7654    0.6208    8.4100 Du        2 SUP2    0.0000
     79 C40       -0.2055    7.7528   -0.3768 C.3       1 RES1    0.0000
     80 H40       -0.7852    8.3625   -0.8410 H         1 RES1    0.0000
     81 H41       -0.3885    6.8559   -0.6641 H         1 RES1    0.0000
     82 H42        0.7086    7.9712   -0.5707 H         1 RES1    0.0000
     83 N1         5.0889    0.6762    3.5322 N.am      1 RES1    0.0000
     84 N2         2.6639    2.3276    4.5304 N.3       1 RES1    0.0000
     85 N3         4.9266    4.4366    5.3968 N.pl3     1 RES1    0.0000
     86 O1         6.5800    0.0574    1.8265 O.2       1 RES1    0.0000
     87 O2         3.8494   -3.8859    6.4257 O.3       1 RES1    0.0000
     88 O3         2.2889    2.0781    7.1462 O.3       1 RES1    0.0000
     89 O4         1.6092    4.1823    7.4335 O.2       1 RES1    0.0000
     90 O5        -0.4282    7.8548    1.0099 O.3       1 RES1    0.0000
     91 O6         4.5994    4.0654    6.5021 O.2       1 RES1    0.0000
     92 O7         6.0400    4.8393    5.1154 O.2       1 RES1    0.0000
@<TRIPOS>BOND
     1    1    2 1
     2    3    1 1
     3    4    3 1
     4    5    3 1
     5    6    1 1
     6    7    6 1
     7    8    6 1
     8    9    8 1
     9   10    8 1
    10   11   10 1
    11   12   10 1
    12   13   12 1
    13   14   13 1
    14   15   13 1
    15   16   13 1
    16   17   16 ar
    17   18   17 1
    18   19   17 ar
    19   20   19 1
    20   21   19 ar
    21   22   21 1
    22   23   21 ar
    23   24   23 1
    24   25   16 ar
    25   26   25 1
    26   27   26 1
    27   28   26 1
    28   29   10 1
    29   30   29 ar
    30   31   30 1
    31   32   30 ar
    32   33   32 1
    33   34   32 ar
    34   35   34 ar
    35   36   35 1
    36   37   29 ar
    37   38   37 1
    38   39    3 1
    39   40   39 ar
    40   41   40 1
    41   42   40 ar
    42   43   42 1
    43   44   42 ar
    44   45   44 1
    45   46   44 ar
    46   47   46 1
    47   48   39 ar
    48   49   48 1
    49   50   51 ar
    50   51   52 1
    51   53   51 ar
    52   54   53 1
    53   55   53 ar
    54   56   55 ar
    55   57   56 1
    56   58   50 ar
    57   59   58 1
    58   60   61 1
    59   62   60 1
    60   63   60 1
    61   64   12 1
    62   65   66 1
    63   67   65 1
    64   71   65 1
    65   72   71 1
    66   73   71 1
    67   74   71 1
    68   79   80 1
    69   81   79 1
    70   82   79 1
    71   83    1 1
    72   84    6 1
    73   85    8 1
    74   86    5 2
    75   87   55 1
    76   88   64 1
    77   89   64 2
    78   90   34 1
    79   91   85 2
    80   92   85 2
    81    5   83 1
    82   12   84 1
    83   23   25 ar
    84   26   84 1
    85   35   37 ar
    86   46   48 ar
    87   50   83 1
    88   56   58 ar
    89   60   87 1
    90   65   88 1
    91   79   90 1
@<TRIPOS>SUBSTRUCTURE
     1 RES1 1
     2 SUP2 68

@<TRIPOS>CRYSIN
   9.0149   11.0865   33.3731  90.0000  90.0000  90.0000  19 1

