# MOL2 file generated by ConQuest
# Please check atom types

@<TRIPOS>MOLECULE
XIZDOA
    63    66     1
SMALL
NO_CHARGES
****
Generated from CSD

@<TRIPOS>ATOM
      1 O1         6.1637    3.8307    2.4599 O.3       1 RES1    0.0000
      2 N1         5.0594    4.7766    2.3696 N.3       1 RES1    0.0000
      3 C1         5.6509    6.0874    1.9960 C.3       1 RES1    0.0000
      4 H1         6.1471    5.9697    1.1593 H         1 RES1    0.0000
      5 C2         6.6636    6.5492    3.1055 C.3       1 RES1    0.0000
      6 C3         7.6502    5.3978    3.4919 C.3       1 RES1    0.0000
      7 H2         8.0592    5.6244    4.3525 H         1 RES1    0.0000
      8 C4         6.8591    4.0896    3.6705 C.3       1 RES1    0.0000
      9 H3         6.2087    4.2054    4.3947 H         1 RES1    0.0000
     10 C5         4.2861    4.2157    1.2480 C.3       1 RES1    0.0000
     11 H4         4.8931    3.9761    0.5304 H         1 RES1    0.0000
     12 H5         3.6766    4.8910    0.9114 H         1 RES1    0.0000
     13 C6         3.5027    3.0020    1.6586 C.ar      1 RES1    0.0000
     14 C7         2.3558    3.1599    2.4278 C.ar      1 RES1    0.0000
     15 H6         2.0960    4.0085    2.7061 H         1 RES1    0.0000
     16 C8         1.5980    2.0498    2.7817 C.ar      1 RES1    0.0000
     17 H7         0.8311    2.1558    3.2960 H         1 RES1    0.0000
     18 C9         1.9870    0.7814    2.3662 C.ar      1 RES1    0.0000
     19 H8         1.4803    0.0392    2.6033 H         1 RES1    0.0000
     20 C10        3.1340    0.6236    1.5977 C.ar      1 RES1    0.0000
     21 H9         3.3942   -0.2251    1.3195 H         1 RES1    0.0000
     22 C11        3.8919    1.7337    1.2434 C.ar      1 RES1    0.0000
     23 H10        4.6592    1.6283    0.7285 H         1 RES1    0.0000
     24 C12        4.5139    7.0599    1.7361 C.ar      1 RES1    0.0000
     25 C13        3.4243    7.1130    2.5976 C.ar      1 RES1    0.0000
     26 H11        3.4226    6.6046    3.3761 H         1 RES1    0.0000
     27 C14        2.3381    7.9257    2.2952 C.ar      1 RES1    0.0000
     28 H12        1.6088    7.9614    2.8717 H         1 RES1    0.0000
     29 C15        2.3413    8.6855    1.1311 C.ar      1 RES1    0.0000
     30 H13        1.6146    9.2291    0.9287 H         1 RES1    0.0000
     31 C16        3.4308    8.6324    0.2696 C.ar      1 RES1    0.0000
     32 H14        3.4336    9.1413   -0.5087 H         1 RES1    0.0000
     33 C17        4.5170    7.8196    0.5721 C.ar      1 RES1    0.0000
     34 H15        5.2462    7.7845   -0.0043 H         1 RES1    0.0000
     35 C18        7.4924    7.6917    2.5340 C.2       1 RES1    0.0000
     36 O2         7.4444    8.0878    1.4011 O.2       1 RES1    0.0000
     37 O3         8.3531    8.1552    3.4367 O.3       1 RES1    0.0000
     38 C19        9.2861    9.1478    2.9529 C.3       1 RES1    0.0000
     39 H16        9.8553    9.4298    3.6716 H         1 RES1    0.0000
     40 H17        8.8011    9.9026    2.6119 H         1 RES1    0.0000
     41 H18        9.8216    8.7681    2.2515 H         1 RES1    0.0000
     42 C20        5.9298    7.0532    4.3471 C.2       1 RES1    0.0000
     43 O4         5.5835    6.3798    5.2694 O.2       1 RES1    0.0000
     44 O5         5.6812    8.3630    4.2591 O.3       1 RES1    0.0000
     45 C21        4.9524    8.9603    5.3548 C.3       1 RES1    0.0000
     46 H19        4.8394    9.8992    5.1903 H         1 RES1    0.0000
     47 H20        5.4420    8.8354    6.1710 H         1 RES1    0.0000
     48 H21        4.0905    8.5435    5.4317 H         1 RES1    0.0000
     49 C22        8.7730    5.2202    2.4658 C.3       1 RES1    0.0000
     50 H22        9.3549    4.5097    2.7472 H         1 RES1    0.0000
     51 H23        9.2748    6.0355    2.3954 H         1 RES1    0.0000
     52 H24        8.3944    5.0040    1.6107 H         1 RES1    0.0000
     53 C23        7.7331    2.9023    3.9810 C.ar      1 RES1    0.0000
     54 C24        7.8858    1.8519    3.0834 C.ar      1 RES1    0.0000
     55 H25        7.4622    1.8819    2.2558 H         1 RES1    0.0000
     56 C25        8.6716    0.7567    3.4225 C.ar      1 RES1    0.0000
     57 H26        8.7733    0.0539    2.8219 H         1 RES1    0.0000
     58 C26        9.3046    0.7116    4.6588 C.ar      1 RES1    0.0000
     59 H27        9.8305   -0.0209    4.8861 H         1 RES1    0.0000
     60 C27        9.1517    1.7620    5.5567 C.ar      1 RES1    0.0000
     61 H28        9.5756    1.7324    6.3842 H         1 RES1    0.0000
     62 C28        8.3662    2.8574    5.2177 C.ar      1 RES1    0.0000
     63 H29        8.2646    3.5605    5.8181 H         1 RES1    0.0000
@<TRIPOS>BOND
     1    1    2 1
     2    2    3 1
     3    3    4 1
     4    5    3 1
     5    6    5 1
     6    7    6 1
     7    8    1 1
     8    9    8 1
     9   10    2 1
    10   11   10 1
    11   12   10 1
    12   13   10 1
    13   14   13 ar
    14   15   14 1
    15   16   14 ar
    16   17   16 1
    17   18   16 ar
    18   19   18 1
    19   20   18 ar
    20   21   20 1
    21   22   13 ar
    22   23   22 1
    23   24    3 1
    24   25   24 ar
    25   26   25 1
    26   27   25 ar
    27   28   27 1
    28   29   27 ar
    29   30   29 1
    30   31   29 ar
    31   32   31 1
    32   33   24 ar
    33   34   33 1
    34   35    5 1
    35   36   35 2
    36   37   35 1
    37   38   37 1
    38   39   38 1
    39   40   38 1
    40   41   38 1
    41   42    5 1
    42   43   42 2
    43   44   42 1
    44   45   44 1
    45   46   45 1
    46   47   45 1
    47   48   45 1
    48   49    6 1
    49   50   49 1
    50   51   49 1
    51   52   49 1
    52   53    8 1
    53   54   53 ar
    54   55   54 1
    55   56   54 ar
    56   57   56 1
    57   58   56 ar
    58   59   58 1
    59   60   58 ar
    60   61   60 1
    61   62   53 ar
    62   63   62 1
    63    6    8 1
    64   20   22 ar
    65   31   33 ar
    66   60   62 ar
@<TRIPOS>SUBSTRUCTURE
     1 RES1 1

@<TRIPOS>CRYSIN
  10.5658   11.1733   11.7745  69.2020  75.0520  74.5950   2 1

