# MOL2 file generated by ConQuest
# Please check atom types

@<TRIPOS>MOLECULE
XOBQEL
    35    37     1
SMALL
NO_CHARGES
****
Generated from CSD

@<TRIPOS>ATOM
      1 O1         4.4800    1.2529   -0.6794 O.3       1 RES1    0.0000
      2 O2         2.1434    2.2972    3.2116 O.2       1 RES1    0.0000
      3 O3        -0.6329    2.2222    1.6451 O.2       1 RES1    0.0000
      4 O4        -1.7969    1.0125    3.1591 O.3       1 RES1    0.0000
      5 N1         1.5330    0.5666    1.8584 N.am      1 RES1    0.0000
      6 N2         2.6017   -0.0248   -0.1834 N.2       1 RES1    0.0000
      7 N3         5.2156    2.3201   -0.0842 N.2       1 RES1    0.0000
      8 C1         2.3906    1.6581    2.1916 C.2       1 RES1    0.0000
      9 C2         1.6721   -0.1842    0.7187 C.2       1 RES1    0.0000
     10 C3         3.4437    0.9917    0.1329 C.2       1 RES1    0.0000
     11 C4         3.4346    1.8185    1.2277 C.2       1 RES1    0.0000
     12 C5         4.6195    2.6280    1.0406 C.2       1 RES1    0.0000
     13 C6         0.3867    0.3129    2.7175 C.3       1 RES1    0.0000
     14 C7        -0.7198    1.3060    2.4367 C.2       1 RES1    0.0000
     15 C8        -2.9657    1.8493    2.9065 C.3       1 RES1    0.0000
     16 C9        -4.1058    1.2459    3.6794 C.3       1 RES1    0.0000
     17 C10        5.2094    3.7065    1.8697 C.ar      1 RES1    0.0000
     18 C11        4.5684    4.2007    2.9982 C.ar      1 RES1    0.0000
     19 C12        5.1398    5.2445    3.7356 C.ar      1 RES1    0.0000
     20 C13        6.3523    5.7788    3.3594 C.ar      1 RES1    0.0000
     21 C14        7.0130    5.2708    2.2384 C.ar      1 RES1    0.0000
     22 C15        6.4626    4.2334    1.4991 C.ar      1 RES1    0.0000
     23 H1         1.0387   -0.8775    0.5727 H         1 RES1    0.0000
     24 H2         0.6612    0.3839    3.6663 H         1 RES1    0.0000
     25 H3         0.0525   -0.6063    2.5621 H         1 RES1    0.0000
     26 H4        -3.1763    1.8657    1.9389 H         1 RES1    0.0000
     27 H5        -2.7988    2.7769    3.2097 H         1 RES1    0.0000
     28 H6        -4.9210    1.7614    3.5110 H         1 RES1    0.0000
     29 H7        -3.8963    1.2648    4.6358 H         1 RES1    0.0000
     30 H8        -4.2391    0.3188    3.3912 H         1 RES1    0.0000
     31 H9         3.7380    3.8287    3.2714 H         1 RES1    0.0000
     32 H10        4.6897    5.5851    4.5010 H         1 RES1    0.0000
     33 H11        6.7362    6.4894    3.8591 H         1 RES1    0.0000
     34 H12        7.8498    5.6398    1.9782 H         1 RES1    0.0000
     35 H13        6.9259    3.8813    0.7486 H         1 RES1    0.0000
@<TRIPOS>BOND
     1    1    7 1
     2    2    8 2
     3    3   14 2
     4    4   14 1
     5    5    8 1
     6    6    9 2
     7    7   12 2
     8    8   11 1
     9    9    5 1
    10   10    1 1
    11   11   10 2
    12   12   11 1
    13   13    5 1
    14   14   13 1
    15   15    4 1
    16   16   15 1
    17   17   12 1
    18   18   17 ar
    19   19   18 ar
    20   20   19 ar
    21   21   20 ar
    22   22   17 ar
    23   23    9 1
    24   24   13 1
    25   25   13 1
    26   26   15 1
    27   27   15 1
    28   28   16 1
    29   29   16 1
    30   30   16 1
    31   31   18 1
    32   32   19 1
    33   33   20 1
    34   34   21 1
    35   35   22 1
    36    6   10 1
    37   21   22 ar
@<TRIPOS>SUBSTRUCTURE
     1 RES1 1

@<TRIPOS>CRYSIN
  14.6020    4.9659   19.4990  90.0000 106.2990  90.0000 231 1

