# MOL2 file generated by ConQuest
# Please check atom types

@<TRIPOS>MOLECULE
XOBZOE
    25    19     2
SMALL
NO_CHARGES
****
Generated from CSD

@<TRIPOS>ATOM
      1 O1         3.0621   18.9422    3.0211 O.3       1 RES1    0.0000
      2 C1         3.8765   19.3833    2.0118 C.2       1 RES1    0.0000
      3 H1         4.2983   18.8172    1.3755 H         1 RES1    0.0000
      4 C2         3.9998   20.7138    2.0383 C.2       1 RES1    0.0000
      5 H2         4.5142   21.2504    1.4457 H         1 RES1    0.0000
      6 C3         3.2152   21.1652    3.1198 C.2       1 RES1    0.0000
      7 H3         3.0958   22.0688    3.3911 H         1 RES1    0.0000
      8 C4         2.6647   20.0736    3.6984 C.2       1 RES1    0.0000
      9 C5         1.8138   19.9863    4.8415 C.2       1 RES1    0.0000
     10 H4         1.5525   20.8213    5.2134 H         1 RES1    0.0000
     11 C6         1.3284   18.9088    5.4684 C.2       1 RES1    0.0000
     12 N1         0.4911   19.1760    6.6466 N.pl3     1 RES1    0.0000
     13 O2         0.2195   20.3311    6.9605 O.2       1 RES1    0.0000
     14 O3        -0.1045   18.2067    7.1418 O.2       1 RES1    0.0000
     15 C7         1.3977   17.4392    5.0372 C.3       1 RES1    0.0000
     16 H5         0.4915   17.0454    5.0138 H         1 RES1    0.0000
     17 H6         1.7994   17.3640    4.1366 H         1 RES1    0.0000
     18 O4         2.2165   16.7501    6.0057 O.3       1 RES1    0.0000
     19 O5         0.3138   18.2134    7.4365 Du        2 SUP2    0.0000
     20 C8         1.6198   17.4812    5.2633 Du        2 SUP2    0.0000
     21 H7         2.3365   17.3794    4.5912 Du        2 SUP2    0.0000
     22 H8         1.9350   17.0808    6.1156 Du        2 SUP2    0.0000
     23 O6         0.4145   16.7973    4.8158 Du        2 SUP2    0.0000
     24 H9         3.2131   16.7446    5.6220 H         1 RES1    0.0000
     25 H10        0.5700   16.6561    3.9845 Du        2 SUP2    0.0000
@<TRIPOS>BOND
     1    1    2 1
     2    2    3 1
     3    4    2 2
     4    5    4 1
     5    6    4 1
     6    7    6 1
     7    8    1 1
     8    9    8 1
     9   10    9 1
    10   11    9 2
    11   12   11 1
    12   13   12 2
    13   14   12 2
    14   15   11 1
    15   16   15 1
    16   17   15 1
    17   18   15 1
    18   24   18 1
    19    6    8 2
@<TRIPOS>SUBSTRUCTURE
     1 RES1 1
     2 SUP2 19

@<TRIPOS>CRYSIN
   4.2404   22.1197    7.9235  90.0000 100.2300  90.0000   9 1

