# MOL2 file generated by ConQuest
# Please check atom types

@<TRIPOS>MOLECULE
XOCDAU01
    25    25     1
SMALL
NO_CHARGES
****
Generated from CSD

@<TRIPOS>ATOM
      1 O1         5.3175    1.6150   -0.1825 O.2       1 RES1    0.0000
      2 N1         4.4817    0.7792   -0.6167 N.pl3     1 RES1    0.0000
      3 N2         3.7025    0.0000    2.6631 N.1       1 RES1    0.0000
      4 C1         3.7025    0.0000    1.5447 C.1       1 RES1    0.0000
      5 C2         3.7025    0.0000    0.1280 C.2       1 RES1    0.0000
      6 C3         4.2520    0.5495   -2.0957 C.3       1 RES1    0.0000
      7 C4         5.5811    0.1318   -2.6873 C.3       1 RES1    0.0000
      8 H1         5.8796   -0.6368   -2.3439 H         1 RES1    0.0000
      9 H2         6.1091    0.8071   -2.6380 H         1 RES1    0.0000
     10 H3         5.4649   -0.0296   -3.5548 H         1 RES1    0.0000
     11 N1A        2.9233   -0.7792   -0.6167 N.pl3     1 RES1    0.0000
     12 O1A        2.0875   -1.6150   -0.1825 O.2       1 RES1    0.0000
     13 C3A        3.1530   -0.5495   -2.0957 C.3       1 RES1    0.0000
     14 C4G        3.8343    1.8786   -2.6873 C.3       1 RES1    0.0000
     15 H1G        3.0657    2.1771   -2.3439 H         1 RES1    0.0000
     16 H2G        4.5096    2.4066   -2.6380 H         1 RES1    0.0000
     17 H3G        3.6729    1.7624   -3.5548 H         1 RES1    0.0000
     18 C4A        1.8239   -0.1318   -2.6873 C.3       1 RES1    0.0000
     19 H1A        1.5254    0.6368   -2.3439 H         1 RES1    0.0000
     20 H2A        1.2959   -0.8071   -2.6380 H         1 RES1    0.0000
     21 H3A        1.9401    0.0296   -3.5548 H         1 RES1    0.0000
     22 C4F        3.5707   -1.8786   -2.6873 C.3       1 RES1    0.0000
     23 H1F        4.3393   -2.1771   -2.3439 H         1 RES1    0.0000
     24 H2F        2.8954   -2.4066   -2.6380 H         1 RES1    0.0000
     25 H3F        3.7321   -1.7624   -3.5548 H         1 RES1    0.0000
@<TRIPOS>BOND
     1    1    2 1
     2    2    5 2
     3    3    4 3
     4    4    5 1
     5    5   11 1
     6    6    2 1
     7    7    6 1
     8    8    7 1
     9    9    7 1
    10   10    7 1
    11   11   12 2
    12   13    6 1
    13   14    6 1
    14   15   14 1
    15   16   14 1
    16   17   14 1
    17   18   13 1
    18   19   18 1
    19   20   18 1
    20   21   18 1
    21   22   13 1
    22   23   22 1
    23   24   22 1
    24   25   22 1
    25   11   13 1
@<TRIPOS>SUBSTRUCTURE
     1 RES1 1

@<TRIPOS>CRYSIN
   7.4050    7.4050    8.6492  90.0000  90.0000  90.0000 113 1

