# MOL2 file generated by ConQuest
# Please check atom types

@<TRIPOS>MOLECULE
XOCDAU
    25    25     1
SMALL
NO_CHARGES
****
Generated from CSD

@<TRIPOS>ATOM
      1 N1         3.7005    0.0000   11.3102 N.1       1 RES1    0.0000
      2 C1         3.7005    0.0000   10.1858 C.1       1 RES1    0.0000
      3 C2         3.7005    0.0000    8.7614 C.2       1 RES1    0.0000
      4 N2         4.4709   -0.7704    8.0207 N.3       1 RES1    0.0000
      5 O1         5.3117   -1.6112    8.4598 O.2       1 RES1    0.0000
      6 C3         4.2556   -0.5551    6.5583 C.3       1 RES1    0.0000
      7 C4         5.5781   -0.1295    5.9637 C.3       1 RES1    0.0000
      8 H1         5.9356    0.6957    6.3872 H         1 RES1    0.0000
      9 H2         5.4471    0.1110    5.0129 H         1 RES1    0.0000
     10 H3         6.2094   -0.8289    6.1106 H         1 RES1    0.0000
     11 C3A        3.1454    0.5551    6.5583 C.3       1 RES1    0.0000
     12 N2A        2.9301    0.7704    8.0207 N.pl3     1 RES1    0.0000
     13 O1A        2.0893    1.6112    8.4598 O.2       1 RES1    0.0000
     14 C4A        1.8229    0.1295    5.9637 C.3       1 RES1    0.0000
     15 H1A        1.4654   -0.6957    6.3872 H         1 RES1    0.0000
     16 H2A        1.9539   -0.1110    5.0129 H         1 RES1    0.0000
     17 H3A        1.1916    0.8289    6.1106 H         1 RES1    0.0000
     18 C4D        3.5710    1.8776    5.9637 C.3       1 RES1    0.0000
     19 H1D        4.3962    2.2351    6.3872 H         1 RES1    0.0000
     20 H2D        3.8115    1.7466    5.0129 H         1 RES1    0.0000
     21 H3D        2.8716    2.5089    6.1106 H         1 RES1    0.0000
     22 C4E        3.8300   -1.8776    5.9637 C.3       1 RES1    0.0000
     23 H1E        3.0048   -2.2351    6.3872 H         1 RES1    0.0000
     24 H2E        3.5895   -1.7466    5.0129 H         1 RES1    0.0000
     25 H3E        4.5294   -2.5089    6.1106 H         1 RES1    0.0000
@<TRIPOS>BOND
     1    1    2 3
     2    2    3 1
     3    3    4 1
     4    4    5 1
     5    6    4 1
     6    7    6 1
     7    8    7 1
     8    9    7 1
     9   10    7 1
    10   11    6 1
    11   12    3 2
    12   13   12 1
    13   14   11 1
    14   15   14 1
    15   16   14 1
    16   17   14 1
    17   18   11 1
    18   19   18 1
    19   20   18 1
    20   21   18 1
    21   22    6 1
    22   23   22 1
    23   24   22 1
    24   25   22 1
    25   11   12 1
@<TRIPOS>SUBSTRUCTURE
     1 RES1 1

@<TRIPOS>CRYSIN
   7.4010    7.4010    8.6430  90.0000  90.0000  90.0000 113 1

