# MOL2 file generated by ConQuest
# Please check atom types

@<TRIPOS>MOLECULE
XOCYUK
    31    32     1
SMALL
NO_CHARGES
****
Generated from CSD

@<TRIPOS>ATOM
      1 O1         8.4626    8.2784    6.1328 O.2       1 RES1    0.0000
      2 O2         8.2953    6.8980    7.7820 O.2       1 RES1    0.0000
      3 O3         7.5040    4.2783    0.7824 O.2       1 RES1    0.0000
      4 O4         8.2014    2.7435    2.2780 O.3       1 RES1    0.0000
      5 O5         4.3856    1.1127    1.9125 O.2       1 RES1    0.0000
      6 O6         6.3275    1.0165    0.7736 O.3       1 RES1    0.0000
      7 O7         4.8774    3.9463    1.9870 O.3       1 RES1    0.0000
      8 N1         8.1033    7.2088    6.6165 N.pl3     1 RES1    0.0000
      9 C1         5.3200    3.5027    3.2781 C.3       1 RES1    0.0000
     10 C2         5.9010    2.9618    2.0198 C.3       1 RES1    0.0000
     11 C3         6.0519    4.4819    4.1249 C.ar      1 RES1    0.0000
     12 C4         6.5670    5.6682    3.5866 C.ar      1 RES1    0.0000
     13 C5         6.2163    4.2018    5.4868 C.ar      1 RES1    0.0000
     14 C6         6.9005    5.0896    6.3091 C.ar      1 RES1    0.0000
     15 C7         7.2523    6.5635    4.4007 C.ar      1 RES1    0.0000
     16 C8         7.4019    6.2550    5.7461 C.ar      1 RES1    0.0000
     17 C9         7.2818    3.4160    1.5943 C.2       1 RES1    0.0000
     18 C10        9.5829    3.1034    2.0343 C.3       1 RES1    0.0000
     19 C11        5.4417    1.5886    1.5707 C.2       1 RES1    0.0000
     20 C12        5.9385   -0.2685    0.2358 C.3       1 RES1    0.0000
     21 H1         4.6262    2.8555    3.8317 H         1 RES1    0.0000
     22 H2         6.4549    5.9314    2.5425 H         1 RES1    0.0000
     23 H3         5.8126    3.2962    5.9214 H         1 RES1    0.0000
     24 H4         7.0482    4.9162    7.3675 H         1 RES1    0.0000
     25 H5         7.6941    7.4750    4.0181 H         1 RES1    0.0000
     26 H6         9.7323    4.1205    2.3162 H         1 RES1    0.0000
     27 H7         9.8055    3.0280    0.9948 H         1 RES1    0.0000
     28 H8        10.1621    2.4886    2.6846 H         1 RES1    0.0000
     29 H9         6.6884   -0.6635   -0.4104 H         1 RES1    0.0000
     30 H10        5.8083   -1.0174    0.9835 H         1 RES1    0.0000
     31 H11        5.0408   -0.0607   -0.2998 H         1 RES1    0.0000
@<TRIPOS>BOND
     1    1    8 2
     2    2    8 2
     3    3   17 2
     4    4   17 1
     5    5   19 2
     6    6   19 1
     7    7    9 1
     8    8   16 1
     9    9   10 1
    10   10    7 1
    11   11    9 1
    12   12   11 ar
    13   13   11 ar
    14   14   13 ar
    15   15   12 ar
    16   16   14 ar
    17   17   10 1
    18   18    4 1
    19   19   10 1
    20   20    6 1
    21   21    9 1
    22   22   12 1
    23   23   13 1
    24   24   14 1
    25   25   15 1
    26   26   18 1
    27   27   18 1
    28   28   18 1
    29   29   20 1
    30   30   20 1
    31   31   20 1
    32   15   16 ar
@<TRIPOS>SUBSTRUCTURE
     1 RES1 1

@<TRIPOS>CRYSIN
   7.7460    8.0800   11.8350  86.1980  74.1050  60.6730   2 1

