# MOL2 file generated by ConQuest
# Please check atom types

@<TRIPOS>MOLECULE
XODPIQ
    38    38     1
SMALL
NO_CHARGES
****
Generated from CSD

@<TRIPOS>ATOM
      1 O1        -0.3234    5.5797    4.8458 O.3       1 RES1    0.0000
      2 H1        -0.8013    5.2263    4.0185 H         1 RES1    0.0000
      3 N1         0.2466    4.4391    5.4204 N.2       1 RES1    0.0000
      4 N2         3.9373    3.8997   11.0799 N.3       1 RES1    0.0000
      5 N3         1.4733   -0.6602    6.3997 N.3       1 RES1    0.0000
      6 C1         1.3384    3.6347    7.3958 C.ar      1 RES1    0.0000
      7 C2         1.6844    3.9025    8.7237 C.ar      1 RES1    0.0000
      8 H2         1.5139    4.7652    9.0829 H         1 RES1    0.0000
      9 C3         2.2713    2.9353    9.5287 C.ar      1 RES1    0.0000
     10 C4         2.5075    1.6728    8.9874 C.ar      1 RES1    0.0000
     11 H3         2.8839    0.9932    9.5343 H         1 RES1    0.0000
     12 C5         2.2005    1.3877    7.6521 C.ar      1 RES1    0.0000
     13 C6         1.6164    2.3710    6.8634 C.ar      1 RES1    0.0000
     14 H4         1.4048    2.1840    5.9562 H         1 RES1    0.0000
     15 C7         0.6994    4.6907    6.5979 C.2       1 RES1    0.0000
     16 H5         0.5672    5.5455    7.0275 H         1 RES1    0.0000
     17 C8         2.6326    3.2534   10.9597 C.3       1 RES1    0.0000
     18 H6         1.9400    3.8480   11.3433 H         1 RES1    0.0000
     19 H7         2.6366    2.4150   11.4864 H         1 RES1    0.0000
     20 C9         4.0746    4.4636   12.4198 C.3       1 RES1    0.0000
     21 H8         3.3725    5.1321   12.5668 H         1 RES1    0.0000
     22 H9         4.9533    4.8888   12.5069 H         1 RES1    0.0000
     23 H10        3.9891    3.7487   13.0852 H         1 RES1    0.0000
     24 C10        5.0154    2.9548   10.8288 C.3       1 RES1    0.0000
     25 H11        4.9344    2.6005    9.9185 H         1 RES1    0.0000
     26 H12        4.9606    2.2174   11.4719 H         1 RES1    0.0000
     27 H13        5.8782    3.4092   10.9264 H         1 RES1    0.0000
     28 C11        2.5699    0.0301    7.0869 C.3       1 RES1    0.0000
     29 H14        3.3201    0.1459    6.4510 H         1 RES1    0.0000
     30 H15        2.8911   -0.5442    7.8268 H         1 RES1    0.0000
     31 C12        0.3941   -0.9920    7.3292 C.3       1 RES1    0.0000
     32 H16        0.7359   -1.5911    8.0262 H         1 RES1    0.0000
     33 H17       -0.3316   -1.4371    6.8426 H         1 RES1    0.0000
     34 H18        0.0538   -0.1703    7.7416 H         1 RES1    0.0000
     35 C13        1.9972   -1.8947    5.8018 C.3       1 RES1    0.0000
     36 H19        2.3559   -2.4728    6.5072 H         1 RES1    0.0000
     37 H20        2.7093   -1.6732    5.1659 H         1 RES1    0.0000
     38 H21        1.2754   -2.3623    5.3327 H         1 RES1    0.0000
@<TRIPOS>BOND
     1    1    2 1
     2    3    1 1
     3    4   17 1
     4    5   28 1
     5    6    7 ar
     6    7    8 1
     7    9    7 ar
     8   10    9 ar
     9   11   10 1
    10   12   10 ar
    11   13    6 ar
    12   14   13 1
    13   15    3 2
    14   16   15 1
    15   17    9 1
    16   18   17 1
    17   19   17 1
    18   20    4 1
    19   21   20 1
    20   22   20 1
    21   23   20 1
    22   24    4 1
    23   25   24 1
    24   26   24 1
    25   27   24 1
    26   28   12 1
    27   29   28 1
    28   30   28 1
    29   31    5 1
    30   32   31 1
    31   33   31 1
    32   34   31 1
    33   35    5 1
    34   36   35 1
    35   37   35 1
    36   38   35 1
    37    6   15 1
    38   12   13 ar
@<TRIPOS>SUBSTRUCTURE
     1 RES1 1

@<TRIPOS>CRYSIN
  14.5429   10.1344   18.1260  90.0000  90.0000  90.0000  61 1

