# MOL2 file generated by ConQuest
# Please check atom types

@<TRIPOS>MOLECULE
XODXOF
    54    59     1
SMALL
NO_CHARGES
****
Generated from CSD

@<TRIPOS>ATOM
      1 O1         4.8594   14.6435    4.9235 O.2       1 RES1    0.0000
      2 O2         7.8181   10.6816    5.0536 O.3       1 RES1    0.0000
      3 O3         5.1664    9.1342    4.9723 O.2       1 RES1    0.0000
      4 O4         5.9113    7.9507    3.3695 O.2       1 RES1    0.0000
      5 O5         0.0482   15.0890    5.3294 O.3       1 RES1    0.0000
      6 N1         3.4051   12.8508    4.4861 N.am      1 RES1    0.0000
      7 N2         2.0610   13.2580    4.5830 N.3       1 RES1    0.0000
      8 N3         5.1826    8.8194    3.8033 N.pl3     1 RES1    0.0000
      9 C1         4.5768   13.4865    4.7265 C.2       1 RES1    0.0000
     10 C2         5.3695   12.1597    4.7152 C.3       1 RES1    0.0000
     11 C3         3.9446   11.4774    4.4687 C.3       1 RES1    0.0000
     12 C4         6.3972   12.0158    3.6245 C.ar      1 RES1    0.0000
     13 C5         6.2444   12.5989    2.3700 C.ar      1 RES1    0.0000
     14 C6         7.1863   12.4400    1.3795 C.ar      1 RES1    0.0000
     15 C7         8.3036   11.6804    1.6252 C.ar      1 RES1    0.0000
     16 C8         8.4932   11.0994    2.8511 C.ar      1 RES1    0.0000
     17 C9         7.5390   11.2778    3.8423 C.ar      1 RES1    0.0000
     18 C10        7.1177   11.1088    6.1653 C.ar      1 RES1    0.0000
     19 C11        7.6432   10.7361    7.3899 C.ar      1 RES1    0.0000
     20 C12        7.0172   11.1435    8.5401 C.ar      1 RES1    0.0000
     21 C13        5.9014   11.9414    8.4784 C.ar      1 RES1    0.0000
     22 C14        5.3782   12.2758    7.2524 C.ar      1 RES1    0.0000
     23 C15        5.9650   11.8529    6.0652 C.ar      1 RES1    0.0000
     24 C16        3.6999   10.7235    3.1853 C.ar      1 RES1    0.0000
     25 C17        4.2798    9.4928    2.8650 C.ar      1 RES1    0.0000
     26 C18        4.0218    8.8332    1.6775 C.ar      1 RES1    0.0000
     27 C19        3.1719    9.3925    0.7633 C.ar      1 RES1    0.0000
     28 C20        2.5958   10.6036    1.0291 C.ar      1 RES1    0.0000
     29 C21        2.8632   11.2551    2.2197 C.ar      1 RES1    0.0000
     30 C22        1.6559   13.4102    5.9810 C.3       1 RES1    0.0000
     31 C23        0.2183   13.8653    6.0108 C.3       1 RES1    0.0000
     32 C24        0.4232   14.9216    3.9782 C.3       1 RES1    0.0000
     33 C25        1.8656   14.5232    3.8696 C.3       1 RES1    0.0000
     34 H1         3.6506   10.9646    5.2497 H         1 RES1    0.0000
     35 H2         5.4866   13.1081    2.1972 H         1 RES1    0.0000
     36 H3         7.0669   12.8442    0.5508 H         1 RES1    0.0000
     37 H4         8.9365   11.5604    0.9544 H         1 RES1    0.0000
     38 H5         9.2537   10.5913    3.0179 H         1 RES1    0.0000
     39 H6         8.4127   10.2143    7.4320 H         1 RES1    0.0000
     40 H7         7.3506   10.8779    9.3668 H         1 RES1    0.0000
     41 H8         5.5037   12.2522    9.2591 H         1 RES1    0.0000
     42 H9         4.6106   12.7990    7.2154 H         1 RES1    0.0000
     43 H10        4.4244    8.0142    1.5015 H         1 RES1    0.0000
     44 H11        2.9870    8.9512   -0.0347 H         1 RES1    0.0000
     45 H12        2.0220   10.9910    0.4073 H         1 RES1    0.0000
     46 H13        2.4659   12.0807    2.3767 H         1 RES1    0.0000
     47 H14        2.2210   14.0640    6.4219 H         1 RES1    0.0000
     48 H15        1.7463   12.5652    6.4467 H         1 RES1    0.0000
     49 H16       -0.3412   13.1873    5.5988 H         1 RES1    0.0000
     50 H17       -0.0666   13.9697    6.9319 H         1 RES1    0.0000
     51 H18        0.2804   15.7513    3.4981 H         1 RES1    0.0000
     52 H19       -0.1319   14.2393    3.5712 H         1 RES1    0.0000
     53 H20        2.1099   14.4184    2.9374 H         1 RES1    0.0000
     54 H21        2.4291   15.2121    4.2569 H         1 RES1    0.0000
@<TRIPOS>BOND
     1    1    9 2
     2    2   17 1
     3    3    8 2
     4    4    8 2
     5    5   31 1
     6    6    7 1
     7    7   30 1
     8    8   25 1
     9    9    6 1
    10   10    9 1
    11   11    6 1
    12   12   10 1
    13   13   12 ar
    14   14   13 ar
    15   15   14 ar
    16   16   15 ar
    17   17   12 ar
    18   18    2 1
    19   19   18 ar
    20   20   19 ar
    21   21   20 ar
    22   22   21 ar
    23   23   10 1
    24   24   11 1
    25   25   24 ar
    26   26   25 ar
    27   27   26 ar
    28   28   27 ar
    29   29   24 ar
    30   30   31 1
    31   31   49 1
    32   32    5 1
    33   33    7 1
    34   34   11 1
    35   35   13 1
    36   36   14 1
    37   37   15 1
    38   38   16 1
    39   39   19 1
    40   40   20 1
    41   41   21 1
    42   42   22 1
    43   43   26 1
    44   44   27 1
    45   45   28 1
    46   46   29 1
    47   47   30 1
    48   48   30 1
    49   50   31 1
    50   51   32 1
    51   52   32 1
    52   53   33 1
    53   54   33 1
    54   10   11 1
    55   16   17 ar
    56   18   23 ar
    57   22   23 ar
    58   28   29 ar
    59   32   33 1
@<TRIPOS>SUBSTRUCTURE
     1 RES1 1

@<TRIPOS>CRYSIN
   9.4272   18.8525   12.4345  90.0000  95.4430  90.0000  14 1

