# MOL2 file generated by ConQuest
# Please check atom types

@<TRIPOS>MOLECULE
XOFGUU
    43    46     1
SMALL
NO_CHARGES
****
Generated from CSD

@<TRIPOS>ATOM
      1 O1         3.6009    0.6987    7.3729 O.2       1 RES1    0.0000
      2 O2         8.8788    2.1808   11.5352 O.2       1 RES1    0.0000
      3 O3         7.3843    2.6424   13.0277 O.2       1 RES1    0.0000
      4 O4         1.1932    0.4978    8.7567 O.3       1 RES1    0.0000
      5 N1         2.6671    2.7452    7.8066 N.am      1 RES1    0.0000
      6 N2         7.7205    2.3968   11.8831 N.pl3     1 RES1    0.0000
      7 C1         3.6181    1.7743    7.9547 C.2       1 RES1    0.0000
      8 C2         4.7003    2.0304    8.9688 C.ar      1 RES1    0.0000
      9 C3         4.4611    2.7195   10.1446 C.ar      1 RES1    0.0000
     10 H1         3.6044    3.1041   10.2955 H         1 RES1    0.0000
     11 C4         5.4486    2.8594   11.1083 C.ar      1 RES1    0.0000
     12 H2         5.2811    3.3202   11.9212 H         1 RES1    0.0000
     13 C5         6.6784    2.3055   10.8433 C.ar      1 RES1    0.0000
     14 C6         6.9582    1.6239    9.6756 C.ar      1 RES1    0.0000
     15 H3         7.8248    1.2660    9.5207 H         1 RES1    0.0000
     16 C7         5.9557    1.4688    8.7363 C.ar      1 RES1    0.0000
     17 H4         6.1215    0.9833    7.9371 H         1 RES1    0.0000
     18 C8         1.4070    2.4311    7.0739 C.3       1 RES1    0.0000
     19 C9         1.6688    2.5701    5.5949 C.3       1 RES1    0.0000
     20 H5         0.8347    2.3892    5.0934 H         1 RES1    0.0000
     21 H6         2.3468    1.9057    5.3149 H         1 RES1    0.0000
     22 C10        2.1672    3.9808    5.2687 C.3       1 RES1    0.0000
     23 H7         1.4384    4.6309    5.4332 H         1 RES1    0.0000
     24 H8         2.4076    4.0284    4.3104 H         1 RES1    0.0000
     25 C11        3.3989    4.3682    6.1237 C.3       1 RES1    0.0000
     26 H9         4.1835    3.8427    5.8274 H         1 RES1    0.0000
     27 H10        3.6038    5.3277    5.9878 H         1 RES1    0.0000
     28 C12        3.1534    4.1140    7.5863 C.3       1 RES1    0.0000
     29 H11        3.9943    4.2501    8.0907 H         1 RES1    0.0000
     30 H12        2.4846    4.7604    7.9262 H         1 RES1    0.0000
     31 C13        0.2907    3.3706    7.5605 C.3       1 RES1    0.0000
     32 H13        0.6492    4.2930    7.5918 H         1 RES1    0.0000
     33 H14       -0.4419    3.3592    6.8945 H         1 RES1    0.0000
     34 C14       -0.2835    3.0413    8.8967 C.3       1 RES1    0.0000
     35 H15       -0.9494    3.7285    9.1468 H         1 RES1    0.0000
     36 H16        0.4369    3.0498    9.5750 H         1 RES1    0.0000
     37 C15       -0.9480    1.6725    8.8804 C.3       1 RES1    0.0000
     38 H17       -1.1551    1.4012    9.8102 H         1 RES1    0.0000
     39 H18       -1.8032    1.7334    8.3856 H         1 RES1    0.0000
     40 C16       -0.1099    0.6597    8.2619 C.3       1 RES1    0.0000
     41 H19       -0.5823   -0.1961    8.0499 H         1 RES1    0.0000
     42 C17        0.9883    0.9595    7.3988 C.3       1 RES1    0.0000
     43 H20        1.1713    0.2884    6.6797 H         1 RES1    0.0000
@<TRIPOS>BOND
     1    1    7 2
     2    2    6 2
     3    3    6 2
     4    4   40 1
     5    5    7 1
     6    6   13 1
     7    7    8 1
     8    8    9 ar
     9    9   10 1
    10   11    9 ar
    11   12   11 1
    12   13   11 ar
    13   14   13 ar
    14   15   14 1
    15   16    8 ar
    16   17   16 1
    17   18    5 1
    18   19   18 1
    19   20   19 1
    20   21   19 1
    21   22   19 1
    22   23   22 1
    23   24   22 1
    24   25   22 1
    25   26   25 1
    26   27   25 1
    27   28    5 1
    28   29   28 1
    29   30   28 1
    30   31   18 1
    31   32   31 1
    32   33   31 1
    33   34   31 1
    34   35   34 1
    35   36   34 1
    36   37   34 1
    37   38   37 1
    38   39   37 1
    39   40   37 1
    40   41   40 1
    41   42    4 1
    42   43   42 1
    43   14   16 ar
    44   18   42 1
    45   25   28 1
    46   40   42 1
@<TRIPOS>SUBSTRUCTURE
     1 RES1 1

@<TRIPOS>CRYSIN
  11.8820    9.5188   13.7000  90.0000  97.1600  90.0000  14 1

