# MOL2 file generated by ConQuest
# Please check atom types

@<TRIPOS>MOLECULE
XOGHOR
    47    48     1
SMALL
NO_CHARGES
****
Generated from CSD

@<TRIPOS>ATOM
      1 N1         0.7650    6.6292    7.3348 N.pl3     1 RES1    0.0000
      2 C1        -0.6361    6.9304    7.7104 C.3       1 RES1    0.0000
      3 C2        -1.5966    6.4069    6.6701 C.3       1 RES1    0.0000
      4 H1        -1.4583    6.8761    5.8431 H         1 RES1    0.0000
      5 H2        -2.4982    6.5441    6.9691 H         1 RES1    0.0000
      6 H3        -1.4425    5.4688    6.5356 H         1 RES1    0.0000
      7 C3         4.0372    4.1939    8.0801 C.3       1 RES1    0.0000
      8 H4         3.6914    3.9869    8.9510 H         1 RES1    0.0000
      9 H5         4.9212    4.5567    8.1648 H         1 RES1    0.0000
     10 H6         4.0678    3.3943    7.5500 H         1 RES1    0.0000
     11 C4        -0.8228    8.4234    7.8977 C.3       1 RES1    0.0000
     12 H7        -0.2124    8.7406    8.5673 H         1 RES1    0.0000
     13 H8        -1.7242    8.6008    8.1757 H         1 RES1    0.0000
     14 H9        -0.6493    8.8745    7.0677 H         1 RES1    0.0000
     15 C5        -0.8528    6.2070    9.0267 C.3       1 RES1    0.0000
     16 H10       -0.2361    6.5429    9.6823 H         1 RES1    0.0000
     17 H11       -0.7072    5.2665    8.9031 H         1 RES1    0.0000
     18 H12       -1.7516    6.3552    9.3286 H         1 RES1    0.0000
     19 H13        1.1533    5.9927    7.7522 H         1 RES1    0.0000
     20 O1         0.8194    7.8577    5.3863 O.3       1 RES1    0.0000
     21 O2         3.1778    5.1639    7.4388 O.3       1 RES1    0.0000
     22 O3         4.5226    5.1647    5.6477 O.2       1 RES1    0.0000
     23 C6         1.3923    6.9395    6.1964 C.2       1 RES1    0.0000
     24 C7         3.5363    5.5542    6.2048 C.2       1 RES1    0.0000
     25 O4         3.9041    6.4419    2.5026 O.2       1 RES1    0.0000
     26 O5         4.9273    7.7898    3.9439 O.3       1 RES1    0.0000
     27 C8         1.2240    9.0114    3.3185 C.ar      1 RES1    0.0000
     28 C9         3.8983    7.0794    3.5035 C.2       1 RES1    0.0000
     29 C10        2.5913    6.5076    5.6606 C.2       1 RES1    0.0000
     30 O6        -1.0245   12.6293    0.8409 O.2       1 RES1    0.0000
     31 C11        1.6599    8.0196    4.2793 C.2       1 RES1    0.0000
     32 C12       -0.2291   10.8557    2.7442 C.ar      1 RES1    0.0000
     33 H14       -0.9254   11.4327    2.9614 H         1 RES1    0.0000
     34 N2        -0.0136   11.9944    0.5917 N.pl3     1 RES1    0.0000
     35 C13        0.4070   10.9512    1.5273 C.ar      1 RES1    0.0000
     36 C14        0.1846    9.8898    3.6320 C.ar      1 RES1    0.0000
     37 H15       -0.2366    9.8200    4.4580 H         1 RES1    0.0000
     38 C15        1.4290   10.0994    1.1798 C.ar      1 RES1    0.0000
     39 H16        1.8478   10.1825    0.3537 H         1 RES1    0.0000
     40 C16        2.7348    7.2126    4.4237 C.2       1 RES1    0.0000
     41 C17        1.8239    9.1277    2.0626 C.ar      1 RES1    0.0000
     42 H17        2.5018    8.5374    1.8215 H         1 RES1    0.0000
     43 O7         0.6540   12.1794   -0.4012 O.2       1 RES1    0.0000
     44 C18        6.1392    7.6798    3.1597 C.3       1 RES1    0.0000
     45 H18        6.8253    8.2259    3.5523 H         1 RES1    0.0000
     46 H19        5.9686    7.9768    2.2629 H         1 RES1    0.0000
     47 H20        6.4288    6.7645    3.1437 H         1 RES1    0.0000
@<TRIPOS>BOND
     1    1    2 1
     2    2    3 1
     3    3    4 1
     4    5    3 1
     5    6    3 1
     6    7    8 1
     7    9    7 1
     8   10    7 1
     9   11    2 1
    10   12   11 1
    11   13   11 1
    12   14   11 1
    13   15    2 1
    14   16   15 1
    15   17   15 1
    16   18   15 1
    17   19    1 1
    18   20   23 1
    19   21    7 1
    20   22   24 2
    21   23    1 1
    22   24   21 1
    23   25   28 2
    24   26   28 1
    25   27   31 1
    26   28   40 1
    27   29   23 2
    28   30   34 2
    29   31   20 1
    30   32   33 1
    31   34   35 1
    32   35   32 ar
    33   36   27 ar
    34   37   36 1
    35   38   35 ar
    36   39   38 1
    37   40   29 1
    38   41   27 ar
    39   42   41 1
    40   43   34 2
    41   44   26 1
    42   45   44 1
    43   46   44 1
    44   47   44 1
    45   24   29 1
    46   31   40 2
    47   32   36 ar
    48   38   41 ar
@<TRIPOS>SUBSTRUCTURE
     1 RES1 1

@<TRIPOS>CRYSIN
   9.2280   10.1177   10.9028  91.0300 113.8530  92.3790   2 1

