# MOL2 file generated by ConQuest
# Please check atom types

@<TRIPOS>MOLECULE
XOGZUO
    50    52     1
SMALL
NO_CHARGES
****
Generated from CSD

@<TRIPOS>ATOM
      1 C1         2.0995   12.3556    0.0594 C.3       1 RES1    0.0000
      2 N1         3.0649   12.6634    1.1291 N.am      1 RES1    0.0000
      3 C2         3.5806   13.9188    1.0721 C.2       1 RES1    0.0000
      4 C3         2.9694   14.6293   -0.0902 C.3       1 RES1    0.0000
      5 H1         3.6481   14.8443   -0.7480 H         1 RES1    0.0000
      6 H2         2.5500   15.4539    0.2030 H         1 RES1    0.0000
      7 C4         1.9423   13.7058   -0.6851 C.3       1 RES1    0.0000
      8 H3         2.0980   13.5916   -1.6349 H         1 RES1    0.0000
      9 H4         1.0497   14.0628   -0.5568 H         1 RES1    0.0000
     10 C5         2.6038   11.1853   -0.8548 C.3       1 RES1    0.0000
     11 H5         2.6796   10.3905   -0.2873 H         1 RES1    0.0000
     12 C6         3.9854   11.4387   -1.4556 C.ar      1 RES1    0.0000
     13 C7         5.1101   10.9819   -0.7872 C.ar      1 RES1    0.0000
     14 H6         5.0113   10.6018    0.0570 H         1 RES1    0.0000
     15 C8         6.3692   11.0724   -1.3333 C.ar      1 RES1    0.0000
     16 H7         7.1094   10.7663   -0.8608 H         1 RES1    0.0000
     17 C9         6.5255   11.6227   -2.5942 C.ar      1 RES1    0.0000
     18 H8         7.3690   11.6694   -2.9836 H         1 RES1    0.0000
     19 C10        5.4242   12.1012   -3.2698 C.ar      1 RES1    0.0000
     20 H9         5.5266   12.4847   -4.1104 H         1 RES1    0.0000
     21 C11        4.1581   12.0118   -2.6987 C.ar      1 RES1    0.0000
     22 H10        3.4210   12.3407   -3.1605 H         1 RES1    0.0000
     23 C12        1.5487   10.8787   -1.9139 C.3       1 RES1    0.0000
     24 H11        0.7167   10.6429   -1.4746 H         1 RES1    0.0000
     25 H12        1.3889   11.6750   -2.4434 H         1 RES1    0.0000
     26 N2         1.9599    9.7589   -2.8222 N.pl3     1 RES1    0.0000
     27 O1         2.7132    8.9102   -2.4042 O.2       1 RES1    0.0000
     28 O2         1.4629    9.7637   -3.9275 O.2       1 RES1    0.0000
     29 C13        0.8091   11.8601    0.7729 C.2       1 RES1    0.0000
     30 O3         0.0723   12.8816    1.2003 O.3       1 RES1    0.0000
     31 C14       -1.0999   12.5213    1.9899 C.3       1 RES1    0.0000
     32 H13       -1.5665   13.3186    2.2535 H         1 RES1    0.0000
     33 H14       -0.8231   12.0396    2.7735 H         1 RES1    0.0000
     34 H15       -1.6829   11.9686    1.4639 H         1 RES1    0.0000
     35 O4         0.5278   10.7104    0.9361 O.2       1 RES1    0.0000
     36 C15        3.4446   11.7478    2.1929 C.3       1 RES1    0.0000
     37 H16        4.3404   11.9742    2.4885 H         1 RES1    0.0000
     38 H17        3.4764   10.8486    1.8284 H         1 RES1    0.0000
     39 C16        2.5263   11.7461    3.3992 C.ar      1 RES1    0.0000
     40 C17        2.2512   10.5662    4.0558 C.ar      1 RES1    0.0000
     41 H18        2.6316    9.7734    3.7566 H         1 RES1    0.0000
     42 C18        1.4064   10.5532    5.1647 C.ar      1 RES1    0.0000
     43 H19        1.2277    9.7547    5.6052 H         1 RES1    0.0000
     44 C19        0.8455   11.7124    5.6004 C.ar      1 RES1    0.0000
     45 H20        0.2624   11.6975    6.3247 H         1 RES1    0.0000
     46 C20        1.1262   12.8923    4.9890 C.ar      1 RES1    0.0000
     47 H21        0.7616   13.6869    5.3048 H         1 RES1    0.0000
     48 C21        1.9662   12.8923    3.8860 C.ar      1 RES1    0.0000
     49 H22        2.1535   13.7000    3.4633 H         1 RES1    0.0000
     50 O5         4.4026   14.3687    1.8676 O.2       1 RES1    0.0000
@<TRIPOS>BOND
     1    1    2 1
     2    2    3 1
     3    3    4 1
     4    4    5 1
     5    6    4 1
     6    7    1 1
     7    8    7 1
     8    9    7 1
     9   10    1 1
    10   11   10 1
    11   12   10 1
    12   13   12 ar
    13   14   13 1
    14   15   13 ar
    15   16   15 1
    16   17   15 ar
    17   18   17 1
    18   19   17 ar
    19   20   19 1
    20   21   12 ar
    21   22   21 1
    22   23   10 1
    23   24   23 1
    24   25   23 1
    25   26   23 1
    26   27   26 2
    27   28   26 2
    28   29    1 1
    29   30   29 1
    30   31   30 1
    31   32   31 1
    32   33   31 1
    33   34   31 1
    34   35   29 2
    35   36    2 1
    36   37   36 1
    37   38   36 1
    38   39   36 1
    39   40   39 ar
    40   41   40 1
    41   42   40 ar
    42   43   42 1
    43   44   42 ar
    44   45   44 1
    45   46   44 ar
    46   47   46 1
    47   48   39 ar
    48   49   48 1
    49   50    3 2
    50    4    7 1
    51   19   21 ar
    52   46   48 ar
@<TRIPOS>SUBSTRUCTURE
     1 RES1 1

@<TRIPOS>CRYSIN
   8.7480   18.6980   12.1250  90.0000 101.7060  90.0000 231 1

