# MOL2 file generated by ConQuest
# Please check atom types

@<TRIPOS>MOLECULE
XOHCEE
    23    23     1
SMALL
NO_CHARGES
****
Generated from CSD

@<TRIPOS>ATOM
      1 C1         4.5488    5.9677    0.7954 C.3       1 RES1    0.0000
      2 H1         3.9865    5.3006    0.3276 H         1 RES1    0.0000
      3 H2         4.6670    6.7534    0.2051 H         1 RES1    0.0000
      4 C2         3.9100    6.3776    2.1088 C.3       1 RES1    0.0000
      5 H3         2.9237    6.3066    2.0689 H         1 RES1    0.0000
      6 H4         4.1623    7.3009    2.3615 H         1 RES1    0.0000
      7 C3         4.5041    5.3557    3.0687 C.3       1 RES1    0.0000
      8 H5         3.9530    4.5221    3.0247 H         1 RES1    0.0000
      9 C4         5.8586    5.0691    2.4501 C.2       1 RES1    0.0000
     10 C5         4.5846    5.8036    4.5181 C.3       1 RES1    0.0000
     11 H6         5.1469    6.6285    4.5736 H         1 RES1    0.0000
     12 C6         3.2101    6.0981    5.1074 C.3       1 RES1    0.0000
     13 H7         2.7849    6.8137    4.5704 H         1 RES1    0.0000
     14 H8         2.6502    5.2871    5.0204 H         1 RES1    0.0000
     15 C7         3.2172    6.5269    6.5647 C.3       1 RES1    0.0000
     16 H9         3.5636    5.7960    7.1180 H         1 RES1    0.0000
     17 H10        2.3038    6.7444    6.8460 H         1 RES1    0.0000
     18 H11        3.7877    7.3162    6.6711 H         1 RES1    0.0000
     19 N1         5.2222    4.7163    5.3494 N.pl3     1 RES1    0.0000
     20 O1         5.8392    5.3927    1.1488 O.3       1 RES1    0.0000
     21 O2         6.8337    4.6120    2.9790 O.2       1 RES1    0.0000
     22 O3         4.8393    3.5608    5.1930 O.2       1 RES1    0.0000
     23 O4         6.0521    5.0415    6.1840 O.2       1 RES1    0.0000
@<TRIPOS>BOND
     1    1    2 1
     2    3    1 1
     3    4    1 1
     4    5    4 1
     5    6    4 1
     6    7    4 1
     7    8    7 1
     8    9    7 1
     9   10    7 1
    10   11   10 1
    11   12   10 1
    12   13   12 1
    13   14   12 1
    14   15   12 1
    15   16   15 1
    16   17   15 1
    17   18   15 1
    18   19   10 1
    19   20    1 1
    20   21    9 2
    21   22   19 2
    22   23   19 2
    23    9   20 1
@<TRIPOS>SUBSTRUCTURE
     1 RES1 1

@<TRIPOS>CRYSIN
   5.8815    8.9902   15.9025  90.0000  90.0000  90.0000  19 1

