# MOL2 file generated by ConQuest
# Please check atom types

@<TRIPOS>MOLECULE
XOHMUC
    38    38     1
SMALL
NO_CHARGES
****
Generated from CSD

@<TRIPOS>ATOM
      1 O1         4.8036    2.0349    8.8075 O.2       1 RES1    0.0000
      2 O2         7.4958    0.8209    6.1555 O.3       1 RES1    0.0000
      3 N1         6.5535    1.2342    7.0646 N.2       1 RES1    0.0000
      4 C1         5.7876    2.7412    8.6558 C.2       1 RES1    0.0000
      5 C2         6.0345    3.9771    9.4172 C.2       1 RES1    0.0000
      6 C3         7.1873    4.6330    9.1647 C.2       1 RES1    0.0000
      7 C4         8.2261    4.2280    8.2221 C.2       1 RES1    0.0000
      8 C5         8.0372    3.1243    7.4862 C.2       1 RES1    0.0000
      9 C6         6.8375    2.3472    7.6567 C.2       1 RES1    0.0000
     10 C7         9.4957    5.0733    8.1630 C.3       1 RES1    0.0000
     11 C8        10.1366    5.1028    9.5582 C.3       1 RES1    0.0000
     12 C9         9.1426    6.4953    7.7225 C.3       1 RES1    0.0000
     13 C10       10.5164    4.4966    7.1948 C.3       1 RES1    0.0000
     14 C11        5.0063    4.4360   10.4484 C.3       1 RES1    0.0000
     15 C12        5.4271    5.7485   11.1064 C.3       1 RES1    0.0000
     16 C13        3.6486    4.6591    9.7703 C.3       1 RES1    0.0000
     17 C14        4.8542    3.3802   11.5469 C.3       1 RES1    0.0000
     18 H1         7.3356    5.4202    9.6387 H         1 RES1    0.0000
     19 H2         8.6785    2.8625    6.8658 H         1 RES1    0.0000
     20 H3        10.9375    5.6323    9.5300 H         1 RES1    0.0000
     21 H4        10.3538    4.2087    9.8294 H         1 RES1    0.0000
     22 H5         9.5200    5.4867   10.1853 H         1 RES1    0.0000
     23 H6         9.9328    7.0391    7.7319 H         1 RES1    0.0000
     24 H7         8.4929    6.8649    8.3255 H         1 RES1    0.0000
     25 H8         8.7787    6.4734    6.8349 H         1 RES1    0.0000
     26 H9        11.3090    5.0379    7.2055 H         1 RES1    0.0000
     27 H10       10.1475    4.4873    6.3085 H         1 RES1    0.0000
     28 H11       10.7375    3.6000    7.4580 H         1 RES1    0.0000
     29 H12        4.7497    6.0280   11.7268 H         1 RES1    0.0000
     30 H13        5.5419    6.4220   10.4323 H         1 RES1    0.0000
     31 H14        6.2552    5.6205   11.5751 H         1 RES1    0.0000
     32 H15        3.0116    4.9630   10.4216 H         1 RES1    0.0000
     33 H16        3.3429    3.8349    9.3849 H         1 RES1    0.0000
     34 H17        3.7400    5.3200    9.0801 H         1 RES1    0.0000
     35 H18        4.1755    3.6589   12.1672 H         1 RES1    0.0000
     36 H19        5.6886    3.2767   12.0101 H         1 RES1    0.0000
     37 H20        4.6010    2.5417   11.1521 H         1 RES1    0.0000
     38 H21        7.1861    0.0118    5.9017 H         1 RES1    0.0000
@<TRIPOS>BOND
     1    1    4 2
     2    2    3 1
     3    3    9 2
     4    4    5 1
     5    5    6 2
     6    6    7 1
     7    7    8 2
     8    8    9 1
     9    9    4 1
    10   10    7 1
    11   11   10 1
    12   12   10 1
    13   13   10 1
    14   14    5 1
    15   15   14 1
    16   16   14 1
    17   17   14 1
    18   18    6 1
    19   19    8 1
    20   20   11 1
    21   21   11 1
    22   22   11 1
    23   23   12 1
    24   24   12 1
    25   25   12 1
    26   26   13 1
    27   27   13 1
    28   28   13 1
    29   29   15 1
    30   30   15 1
    31   31   15 1
    32   32   16 1
    33   33   16 1
    34   34   16 1
    35   35   17 1
    36   36   17 1
    37   37   17 1
    38   38    2 1
@<TRIPOS>SUBSTRUCTURE
     1 RES1 1

@<TRIPOS>CRYSIN
  12.4470    8.4190   13.4310  90.0000  91.1800  90.0000 231 1

