# MOL2 file generated by ConQuest
# Please check atom types

@<TRIPOS>MOLECULE
XOKKOY
    32    33     1
SMALL
NO_CHARGES
****
Generated from CSD

@<TRIPOS>ATOM
      1 C1        -1.6700    7.5214    2.6550 C.ar      1 RES1    0.0000
      2 C2        -1.2188    7.2543    3.9185 C.ar      1 RES1    0.0000
      3 H1        -1.2015    7.9135    4.5738 H         1 RES1    0.0000
      4 C3        -0.7915    5.9710    4.1836 C.ar      1 RES1    0.0000
      5 H2        -0.4923    5.7503    5.0366 H         1 RES1    0.0000
      6 C4        -0.8041    5.0181    3.1997 C.ar      1 RES1    0.0000
      7 H3        -0.5000    4.1609    3.3922 H         1 RES1    0.0000
      8 C5        -1.2587    5.3041    1.9260 C.ar      1 RES1    0.0000
      9 C6        -1.6989    6.5853    1.6485 C.ar      1 RES1    0.0000
     10 H4        -2.0072    6.8081    0.7997 H         1 RES1    0.0000
     11 C7        -1.7637    4.3016   -0.1597 C.2       1 RES1    0.0000
     12 H5        -2.1840    5.0898   -0.4188 H         1 RES1    0.0000
     13 C8        -1.7384    3.1971   -1.0710 C.ar      1 RES1    0.0000
     14 C9        -1.1435    1.9780   -0.7034 C.ar      1 RES1    0.0000
     15 C10       -1.1588    0.8850   -1.5604 C.ar      1 RES1    0.0000
     16 H6        -0.7693    0.0805   -1.3044 H         1 RES1    0.0000
     17 C11       -1.7554    1.0088   -2.7850 C.ar      1 RES1    0.0000
     18 C12       -2.3340    2.2178   -3.1935 C.ar      1 RES1    0.0000
     19 H7        -2.7154    2.2966   -4.0383 H         1 RES1    0.0000
     20 C13       -2.3297    3.2740   -2.3345 C.ar      1 RES1    0.0000
     21 H8        -2.7321    4.0708   -2.5956 H         1 RES1    0.0000
     22 C14       -1.2439   -1.2519   -3.3696 C.3       1 RES1    0.0000
     23 H9        -1.6529   -1.6018   -2.5751 H         1 RES1    0.0000
     24 H10       -0.3039   -1.1294   -3.2181 H         1 RES1    0.0000
     25 H11       -1.3734   -1.8675   -4.0946 H         1 RES1    0.0000
     26 N1        -1.2252    4.2394    1.0043 N.2       1 RES1    0.0000
     27 N2        -2.1863    8.8751    2.3662 N.pl3     1 RES1    0.0000
     28 O1        -1.9829    9.7605    3.1895 O.2       1 RES1    0.0000
     29 O2        -2.8078    9.0459    1.3295 O.2       1 RES1    0.0000
     30 O3        -0.5409    1.8283    0.4892 O.3       1 RES1    0.0000
     31 H12       -0.6585    2.6913    0.9113 H         1 RES1    0.0000
     32 O4        -1.8398    0.0019   -3.6983 O.3       1 RES1    0.0000
@<TRIPOS>BOND
     1    1    2 ar
     2    2    3 1
     3    4    2 ar
     4    5    4 1
     5    6    4 ar
     6    7    6 1
     7    8    6 ar
     8    9    1 ar
     9   10    9 1
    10   11   12 1
    11   13   11 1
    12   14   13 ar
    13   15   14 ar
    14   16   15 1
    15   17   15 ar
    16   18   17 ar
    17   19   18 1
    18   20   13 ar
    19   21   20 1
    20   22   23 1
    21   24   22 1
    22   25   22 1
    23   26    8 1
    24   27    1 1
    25   28   27 2
    26   29   27 2
    27   30   14 1
    28   31   30 1
    29   32   17 1
    30    8    9 ar
    31   11   26 2
    32   18   20 ar
    33   22   32 1
@<TRIPOS>SUBSTRUCTURE
     1 RES1 1

@<TRIPOS>CRYSIN
   7.6060    8.0480   10.4720  83.0200  79.6200  85.4100   2 1

