# MOL2 file generated by ConQuest
# Please check atom types

@<TRIPOS>MOLECULE
XOLRUN
    40    44     1
SMALL
NO_CHARGES
****
Generated from CSD

@<TRIPOS>ATOM
      1 O1         8.0748    9.3536    2.6500 O.2       1 RES1    0.0000
      2 O2         9.1965    8.5751    4.3193 O.2       1 RES1    0.0000
      3 C1         1.6248    5.5969    3.8890 C.2       1 RES1    0.0000
      4 N1         2.5596    5.7204    4.8824 N.pl3     1 RES1    0.0000
      5 C2         4.9869    6.0863    4.5932 C.ar      1 RES1    0.0000
      6 C3         0.8173    7.0214    5.2841 C.ar      1 RES1    0.0000
      7 C4         1.2550    3.5959    0.7360 C.ar      1 RES1    0.0000
      8 H1         0.6535    3.4782    0.0363 H         1 RES1    0.0000
      9 C5         1.0093    4.5298    1.7183 C.ar      1 RES1    0.0000
     10 H2         0.2464    5.0600    1.6648 H         1 RES1    0.0000
     11 C6         1.8829    4.6938    2.7885 C.ar      1 RES1    0.0000
     12 C7         3.8734    5.0912    4.9089 C.3       1 RES1    0.0000
     13 H3         4.0248    4.7409    5.8115 H         1 RES1    0.0000
     14 C8         4.8985    6.9305    3.5087 C.ar      1 RES1    0.0000
     15 H4         4.1299    6.9326    2.9860 H         1 RES1    0.0000
     16 C9         5.9455    7.7728    3.1937 C.ar      1 RES1    0.0000
     17 H5         5.8850    8.3522    2.4684 H         1 RES1    0.0000
     18 C10        7.0750    7.7399    3.9683 C.ar      1 RES1    0.0000
     19 N2         8.1967    8.6261    3.6217 N.pl3     1 RES1    0.0000
     20 C11        6.1314    6.0899    5.3823 C.ar      1 RES1    0.0000
     21 H6         6.1858    5.5323    6.1248 H         1 RES1    0.0000
     22 C12        7.1909    6.9232    5.0634 C.ar      1 RES1    0.0000
     23 H7         7.9638    6.9281    5.5815 H         1 RES1    0.0000
     24 C13        2.0777    6.6511    5.7897 C.ar      1 RES1    0.0000
     25 C14        0.0563    7.9757    5.9621 C.ar      1 RES1    0.0000
     26 H8        -0.7827    8.2300    5.6511 H         1 RES1    0.0000
     27 C15        0.5883    8.5290    7.1076 C.ar      1 RES1    0.0000
     28 H9         0.0990    9.1709    7.5701 H         1 RES1    0.0000
     29 C16        1.8386    8.1534    7.5905 C.ar      1 RES1    0.0000
     30 H10        2.1646    8.5518    8.3646 H         1 RES1    0.0000
     31 C17        2.6087    7.2007    6.9461 C.ar      1 RES1    0.0000
     32 H11        3.4402    6.9427    7.2719 H         1 RES1    0.0000
     33 N3         0.5532    6.3411    4.1021 N.2       1 RES1    0.0000
     34 C18        3.0510    3.9081    2.8664 C.ar      1 RES1    0.0000
     35 N4         3.8577    3.9689    3.9857 N.pl3     1 RES1    0.0000
     36 H12        4.3811    3.3049    4.1452 H         1 RES1    0.0000
     37 C19        3.3051    2.9820    1.8400 C.ar      1 RES1    0.0000
     38 H13        4.0791    2.4680    1.8615 H         1 RES1    0.0000
     39 C20        2.4111    2.8336    0.8032 C.ar      1 RES1    0.0000
     40 H14        2.5862    2.2109    0.1347 H         1 RES1    0.0000
@<TRIPOS>BOND
     1    1   19 2
     2    2   19 2
     3    3    4 1
     4    4   12 1
     5    5   12 1
     6    6   24 ar
     7    7    8 1
     8    9    7 ar
     9   10    9 1
    10   11    3 1
    11   12   13 1
    12   14    5 ar
    13   15   14 1
    14   16   14 ar
    15   17   16 1
    16   18   16 ar
    17   19   18 1
    18   20    5 ar
    19   21   20 1
    20   22   18 ar
    21   23   22 1
    22   24    4 1
    23   25    6 ar
    24   26   25 1
    25   27   25 ar
    26   28   27 1
    27   29   27 ar
    28   30   29 1
    29   31   24 ar
    30   32   31 1
    31   33    3 2
    32   34   11 ar
    33   35   12 1
    34   36   35 1
    35   37   34 ar
    36   38   37 1
    37   39    7 ar
    38   40   39 1
    39    6   33 1
    40    9   11 ar
    41   20   22 ar
    42   29   31 ar
    43   34   35 1
    44   37   39 ar
@<TRIPOS>SUBSTRUCTURE
     1 RES1 1

@<TRIPOS>CRYSIN
  12.0792    9.1171   15.1341  90.0000  90.0000  90.0000  29 1

