# MOL2 file generated by ConQuest
# Please check atom types

@<TRIPOS>MOLECULE
XOPCOV
    55    59     1
SMALL
NO_CHARGES
****
Generated from CSD

@<TRIPOS>ATOM
      1 O1         2.5843    1.1432    6.8680 O.3       1 RES1    0.0000
      2 O2        -1.5723    1.1447    3.4922 O.2       1 RES1    0.0000
      3 O3        -0.3119    3.7393    8.6528 O.3       1 RES1    0.0000
      4 O4        -0.4352    2.7469    1.4207 O.3       1 RES1    0.0000
      5 O5         1.5182    7.0917    1.5012 O.3       1 RES1    0.0000
      6 O6        -0.8604    4.3603   -0.3929 O.2       1 RES1    0.0000
      7 N1         1.5208    1.8948    7.4711 N.2       1 RES1    0.0000
      8 C1         2.4004    1.1163    5.5229 C.2       1 RES1    0.0000
      9 C2         3.2107    0.3136    4.5690 C.3       1 RES1    0.0000
     10 H1         3.0588   -0.6531    4.7217 H         1 RES1    0.0000
     11 H2         4.1740    0.5039    4.6956 H         1 RES1    0.0000
     12 C3         2.7755    0.7005    3.1391 C.3       1 RES1    0.0000
     13 H3         3.1528    1.6045    2.9406 H         1 RES1    0.0000
     14 C4         1.2517    0.7905    2.9990 C.3       1 RES1    0.0000
     15 H4         0.8443   -0.0660    3.2809 H         1 RES1    0.0000
     16 H5         1.0173    0.9442    2.0494 H         1 RES1    0.0000
     17 C5         0.6781    1.9485    3.8685 C.3       1 RES1    0.0000
     18 C6        -0.8342    1.8239    4.1539 C.2       1 RES1    0.0000
     19 C7        -1.3502    2.6281    5.3407 C.ar      1 RES1    0.0000
     20 C8        -2.6662    3.0695    5.3092 C.ar      1 RES1    0.0000
     21 H6        -3.2048    2.9085    4.5438 H         1 RES1    0.0000
     22 C9        -3.1928    3.7461    6.3993 C.ar      1 RES1    0.0000
     23 H7        -4.0921    4.0520    6.3681 H         1 RES1    0.0000
     24 C10       -2.4281    3.9857    7.5370 C.ar      1 RES1    0.0000
     25 H8        -2.8046    4.4469    8.2774 H         1 RES1    0.0000
     26 C11       -1.1214    3.5503    7.5830 C.ar      1 RES1    0.0000
     27 C12       -0.5657    2.8572    6.4840 C.ar      1 RES1    0.0000
     28 C13        0.7653    2.2538    6.4581 C.2       1 RES1    0.0000
     29 C14        1.2986    1.8174    5.2113 C.2       1 RES1    0.0000
     30 C15        3.3404   -0.2798    2.1017 C.3       1 RES1    0.0000
     31 H9         4.2171    0.0347    1.7981 H         1 RES1    0.0000
     32 H10        2.7296   -0.3333    1.3362 H         1 RES1    0.0000
     33 H11        3.4331   -1.1670    2.5074 H         1 RES1    0.0000
     34 C16       -0.8769    4.4091    9.7946 C.3       1 RES1    0.0000
     35 H12       -0.7378    5.3749    9.7078 H         1 RES1    0.0000
     36 H13       -0.4404    4.0876   10.6108 H         1 RES1    0.0000
     37 H14       -1.8373    4.2202    9.8413 H         1 RES1    0.0000
     38 C17        0.9169    3.3339    3.2465 C.ar      1 RES1    0.0000
     39 C18        0.3157    3.6740    2.0145 C.ar      1 RES1    0.0000
     40 C19        0.4972    4.9629    1.4275 C.ar      1 RES1    0.0000
     41 C20        1.3439    5.8893    2.0944 C.ar      1 RES1    0.0000
     42 C21        1.9578    5.5462    3.2942 C.ar      1 RES1    0.0000
     43 H15        2.5303    6.1627    3.7350 H         1 RES1    0.0000
     44 C22        1.7237    4.2901    3.8390 C.ar      1 RES1    0.0000
     45 H16        2.1409    4.0751    4.6655 H         1 RES1    0.0000
     46 C23        2.3603    8.0565    2.1478 C.3       1 RES1    0.0000
     47 H17        1.8213    8.6036    2.7561 H         1 RES1    0.0000
     48 H18        2.7764    8.6317    1.4723 H         1 RES1    0.0000
     49 H19        3.0581    7.5921    2.6566 H         1 RES1    0.0000
     50 C24       -0.2324    5.2652    0.1798 C.2       1 RES1    0.0000
     51 C25       -0.3014    6.6299   -0.4277 C.3       1 RES1    0.0000
     52 H20        0.4297    6.7375   -1.0718 H         1 RES1    0.0000
     53 H21       -0.2187    7.3053    0.2774 H         1 RES1    0.0000
     54 H22       -1.1600    6.7402   -0.8873 H         1 RES1    0.0000
     55 H23       -0.8579    3.2482    0.6413 H         1 RES1    0.0000
@<TRIPOS>BOND
     1    1    7 1
     2    2   18 2
     3    3   26 1
     4    4   39 1
     5    5   41 1
     6    6   50 2
     7    7   28 2
     8    8    1 1
     9    9    8 1
    10   10    9 1
    11   11    9 1
    12   12    9 1
    13   13   12 1
    14   14   12 1
    15   15   14 1
    16   16   14 1
    17   17   14 1
    18   18   17 1
    19   19   18 1
    20   20   19 ar
    21   21   20 1
    22   22   20 ar
    23   23   22 1
    24   24   22 ar
    25   25   24 1
    26   26   24 ar
    27   27   19 ar
    28   28   27 1
    29   29    8 2
    30   30   12 1
    31   31   30 1
    32   32   30 1
    33   33   30 1
    34   34    3 1
    35   35   34 1
    36   36   34 1
    37   37   34 1
    38   38   17 1
    39   39   38 ar
    40   40   39 ar
    41   41   40 ar
    42   42   41 ar
    43   43   42 1
    44   44   38 ar
    45   45   44 1
    46   46    5 1
    47   47   46 1
    48   48   46 1
    49   49   46 1
    50   50   40 1
    51   51   50 1
    52   52   51 1
    53   53   51 1
    54   54   51 1
    55   55    4 1
    56   17   29 1
    57   26   27 ar
    58   28   29 1
    59   42   44 ar
@<TRIPOS>SUBSTRUCTURE
     1 RES1 1

@<TRIPOS>CRYSIN
   7.9229   10.5420   13.1560  86.5050  84.3950  70.9420   2 1

