# MOL2 file generated by ConQuest
# Please check atom types

@<TRIPOS>MOLECULE
XOQMEX
    60    62     1
SMALL
NO_CHARGES
****
Generated from CSD

@<TRIPOS>ATOM
      1 O1         8.7512    5.9446    7.9552 O.2       1 RES1    0.0000
      2 N1         8.8244    4.9508    8.7754 N.3       1 RES1    0.0000
      3 C1         5.5301    5.4905   10.3558 C.ar      1 RES1    0.0000
      4 C2         3.5069    5.6499   12.5563 C.ar      1 RES1    0.0000
      5 C3         6.7643    3.9773   11.7393 C.ar      1 RES1    0.0000
      6 C4         4.4303    4.6010   12.4334 C.ar      1 RES1    0.0000
      7 C5         4.2013    3.4447   13.1995 C.ar      1 RES1    0.0000
      8 C6         6.5961    5.5590    9.4743 C.ar      1 RES1    0.0000
      9 C7         7.7705    4.8265    9.7085 C.ar      1 RES1    0.0000
     10 C8         5.5826    4.6946   11.5127 C.ar      1 RES1    0.0000
     11 C9         7.8407    4.0271   10.8635 C.ar      1 RES1    0.0000
     12 C10       10.9387    4.1866    9.8410 C.3       1 RES1    0.0000
     13 C11        9.4893    2.5707    8.5193 C.3       1 RES1    0.0000
     14 C12        9.9954    4.0092    8.6452 C.3       1 RES1    0.0000
     15 C13       10.7404    4.3854    7.3665 C.3       1 RES1    0.0000
     16 H1         4.7429    5.9909   10.1752 H         1 RES1    0.0000
     17 H2         3.6367    6.4448   12.0517 H         1 RES1    0.0000
     18 H3         6.8278    3.4381   12.5185 H         1 RES1    0.0000
     19 H4         4.8131    2.7200   13.1396 H         1 RES1    0.0000
     20 H5         6.5332    6.1087    8.7016 H         1 RES1    0.0000
     21 H6         8.6244    3.5208   11.0423 H         1 RES1    0.0000
     22 H7        11.6773    3.5954    9.7549 H         1 RES1    0.0000
     23 H8        11.2514    5.0831    9.8680 H         1 RES1    0.0000
     24 H9        10.4684    3.9909   10.6433 H         1 RES1    0.0000
     25 H10       10.2288    1.9811    8.4343 H         1 RES1    0.0000
     26 H11        8.9921    2.3442    9.2961 H         1 RES1    0.0000
     27 H12        8.9325    2.4934    7.7534 H         1 RES1    0.0000
     28 H13       11.4868    3.8085    7.2560 H         1 RES1    0.0000
     29 H14       11.0408    5.2844    7.4289 H         1 RES1    0.0000
     30 H15       10.1583    4.2966    6.6216 H         1 RES1    0.0000
     31 O1B       -2.1453    3.0440   18.6432 O.2       1 RES1    0.0000
     32 N1B       -2.2185    4.0378   17.8229 N.3       1 RES1    0.0000
     33 C1B        1.0758    3.4981   16.2425 C.ar      1 RES1    0.0000
     34 C2B        3.0990    3.3387   14.0420 C.ar      1 RES1    0.0000
     35 C3B       -0.1583    5.0113   14.8590 C.ar      1 RES1    0.0000
     36 C4B        2.1757    4.3876   14.1649 C.ar      1 RES1    0.0000
     37 C5B        2.4046    5.5439   13.3988 C.ar      1 RES1    0.0000
     38 C6B        0.0099    3.4296   17.1240 C.ar      1 RES1    0.0000
     39 C7B       -1.1645    4.1621   16.8898 C.ar      1 RES1    0.0000
     40 C8B        1.0233    4.2940   15.0856 C.ar      1 RES1    0.0000
     41 C9B       -1.2348    4.9615   15.7348 C.ar      1 RES1    0.0000
     42 C10B      -4.3328    4.8020   16.7573 C.3       1 RES1    0.0000
     43 C11B      -2.8834    6.4179   18.0790 C.3       1 RES1    0.0000
     44 C12B      -3.3894    4.9794   17.9531 C.3       1 RES1    0.0000
     45 C13B      -4.1344    4.6032   19.2318 C.3       1 RES1    0.0000
     46 H1B        1.8630    2.9977   16.4231 H         1 RES1    0.0000
     47 H2B        2.9692    2.5438   14.5466 H         1 RES1    0.0000
     48 H3B       -0.2219    5.5505   14.0798 H         1 RES1    0.0000
     49 H4B        1.7929    6.2686   13.4587 H         1 RES1    0.0000
     50 H5B        0.0728    2.8799   17.8967 H         1 RES1    0.0000
     51 H6B       -2.0185    5.4678   15.5560 H         1 RES1    0.0000
     52 H7B       -5.0714    5.3932   16.8434 H         1 RES1    0.0000
     53 H8B       -4.6455    3.9055   16.7303 H         1 RES1    0.0000
     54 H9B       -3.8625    4.9977   15.9550 H         1 RES1    0.0000
     55 H10B      -3.6229    7.0075   18.1640 H         1 RES1    0.0000
     56 H11B      -2.3862    6.6444   17.3022 H         1 RES1    0.0000
     57 H12B      -2.3266    6.4952   18.8449 H         1 RES1    0.0000
     58 H13B      -4.8808    5.1801   19.3423 H         1 RES1    0.0000
     59 H14B      -4.4349    3.7042   19.1694 H         1 RES1    0.0000
     60 H15B      -3.5524    4.6920   19.9767 H         1 RES1    0.0000
@<TRIPOS>BOND
     1    1    2 1
     2    2    9 1
     3    3    8 ar
     4    4    6 ar
     5    5   10 ar
     6    6    7 ar
     7    7   19 1
     8    8    9 ar
     9    9   11 ar
    10   10    3 ar
    11   11    5 ar
    12   12   14 1
    13   13   14 1
    14   14    2 1
    15   15   14 1
    16   16    3 1
    17   17    4 1
    18   18    5 1
    19   20    8 1
    20   21   11 1
    21   22   12 1
    22   23   12 1
    23   24   12 1
    24   25   13 1
    25   26   13 1
    26   27   13 1
    27   28   15 1
    28   29   15 1
    29   30   15 1
    30   31   32 1
    31   32   39 1
    32   33   38 ar
    33   34    7 ar
    34   35   40 ar
    35   36   34 ar
    36   37    4 ar
    37   38   39 ar
    38   39   41 ar
    39   40   33 ar
    40   41   35 ar
    41   42   44 1
    42   43   44 1
    43   44   32 1
    44   45   44 1
    45   46   33 1
    46   47   34 1
    47   48   35 1
    48   49   37 1
    49   50   38 1
    50   51   41 1
    51   52   42 1
    52   53   42 1
    53   54   42 1
    54   55   43 1
    55   56   43 1
    56   57   43 1
    57   58   45 1
    58   59   45 1
    59   60   45 1
    60    6   10 1
    61   36   37 ar
    62   36   40 1
@<TRIPOS>SUBSTRUCTURE
     1 RES1 1

@<TRIPOS>CRYSIN
   8.8404    8.9886   13.3460  90.0000  94.8020  90.0000  14 2

