# MOL2 file generated by ConQuest
# Please check atom types

@<TRIPOS>MOLECULE
XOQVII
    52    56     1
SMALL
NO_CHARGES
****
Generated from CSD

@<TRIPOS>ATOM
      1 O1         1.7265    1.6285   14.9625 O.3       1 RES1    0.0000
      2 O2         1.7318    3.0415   16.7005 O.2       1 RES1    0.0000
      3 N1         2.5705    6.5996   12.0124 N.3       1 RES1    0.0000
      4 N2         0.4602    3.4387   14.8042 N.am      1 RES1    0.0000
      5 N3         0.9783    1.4751   13.7081 N.3       1 RES1    0.0000
      6 C1         3.6094    5.7159   11.4595 C.3       1 RES1    0.0000
      7 C2         4.1433    4.7467   12.5225 C.3       1 RES1    0.0000
      8 C3         3.0632    3.9504   13.2584 C.3       1 RES1    0.0000
      9 C4         2.1533    3.1231   12.3297 C.3       1 RES1    0.0000
     10 C5         1.9435    1.6072   12.5887 C.3       1 RES1    0.0000
     11 C6         1.1294    1.2032   11.3621 C.3       1 RES1    0.0000
     12 C7         0.1862    2.4287   11.1363 C.3       1 RES1    0.0000
     13 C8        -1.2971    2.0898   11.1226 C.3       1 RES1    0.0000
     14 C9         1.4446    6.8268   11.0934 C.3       1 RES1    0.0000
     15 C10        0.6464    5.5586   10.8345 C.3       1 RES1    0.0000
     16 C11        0.1537    4.8545   12.1195 C.3       1 RES1    0.0000
     17 C12        0.6191    3.3979   12.2713 C.3       1 RES1    0.0000
     18 C13        0.1089    2.7317   13.5913 C.3       1 RES1    0.0000
     19 C14       -1.3709    2.3734   13.5933 C.3       1 RES1    0.0000
     20 C15       -1.7538    1.4673   12.4232 C.3       1 RES1    0.0000
     21 C16       -3.2511    1.1372   12.4212 C.3       1 RES1    0.0000
     22 C17        3.1527    7.8659   12.4679 C.3       1 RES1    0.0000
     23 C18        1.3296    2.7803   15.6044 C.2       1 RES1    0.0000
     24 H1         3.1879    5.1663   10.6554 H         1 RES1    0.0000
     25 H2         4.2997    6.2393   11.0993 H         1 RES1    0.0000
     26 H3         4.6246    5.2109   13.1708 H         1 RES1    0.0000
     27 H4         4.8793    4.1854   12.0435 H         1 RES1    0.0000
     28 H5         3.4926    3.4008   13.8872 H         1 RES1    0.0000
     29 H6         2.5169    4.5312   13.7957 H         1 RES1    0.0000
     30 H7         2.5608    3.1833   11.3972 H         1 RES1    0.0000
     31 H8         2.7619    1.0177   12.8028 H         1 RES1    0.0000
     32 H9         0.6288    0.3768   11.5003 H         1 RES1    0.0000
     33 H10        1.7380    1.0478   10.5619 H         1 RES1    0.0000
     34 H11        0.3890    2.7900   10.2271 H         1 RES1    0.0000
     35 H12       -1.5254    1.5557   10.2874 H         1 RES1    0.0000
     36 H13       -1.7748    2.9211   10.9903 H         1 RES1    0.0000
     37 H14        1.7915    7.1434   10.1998 H         1 RES1    0.0000
     38 H15        0.8879    7.5901   11.5685 H         1 RES1    0.0000
     39 H16        1.1900    4.9604   10.2134 H         1 RES1    0.0000
     40 H17       -0.1133    5.7654   10.3069 H         1 RES1    0.0000
     41 H18        0.4813    5.3255   12.9235 H         1 RES1    0.0000
     42 H19       -0.8325    4.8691   12.1876 H         1 RES1    0.0000
     43 H20       -1.6343    1.9937   14.4168 H         1 RES1    0.0000
     44 H21       -1.8644    3.2522   13.4920 H         1 RES1    0.0000
     45 H22       -1.2918    0.5943   12.5380 H         1 RES1    0.0000
     46 H23       -3.5286    0.8070   13.3129 H         1 RES1    0.0000
     47 H24       -3.3670    0.5487   11.6230 H         1 RES1    0.0000
     48 H25       -3.8096    1.9237   12.2674 H         1 RES1    0.0000
     49 H26        3.9765    7.6999   13.1902 H         1 RES1    0.0000
     50 H27        3.5901    8.3689   11.6619 H         1 RES1    0.0000
     51 H28        2.5643    8.2204   12.7191 H         1 RES1    0.0000
     52 H29        0.0861    4.1952   15.0982 H         1 RES1    0.0000
@<TRIPOS>BOND
     1    1    5 1
     2    2   23 2
     3    3    6 1
     4    4   18 1
     5    5   10 1
     6    6    7 1
     7    7    8 1
     8    8    9 1
     9    9   10 1
    10   10   11 1
    11   11   12 1
    12   12   13 1
    13   13   20 1
    14   14    3 1
    15   15   14 1
    16   16   15 1
    17   17    9 1
    18   18    5 1
    19   19   18 1
    20   20   19 1
    21   21   20 1
    22   22    3 1
    23   23    1 1
    24   24    6 1
    25   25    6 1
    26   26    7 1
    27   27    7 1
    28   28    8 1
    29   29    8 1
    30   30    9 1
    31   31   10 1
    32   32   11 1
    33   33   11 1
    34   34   12 1
    35   35   13 1
    36   36   13 1
    37   37   14 1
    38   38   14 1
    39   39   15 1
    40   40   15 1
    41   41   16 1
    42   42   16 1
    43   43   19 1
    44   44   19 1
    45   45   20 1
    46   46   21 1
    47   47   21 1
    48   48   21 1
    49   49   22 1
    50   50   22 1
    51   51   22 1
    52   52    4 1
    53    4   23 1
    54   12   17 1
    55   16   17 1
    56   17   18 1
@<TRIPOS>SUBSTRUCTURE
     1 RES1 1

@<TRIPOS>CRYSIN
   8.7820    9.7110   19.4690  90.0000  90.0000  90.0000  19 1

