# MOL2 file generated by ConQuest
# Please check atom types

@<TRIPOS>MOLECULE
XOSHAO
    18    18     1
SMALL
NO_CHARGES
****
Generated from CSD

@<TRIPOS>ATOM
      1 C1         1.1932   -0.2842   15.8274 C.ar      1 RES1    0.0000
      2 N1        -1.4123    1.3202   17.5426 N.1       1 RES1    0.0000
      3 O1        -0.3876    1.2957   13.0336 O.2       1 RES1    0.0000
      4 O2        -1.2470   -0.1059   14.4418 O.2       1 RES1    0.0000
      5 C2         1.0408    0.2781   14.5515 C.ar      1 RES1    0.0000
      6 N2        -0.2925    0.5159   13.9746 N.pl3     1 RES1    0.0000
      7 C3         2.1227    0.6313   13.7518 C.ar      1 RES1    0.0000
      8 H1         1.9811    1.0211   12.8965 H         1 RES1    0.0000
      9 C4         3.4132    0.4071   14.2172 C.ar      1 RES1    0.0000
     10 H2         4.1622    0.6387   13.6805 H         1 RES1    0.0000
     11 C5         3.6000   -0.1578   15.4711 C.ar      1 RES1    0.0000
     12 H3         4.4801   -0.3193   15.7909 H         1 RES1    0.0000
     13 C6         2.5033   -0.4886   16.2642 C.ar      1 RES1    0.0000
     14 H4         2.6513   -0.8629   17.1247 H         1 RES1    0.0000
     15 C7         0.0723   -0.6836   16.7669 C.3       1 RES1    0.0000
     16 H5        -0.4965   -1.3579   16.3185 H         1 RES1    0.0000
     17 H6         0.4646   -1.1070   17.5709 H         1 RES1    0.0000
     18 C8        -0.7694    0.4452   17.1868 C.1       1 RES1    0.0000
@<TRIPOS>BOND
     1    1    5 ar
     2    2   18 3
     3    3    6 2
     4    4    6 2
     5    5    6 1
     6    7    5 ar
     7    8    7 1
     8    9    7 ar
     9   10    9 1
    10   11    9 ar
    11   12   11 1
    12   13    1 ar
    13   14   13 1
    14   15    1 1
    15   16   15 1
    16   17   15 1
    17   18   15 1
    18   11   13 ar
@<TRIPOS>SUBSTRUCTURE
     1 RES1 1

@<TRIPOS>CRYSIN
   7.9689    7.6030   24.6540  90.0000  90.0000  90.0000  61 1

