# MOL2 file generated by ConQuest
# Please check atom types

@<TRIPOS>MOLECULE
XOSHES
    18    18     1
SMALL
NO_CHARGES
****
Generated from CSD

@<TRIPOS>ATOM
      1 C1         1.0753    0.7712    3.2911 C.ar      1 RES1    0.0000
      2 N1         1.6999   -1.2374    0.4795 N.1       1 RES1    0.0000
      3 O1        -0.2346    1.3142    7.1507 O.2       1 RES1    0.0000
      4 O2         1.5582    2.4082    7.6788 O.2       1 RES1    0.0000
      5 C2         0.6218    0.8853    4.6063 C.ar      1 RES1    0.0000
      6 H1        -0.1662    0.4376    4.8895 H         1 RES1    0.0000
      7 N2         0.8550    1.8077    6.8660 N.pl3     1 RES1    0.0000
      8 C3         1.3512    1.6698    5.4891 C.ar      1 RES1    0.0000
      9 C4         2.5138    2.3341    5.1342 C.ar      1 RES1    0.0000
     10 H2         3.0007    2.8467    5.7691 H         1 RES1    0.0000
     11 C5         2.9426    2.2248    3.8155 C.ar      1 RES1    0.0000
     12 H3         3.7285    2.6797    3.5361 H         1 RES1    0.0000
     13 C6         2.2270    1.4533    2.9021 C.ar      1 RES1    0.0000
     14 H4         2.5280    1.3911    2.0026 H         1 RES1    0.0000
     15 C7         0.2608   -0.0519    2.3127 C.3       1 RES1    0.0000
     16 H5        -0.2469   -0.7370    2.8149 H         1 RES1    0.0000
     17 H6        -0.3941    0.5389    1.8634 H         1 RES1    0.0000
     18 C8         1.0773   -0.7197    1.2906 C.1       1 RES1    0.0000
@<TRIPOS>BOND
     1    1    5 ar
     2    2   18 3
     3    3    7 2
     4    4    7 2
     5    5    6 1
     6    7    8 1
     7    8    5 ar
     8    9    8 ar
     9   10    9 1
    10   11    9 ar
    11   12   11 1
    12   13    1 ar
    13   14   13 1
    14   15    1 1
    15   16   15 1
    16   17   15 1
    17   18   15 1
    18   11   13 ar
@<TRIPOS>SUBSTRUCTURE
     1 RES1 1

@<TRIPOS>CRYSIN
   5.3641   11.5157   12.1981  90.0000 100.3690  90.0000 231 1

