# MOL2 file generated by ConQuest
# Please check atom types

@<TRIPOS>MOLECULE
XOSQON
    54    55     1
SMALL
NO_CHARGES
****
Generated from CSD

@<TRIPOS>ATOM
      1 C1        15.9619    9.6704   -0.7402 C.ar      1 RES1    0.0000
      2 C2        16.2583    8.3603   -0.5213 C.ar      1 RES1    0.0000
      3 H1        17.1149    8.0392   -0.6888 H         1 RES1    0.0000
      4 C3        15.2670    7.4991   -0.0448 C.ar      1 RES1    0.0000
      5 C4        13.9886    8.0147    0.2478 C.ar      1 RES1    0.0000
      6 C5        13.7191    9.3575    0.0207 C.ar      1 RES1    0.0000
      7 H2        12.8785    9.7017    0.2163 H         1 RES1    0.0000
      8 C6        14.7037   10.1874   -0.4973 C.ar      1 RES1    0.0000
      9 H3        14.5206   11.0813   -0.6780 H         1 RES1    0.0000
     10 C7        15.5350    6.1100    0.1484 C.1       1 RES1    0.0000
     11 C8        10.9814    6.7726    1.6005 C.ar      1 RES1    0.0000
     12 C9        10.9058    5.3522    1.5201 C.ar      1 RES1    0.0000
     13 C10        9.8180    4.6992    2.0481 C.ar      1 RES1    0.0000
     14 H4         9.7961    3.7699    2.0124 H         1 RES1    0.0000
     15 C11        8.7369    5.3794    2.6432 C.ar      1 RES1    0.0000
     16 C12        8.7795    6.7848    2.6589 C.ar      1 RES1    0.0000
     17 H5         8.0686    7.2664    3.0153 H         1 RES1    0.0000
     18 C13        9.8691    7.4474    2.1492 C.ar      1 RES1    0.0000
     19 H6         9.8749    8.3766    2.1658 H         1 RES1    0.0000
     20 C14       12.0046    3.3169    0.5678 C.2       1 RES1    0.0000
     21 C15       13.0712    2.9863   -0.4451 C.3       1 RES1    0.0000
     22 H7        13.2098    2.0367   -0.4658 H         1 RES1    0.0000
     23 H8        13.8912    3.4230   -0.2006 H         1 RES1    0.0000
     24 H9        12.7939    3.2897   -1.3129 H         1 RES1    0.0000
     25 C16        7.5520    3.2693    2.8446 C.3       1 RES1    0.0000
     26 H10        7.7723    3.1441    1.9088 H         1 RES1    0.0000
     27 H11        6.6227    3.0203    2.9614 H         1 RES1    0.0000
     28 C17        8.3945    2.3387    3.6552 C.2       1 RES1    0.0000
     29 C18        9.0353    0.0517    3.7928 C.3       1 RES1    0.0000
     30 H12        9.9449    0.3401    3.9055 H         1 RES1    0.0000
     31 H13        9.0163   -0.7347    3.2432 H         1 RES1    0.0000
     32 H14        8.6554   -0.1469    4.6514 H         1 RES1    0.0000
     33 C19        6.4649    5.3413    3.5549 C.3       1 RES1    0.0000
     34 H15        6.6762    6.1508    4.0464 H         1 RES1    0.0000
     35 H16        5.9580    4.7577    4.1417 H         1 RES1    0.0000
     36 C20        5.6276    5.6910    2.3580 C.2       1 RES1    0.0000
     37 C21        3.5359    6.4923    1.6527 C.3       1 RES1    0.0000
     38 H17        4.0455    6.9358    0.9697 H         1 RES1    0.0000
     39 H18        2.8636    7.0896    1.9892 H         1 RES1    0.0000
     40 H19        3.1153    5.7141    1.2822 H         1 RES1    0.0000
     41 N1        17.0181   10.5561   -1.2549 N.pl3     1 RES1    0.0000
     42 N2        15.8054    5.0175    0.2876 N.1       1 RES1    0.0000
     43 N3        13.0458    7.0664    0.7012 N.2       1 RES1    0.0000
     44 N4        11.9831    7.6106    1.1786 N.2       1 RES1    0.0000
     45 N5        11.9214    4.6597    0.8554 N.am      1 RES1    0.0000
     46 H20       12.5841    5.1372    0.5893 H         1 RES1    0.0000
     47 N6         7.6963    4.6801    3.1670 N.3       1 RES1    0.0000
     48 O1        18.1704   10.2146   -1.1048 O.2       1 RES1    0.0000
     49 O2        16.6719   11.5806   -1.8152 O.2       1 RES1    0.0000
     50 O3        11.2959    2.4788    1.0725 O.2       1 RES1    0.0000
     51 O4         9.1009    2.6162    4.5727 O.2       1 RES1    0.0000
     52 O5         8.2707    1.1047    3.1570 O.3       1 RES1    0.0000
     53 O6         5.9950    5.5930    1.2300 O.2       1 RES1    0.0000
     54 O7         4.4169    6.0991    2.7318 O.3       1 RES1    0.0000
@<TRIPOS>BOND
     1    1    2 ar
     2    2    3 1
     3    4    2 ar
     4    5    4 ar
     5    6    5 ar
     6    7    6 1
     7    8    1 ar
     8    9    8 1
     9   10    4 1
    10   11   12 ar
    11   12   13 ar
    12   13   14 1
    13   15   13 ar
    14   16   15 ar
    15   17   16 1
    16   18   11 ar
    17   19   18 1
    18   20   21 1
    19   21   22 1
    20   23   21 1
    21   24   21 1
    22   25   26 1
    23   27   25 1
    24   28   25 1
    25   29   30 1
    26   31   29 1
    27   32   29 1
    28   33   34 1
    29   35   33 1
    30   36   33 1
    31   37   38 1
    32   39   37 1
    33   40   37 1
    34   41    1 1
    35   42   10 3
    36   43    5 1
    37   44   11 1
    38   45   12 1
    39   46   45 1
    40   47   15 1
    41   48   41 2
    42   49   41 2
    43   50   20 2
    44   51   28 2
    45   52   28 1
    46   53   36 2
    47   54   36 1
    48    6    8 ar
    49   16   18 ar
    50   20   45 1
    51   25   47 1
    52   29   52 1
    53   33   47 1
    54   37   54 1
    55   43   44 2
@<TRIPOS>SUBSTRUCTURE
     1 RES1 1

@<TRIPOS>CRYSIN
  19.5730   13.6050    8.5737  90.0000 104.8230  90.0000   9 1

