# MOL2 file generated by ConQuest
# Please check atom types

@<TRIPOS>MOLECULE
XOTJOH
    52    53     1
SMALL
NO_CHARGES
****
Generated from CSD

@<TRIPOS>ATOM
      1 C1        -0.6714    7.2871   10.0315 C.ar      1 RES1    0.0000
      2 C2         0.5871    6.8494   10.3065 C.ar      1 RES1    0.0000
      3 H1         0.8570    6.6691   11.1784 H         1 RES1    0.0000
      4 C3         1.4646    6.6784    9.2144 C.ar      1 RES1    0.0000
      5 H2         2.3364    6.3872    9.3555 H         1 RES1    0.0000
      6 C4         1.0153    6.9487    7.9263 C.ar      1 RES1    0.0000
      7 C5        -0.2644    7.3617    7.7217 C.ar      1 RES1    0.0000
      8 H3        -0.5619    7.5217    6.8549 H         1 RES1    0.0000
      9 C6        -1.1078    7.5421    8.7621 C.ar      1 RES1    0.0000
     10 H4        -1.9774    7.8373    8.6160 H         1 RES1    0.0000
     11 C7         3.6522    6.2406    5.6786 C.ar      1 RES1    0.0000
     12 C8         4.8768    5.6465    5.8540 C.ar      1 RES1    0.0000
     13 H5         5.1169    5.3428    6.7002 H         1 RES1    0.0000
     14 C9         5.7595    5.4890    4.8114 C.ar      1 RES1    0.0000
     15 H6         6.5782    5.0775    4.9684 H         1 RES1    0.0000
     16 C10        5.4546    5.9342    3.5162 C.ar      1 RES1    0.0000
     17 C11        4.1901    6.5227    3.3277 C.ar      1 RES1    0.0000
     18 H7         3.9400    6.8131    2.4799 H         1 RES1    0.0000
     19 C12        3.3178    6.6750    4.3837 C.ar      1 RES1    0.0000
     20 H8         2.4904    7.0724    4.2375 H         1 RES1    0.0000
     21 C13        7.7718    5.5223    2.7000 C.3       1 RES1    0.0000
     22 H9         7.9815    5.6985    3.6321 H         1 RES1    0.0000
     23 H10        8.3096    6.1221    2.1617 H         1 RES1    0.0000
     24 C14        8.1673    4.1054    2.3801 C.3       1 RES1    0.0000
     25 H11        7.9058    3.8800    1.4738 H         1 RES1    0.0000
     26 H12        9.1279    3.9976    2.4610 H         1 RES1    0.0000
     27 C15        7.6840    1.9273    3.1955 C.2       1 RES1    0.0000
     28 C16        6.9215    1.1696    4.2347 C.3       1 RES1    0.0000
     29 H13        6.4237    0.4639    3.8161 H         1 RES1    0.0000
     30 H14        6.3158    1.7640    4.6846 H         1 RES1    0.0000
     31 H15        7.5337    0.7950    4.8721 H         1 RES1    0.0000
     32 C17        6.0014    6.0923    1.0884 C.3       1 RES1    0.0000
     33 H16        5.0482    5.9442    0.9871 H         1 RES1    0.0000
     34 H17        6.4579    5.4488    0.5245 H         1 RES1    0.0000
     35 C18        6.3251    7.4832    0.5878 C.3       1 RES1    0.0000
     36 H18        7.2572    7.6900    0.7584 H         1 RES1    0.0000
     37 H19        6.1699    7.5378   -0.3680 H         1 RES1    0.0000
     38 C19        5.5895    9.7108    0.9768 C.2       1 RES1    0.0000
     39 C20        4.7055   10.5687    1.8161 C.3       1 RES1    0.0000
     40 H20        5.2061   10.9157    2.5573 H         1 RES1    0.0000
     41 H21        3.9694   10.0464    2.1428 H         1 RES1    0.0000
     42 H22        4.3711   11.2969    1.2881 H         1 RES1    0.0000
     43 N1        -1.6078    7.5137   11.1457 N.pl3     1 RES1    0.0000
     44 N2         1.7970    6.8258    6.6577 N.2       1 RES1    0.0000
     45 N3         2.8626    6.3553    6.9254 N.2       1 RES1    0.0000
     46 N4         6.3650    5.8304    2.4754 N.3       1 RES1    0.0000
     47 O1        -1.1997    7.3133   12.2704 O.2       1 RES1    0.0000
     48 O2        -2.7290    7.8654   10.8878 O.2       1 RES1    0.0000
     49 O3         7.4880    3.2508    3.3243 O.3       1 RES1    0.0000
     50 O4         8.3970    1.4523    2.3588 O.2       1 RES1    0.0000
     51 O5         5.4715    8.4192    1.2850 O.3       1 RES1    0.0000
     52 O6         6.3238   10.1119    0.1116 O.2       1 RES1    0.0000
@<TRIPOS>BOND
     1    1    2 ar
     2    2    3 1
     3    4    2 ar
     4    5    4 1
     5    6    4 ar
     6    7    6 ar
     7    8    7 1
     8    9    1 ar
     9   10    9 1
    10   11   12 ar
    11   12   13 1
    12   14   12 ar
    13   15   14 1
    14   16   14 ar
    15   17   16 ar
    16   18   17 1
    17   19   11 ar
    18   20   19 1
    19   21   22 1
    20   23   21 1
    21   24   21 1
    22   25   24 1
    23   26   24 1
    24   27   28 1
    25   28   29 1
    26   30   28 1
    27   31   28 1
    28   32   33 1
    29   34   32 1
    30   35   32 1
    31   36   35 1
    32   37   35 1
    33   38   39 1
    34   39   40 1
    35   41   39 1
    36   42   39 1
    37   43    1 1
    38   44    6 1
    39   45   11 1
    40   46   16 1
    41   47   43 2
    42   48   43 2
    43   49   24 1
    44   50   27 2
    45   51   35 1
    46   52   38 2
    47    7    9 ar
    48   17   19 ar
    49   21   46 1
    50   27   49 1
    51   32   46 1
    52   38   51 1
    53   44   45 2
@<TRIPOS>SUBSTRUCTURE
     1 RES1 1

@<TRIPOS>CRYSIN
   7.5890    7.7610   17.3820  82.2900  86.3140  86.3220   2 1

