# MOL2 file generated by ConQuest
# Please check atom types

@<TRIPOS>MOLECULE
XOTJUN
    48    50     1
SMALL
NO_CHARGES
****
Generated from CSD

@<TRIPOS>ATOM
      1 C1       -10.5601    1.1295    8.0721 C.ar      1 RES1    0.0000
      2 C2       -10.4341    0.4480    6.8763 C.ar      1 RES1    0.0000
      3 H1       -11.1689    0.0371    6.4800 H         1 RES1    0.0000
      4 C3        -9.1792    0.3949    6.2831 C.ar      1 RES1    0.0000
      5 H2        -9.0696   -0.0604    5.4796 H         1 RES1    0.0000
      6 C4        -8.0936    1.0095    6.8722 C.ar      1 RES1    0.0000
      7 C5        -8.2487    1.7077    8.0761 C.ar      1 RES1    0.0000
      8 H3        -7.5206    2.1360    8.4648 H         1 RES1    0.0000
      9 C6        -9.4842    1.7571    8.6811 C.ar      1 RES1    0.0000
     10 H4        -9.5956    2.2066    9.4874 H         1 RES1    0.0000
     11 C7        -4.6500    1.4146    6.1573 C.ar      1 RES1    0.0000
     12 C8        -4.3240    0.6502    5.0293 C.ar      1 RES1    0.0000
     13 H5        -4.9891    0.1665    4.5940 H         1 RES1    0.0000
     14 C9        -3.0342    0.6095    4.5615 C.ar      1 RES1    0.0000
     15 H6        -2.8406    0.1004    3.8071 H         1 RES1    0.0000
     16 C10       -1.9933    1.3236    5.2006 C.ar      1 RES1    0.0000
     17 C11       -2.3343    2.0997    6.3345 C.ar      1 RES1    0.0000
     18 H7        -1.6790    2.5906    6.7747 H         1 RES1    0.0000
     19 C12       -3.6360    2.1302    6.7881 C.ar      1 RES1    0.0000
     20 H8        -3.8428    2.6429    7.5361 H         1 RES1    0.0000
     21 C13        0.2573    2.3069    5.1349 C.3       1 RES1    0.0000
     22 H9        -0.2221    3.1288    5.3235 H         1 RES1    0.0000
     23 H10        0.8590    2.4764    4.3933 H         1 RES1    0.0000
     24 C14        1.0785    1.9077    6.3702 C.3       1 RES1    0.0000
     25 H11        0.4824    1.7869    7.1267 H         1 RES1    0.0000
     26 H12        1.5214    1.0618    6.2012 H         1 RES1    0.0000
     27 C15        2.0770    2.9186    6.6998 C.1       1 RES1    0.0000
     28 C16       -0.3528    0.3753    3.6379 C.3       1 RES1    0.0000
     29 H13       -0.6147    0.7956    2.8035 H         1 RES1    0.0000
     30 H14       -0.8613   -0.4465    3.7258 H         1 RES1    0.0000
     31 C17        1.1183    0.0356    3.5739 C.ar      1 RES1    0.0000
     32 C18        1.9304    0.5811    2.5920 C.ar      1 RES1    0.0000
     33 H15        1.5663    1.1607    1.9625 H         1 RES1    0.0000
     34 C19        3.2849    0.2691    2.5389 C.ar      1 RES1    0.0000
     35 H16        3.8232    0.6422    1.8780 H         1 RES1    0.0000
     36 C20        3.8299   -0.5971    3.4684 C.ar      1 RES1    0.0000
     37 H17        4.7366   -0.8007    3.4423 H         1 RES1    0.0000
     38 C21        3.0159   -1.1600    4.4399 C.ar      1 RES1    0.0000
     39 H18        3.3772   -1.7484    5.0623 H         1 RES1    0.0000
     40 C22        1.6726   -0.8516    4.4880 C.ar      1 RES1    0.0000
     41 H19        1.1331   -1.2415    5.1372 H         1 RES1    0.0000
     42 N1       -11.8634    1.1847    8.7260 N.pl3     1 RES1    0.0000
     43 N2        -6.8412    0.8592    6.2030 N.2       1 RES1    0.0000
     44 N3        -5.9200    1.5325    6.7473 N.2       1 RES1    0.0000
     45 N4        -0.7002    1.2693    4.7490 N.3       1 RES1    0.0000
     46 N5         2.8767    3.7077    6.9470 N.1       1 RES1    0.0000
     47 O1       -12.7878    0.5400    8.2341 O.2       1 RES1    0.0000
     48 O2       -11.9754    1.8735    9.7399 O.2       1 RES1    0.0000
@<TRIPOS>BOND
     1    1    2 ar
     2    2    3 1
     3    4    2 ar
     4    5    4 1
     5    6    4 ar
     6    7    6 ar
     7    8    7 1
     8    9    1 ar
     9   10    9 1
    10   11   12 ar
    11   12   13 1
    12   14   12 ar
    13   15   14 1
    14   16   14 ar
    15   17   16 ar
    16   18   17 1
    17   19   11 ar
    18   20   19 1
    19   21   22 1
    20   23   21 1
    21   24   21 1
    22   25   24 1
    23   26   24 1
    24   27   24 1
    25   28   29 1
    26   30   28 1
    27   31   28 1
    28   32   31 ar
    29   33   32 1
    30   34   32 ar
    31   35   34 1
    32   36   34 ar
    33   37   36 1
    34   38   36 ar
    35   39   38 1
    36   40   31 ar
    37   41   40 1
    38   42    1 1
    39   43    6 1
    40   44   11 1
    41   45   16 1
    42   46   27 3
    43   47   42 2
    44   48   42 2
    45    7    9 ar
    46   17   19 ar
    47   21   45 1
    48   28   45 1
    49   38   40 ar
    50   43   44 2
@<TRIPOS>SUBSTRUCTURE
     1 RES1 1

@<TRIPOS>CRYSIN
  15.8900    7.2728   20.7440  90.0000 129.8350  90.0000  14 1

