# MOL2 file generated by ConQuest
# Please check atom types

@<TRIPOS>MOLECULE
XOTQEE
    73    80     1
SMALL
NO_CHARGES
****
Generated from CSD

@<TRIPOS>ATOM
      1 O1         4.0186    4.2746   11.8861 O.2       1 RES1    0.0000
      2 O2         7.5494   12.3150   -0.9588 O.2       1 RES1    0.0000
      3 O3         6.3061   13.1773    0.5860 O.2       1 RES1    0.0000
      4 O4         6.3272    8.9388    5.7735 O.2       1 RES1    0.0000
      5 O5         2.9201    4.1556   10.0216 O.2       1 RES1    0.0000
      6 O6         8.4832   10.8536    7.1052 O.2       1 RES1    0.0000
      7 O7        12.8088    5.7073    2.4592 O.2       1 RES1    0.0000
      8 O8        12.6097    5.0433    4.5117 O.2       1 RES1    0.0000
      9 N1         3.8456    4.5790   10.7031 N.pl3     1 RES1    0.0000
     10 N2         7.0045   12.2728    0.1374 N.pl3     1 RES1    0.0000
     11 N3         9.4383   10.3224    5.0739 N.am      1 RES1    0.0000
     12 H1         9.2081   11.0417    4.6220 H         1 RES1    0.0000
     13 N4        12.4008    5.8611    3.6095 N.pl3     1 RES1    0.0000
     14 C1         4.8118    5.4908   10.0807 C.ar      1 RES1    0.0000
     15 C2         5.6680    6.2131   10.8887 C.ar      1 RES1    0.0000
     16 H2         5.6174    6.1446   11.8353 H         1 RES1    0.0000
     17 C3         6.6046    7.0427   10.2855 C.ar      1 RES1    0.0000
     18 H3         7.1929    7.5541   10.8283 H         1 RES1    0.0000
     19 C4         6.6982    7.1397    8.8874 C.ar      1 RES1    0.0000
     20 C5         7.7180    8.0777    8.2670 C.3       1 RES1    0.0000
     21 H4         7.3076    8.9892    8.2417 H         1 RES1    0.0000
     22 C6         8.1703    7.7347    6.8289 C.3       1 RES1    0.0000
     23 C7         7.2192    8.1245    5.6840 C.2       1 RES1    0.0000
     24 C8         7.5740    7.2338    4.5194 C.2       1 RES1    0.0000
     25 C9         7.6871    7.5076    3.1993 C.2       1 RES1    0.0000
     26 H5         7.9618    6.7706    2.6653 H         1 RES1    0.0000
     27 C10        7.4578    8.7468    2.4515 C.ar      1 RES1    0.0000
     28 C11        8.0985    8.8762    1.2036 C.ar      1 RES1    0.0000
     29 H6         8.6313    8.1619    0.8757 H         1 RES1    0.0000
     30 C12        7.9625   10.0315    0.4472 C.ar      1 RES1    0.0000
     31 H7         8.3972   10.1159   -0.3937 H         1 RES1    0.0000
     32 C13        7.1836   11.0536    0.9425 C.ar      1 RES1    0.0000
     33 C14        6.6845    9.8133    2.9101 C.ar      1 RES1    0.0000
     34 H8         6.2450    9.7423    3.7486 H         1 RES1    0.0000
     35 C15        6.5444   10.9750    2.1654 C.ar      1 RES1    0.0000
     36 H9         6.0223   11.6999    2.4887 H         1 RES1    0.0000
     37 N5        10.1060    8.3720    8.0041 N.3       1 RES1    0.0000
     38 C16        9.0527    8.1939    9.0447 C.3       1 RES1    0.0000
     39 H10        9.2202    7.3419    9.5398 H         1 RES1    0.0000
     40 C17        4.8552    5.5737    8.6989 C.ar      1 RES1    0.0000
     41 H11        4.2483    5.0767    8.1630 H         1 RES1    0.0000
     42 C18        5.8051    6.3995    8.1162 C.ar      1 RES1    0.0000
     43 H12        5.8471    6.4614    7.1680 H         1 RES1    0.0000
     44 C19        9.2404    9.3743    9.9956 C.3       1 RES1    0.0000
     45 H13        8.9294    9.1564   10.9095 H         1 RES1    0.0000
     46 H14        8.7641   10.1797    9.6710 H         1 RES1    0.0000
     47 C20       10.7625    9.5682    9.9531 C.3       1 RES1    0.0000
     48 H15       11.2244    8.8978   10.5157 H         1 RES1    0.0000
     49 H16       11.0158   10.4758   10.2580 H         1 RES1    0.0000
     50 C21       11.0948    9.3691    8.4691 C.3       1 RES1    0.0000
     51 H17       11.0011   10.2185    7.9697 H         1 RES1    0.0000
     52 H18       12.0178    9.0302    8.3563 H         1 RES1    0.0000
     53 C22       10.3443    8.2682    5.5077 C.ar      1 RES1    0.0000
     54 C23       10.2184    9.2956    4.5571 C.ar      1 RES1    0.0000
     55 C24        9.0687   10.0795    6.3796 C.2       1 RES1    0.0000
     56 C25       10.7999    9.2131    3.2946 C.ar      1 RES1    0.0000
     57 H19       10.7130    9.9193    2.6653 H         1 RES1    0.0000
     58 C26       11.5107    8.0597    2.9884 C.ar      1 RES1    0.0000
     59 H20       11.9005    7.9539    2.1284 H         1 RES1    0.0000
     60 C27       11.6496    7.0599    3.9469 C.ar      1 RES1    0.0000
     61 C28       11.0831    7.1447    5.2257 C.ar      1 RES1    0.0000
     62 H21       11.2044    6.4562    5.8699 H         1 RES1    0.0000
     63 C29        8.4569    6.2890    6.4951 C.ar      1 RES1    0.0000
     64 C30        8.1121    6.0215    5.1629 C.ar      1 RES1    0.0000
     65 C31        8.3168    4.7553    4.6177 C.ar      1 RES1    0.0000
     66 H22        8.0619    4.5628    3.7224 H         1 RES1    0.0000
     67 C32        8.9050    3.7799    5.4199 C.ar      1 RES1    0.0000
     68 H23        9.0538    2.9117    5.0658 H         1 RES1    0.0000
     69 C33        9.2795    4.0553    6.7320 C.ar      1 RES1    0.0000
     70 H24        9.6993    3.3800    7.2515 H         1 RES1    0.0000
     71 C34        9.0454    5.3083    7.2892 C.ar      1 RES1    0.0000
     72 H25        9.2820    5.4911    8.1916 H         1 RES1    0.0000
     73 C35        9.4953    8.6017    6.7149 C.3       1 RES1    0.0000
@<TRIPOS>BOND
     1    1    9 2
     2    2   10 2
     3    3   10 2
     4    4   23 2
     5    5    9 2
     6    6   55 2
     7    7   13 2
     8    8   13 2
     9    9   14 1
    10   10   32 1
    11   11   12 1
    12   13   60 1
    13   14   15 ar
    14   15   16 1
    15   17   15 ar
    16   18   17 1
    17   19   17 ar
    18   20   19 1
    19   21   20 1
    20   22   20 1
    21   23   22 1
    22   24   23 1
    23   25   24 2
    24   26   25 1
    25   27   25 1
    26   28   27 ar
    27   29   28 1
    28   30   28 ar
    29   31   30 1
    30   32   30 ar
    31   33   27 ar
    32   34   33 1
    33   35   32 ar
    34   36   35 1
    35   37   38 1
    36   38   20 1
    37   39   38 1
    38   40   14 ar
    39   41   40 1
    40   42   19 ar
    41   43   42 1
    42   44   38 1
    43   45   44 1
    44   46   44 1
    45   47   44 1
    46   48   47 1
    47   49   47 1
    48   50   37 1
    49   51   50 1
    50   52   50 1
    51   53   54 ar
    52   54   11 1
    53   55   11 1
    54   56   54 ar
    55   57   56 1
    56   58   56 ar
    57   59   58 1
    58   60   58 ar
    59   61   53 ar
    60   62   61 1
    61   63   22 1
    62   64   24 1
    63   65   64 ar
    64   66   65 1
    65   67   65 ar
    66   68   67 1
    67   69   67 ar
    68   70   69 1
    69   71   63 ar
    70   72   71 1
    71   73   22 1
    72   33   35 ar
    73   37   73 1
    74   40   42 ar
    75   47   50 1
    76   53   73 1
    77   55   73 1
    78   60   61 ar
    79   63   64 ar
    80   69   71 ar
@<TRIPOS>SUBSTRUCTURE
     1 RES1 1

@<TRIPOS>CRYSIN
   7.6673    8.7388   24.2080  80.7400  83.5870  65.8750   2 1

