# MOL2 file generated by ConQuest
# Please check atom types

@<TRIPOS>MOLECULE
XOVBUH
    27    29     1
SMALL
NO_CHARGES
****
Generated from CSD

@<TRIPOS>ATOM
      1 O1         3.2998    3.4922   -0.1377 O.3       1 RES1    0.0000
      2 O2         5.4698    2.9752    0.1200 O.3       1 RES1    0.0000
      3 O3         6.9314    4.0552    2.0388 O.3       1 RES1    0.0000
      4 H1         7.3027    4.4831    2.6322 H         1 RES1    0.0000
      5 O4         2.9497    6.0015    3.5345 O.3       1 RES1    0.0000
      6 C1         4.7030    5.1563    2.1814 C.3       1 RES1    0.0000
      7 H2         4.9531    5.6629    1.3807 H         1 RES1    0.0000
      8 N1         2.4443    4.9135    2.7807 N.2       1 RES1    0.0000
      9 C2         3.3665    4.5106    2.0278 C.2       1 RES1    0.0000
     10 C3         5.5752    3.9030    2.3502 C.3       1 RES1    0.0000
     11 H3         5.5001    3.5920    3.2759 H         1 RES1    0.0000
     12 C4         4.9455    2.8544    1.4294 C.3       1 RES1    0.0000
     13 H4         5.0501    1.9463    1.7836 H         1 RES1    0.0000
     14 C5         3.4437    3.2403    1.2557 C.3       1 RES1    0.0000
     15 H5         2.8285    2.5526    1.5864 H         1 RES1    0.0000
     16 C6         4.3947    2.8505   -0.8024 C.3       1 RES1    0.0000
     17 C7         4.3977    6.0737    3.3506 C.3       1 RES1    0.0000
     18 H6         4.8606    5.7758    4.1497 H         1 RES1    0.0000
     19 H7         4.6727    6.9831    3.1526 H         1 RES1    0.0000
     20 C8         4.7371    3.6222   -2.0388 C.3       1 RES1    0.0000
     21 H8         4.9281    4.5329   -1.8054 H         1 RES1    0.0000
     22 H9         3.9946    3.5959   -2.6473 H         1 RES1    0.0000
     23 H10        5.5070    3.2311   -2.4576 H         1 RES1    0.0000
     24 C9         4.0711    1.4003   -1.0727 C.3       1 RES1    0.0000
     25 H11        4.8311    0.9712   -1.4730 H         1 RES1    0.0000
     26 H12        3.3225    1.3452   -1.6703 H         1 RES1    0.0000
     27 H13        3.8552    0.9607   -0.2468 H         1 RES1    0.0000
@<TRIPOS>BOND
     1    1   14 1
     2    2   12 1
     3    3    4 1
     4    5    8 1
     5    6    7 1
     6    8    9 2
     7    9    6 1
     8   10    3 1
     9   11   10 1
    10   12   10 1
    11   13   12 1
    12   14    9 1
    13   15   14 1
    14   16    1 1
    15   17    5 1
    16   18   17 1
    17   19   17 1
    18   20   16 1
    19   21   20 1
    20   22   20 1
    21   23   20 1
    22   24   16 1
    23   25   24 1
    24   26   24 1
    25   27   24 1
    26    2   16 1
    27    6   10 1
    28    6   17 1
    29   12   14 1
@<TRIPOS>SUBSTRUCTURE
     1 RES1 1

@<TRIPOS>CRYSIN
  15.1540   15.1540    8.3934  90.0000  90.0000 120.0000 170 1

