# MOL2 file generated by ConQuest
# Please check atom types

@<TRIPOS>MOLECULE
XOWMAY
    30    31     1
SMALL
USER_CHARGES
****
Generated from CSD

@<TRIPOS>ATOM
      1 O1         4.1964    5.5569    1.6302 O.2       1 RES1   -1.0000
      2 O2         5.1400    7.4824    4.8633 O.2       1 RES1    0.0000
      3 N1         3.2874    5.8841    0.6831 N.pl3     1 RES1    1.0000
      4 N2         3.6222    7.8526    2.6910 N.2       1 RES1    0.0000
      5 C1         3.0154    4.9587   -0.3154 C.ar      1 RES1    0.0000
      6 H1         3.4456    4.1348   -0.3062 H         1 RES1    0.0000
      7 C2         2.1161    5.2455   -1.3203 C.ar      1 RES1    0.0000
      8 H2         1.9414    4.6126   -1.9786 H         1 RES1    0.0000
      9 C3         1.4741    6.4662   -1.3561 C.ar      1 RES1    0.0000
     10 H3         0.8795    6.6668   -2.0429 H         1 RES1    0.0000
     11 C4         1.7268    7.3854   -0.3586 C.ar      1 RES1    0.0000
     12 H4         1.2889    8.2058   -0.3751 H         1 RES1    0.0000
     13 C5         2.6267    7.1123    0.6767 C.ar      1 RES1    0.0000
     14 C6         2.8599    8.1111    1.7147 C.2       1 RES1    0.0000
     15 H5         2.4704    8.9824    1.5805 H         1 RES1    0.0000
     16 C7         3.8218    8.8490    3.6277 C.3       1 RES1    0.0000
     17 H6         3.5493    9.7605    3.4799 H         1 RES1    0.0000
     18 H7         3.0206    8.6322    4.1153 H         1 RES1    0.0000
     19 C8         4.6390    8.5675    4.6816 C.2       1 RES1    0.0000
     20 C9         4.8723    9.7236    5.6056 C.ar      1 RES1    0.0000
     21 C10        6.0510    9.7438    6.3430 C.ar      1 RES1    0.0000
     22 H8         6.6724    9.0586    6.2510 H         1 RES1    0.0000
     23 C11        6.2906   10.7809    7.2063 C.ar      1 RES1    0.0000
     24 H9         7.0828   10.7767    7.6936 H         1 RES1    0.0000
     25 C12        5.4366   11.8061    7.3842 C.ar      1 RES1    0.0000
     26 H10        5.6268   12.5056    7.9666 H         1 RES1    0.0000
     27 C13        4.3060   11.7677    6.6850 C.ar      1 RES1    0.0000
     28 H11        3.6961   12.4589    6.8054 H         1 RES1    0.0000
     29 C14        3.9797   10.7678    5.7904 C.ar      1 RES1    0.0000
     30 H12        3.1765   10.7938    5.3224 H         1 RES1    0.0000
@<TRIPOS>BOND
     1    1    3 1
     2    2   19 2
     3    3    5 ar
     4    4   14 2
     5    5    6 1
     6    7    5 ar
     7    8    7 1
     8    9    7 ar
     9   10    9 1
    10   11    9 ar
    11   12   11 1
    12   13    3 ar
    13   14   13 1
    14   15   14 1
    15   16    4 1
    16   17   16 1
    17   18   16 1
    18   19   16 1
    19   20   19 1
    20   21   20 ar
    21   22   21 1
    22   23   21 ar
    23   24   23 1
    24   25   23 ar
    25   26   25 1
    26   27   25 ar
    27   28   27 1
    28   29   20 ar
    29   30   29 1
    30   11   13 ar
    31   27   29 ar
@<TRIPOS>SUBSTRUCTURE
     1 RES1 1

@<TRIPOS>CRYSIN
   8.1496   15.5620    9.5460  90.0000 105.6070  90.0000 231 1

