# MOL2 file generated by ConQuest
# Please check atom types

@<TRIPOS>MOLECULE
XOYNOQ
    44    48     1
SMALL
NO_CHARGES
****
Generated from CSD

@<TRIPOS>ATOM
      1 O1         0.8181    4.9789    6.8219 O.2       1 RES1    0.0000
      2 O2         1.3546    6.2510    5.3517 O.2       1 RES1    0.0000
      3 N1         0.6427    3.8242   12.0686 N.3       1 RES1    0.0000
      4 H1         1.1381    4.0555   12.7850 H         1 RES1    0.0000
      5 N2        -1.4030    2.6760    8.7985 N.2       1 RES1    0.0000
      6 N3         0.4089    2.6597   10.1166 N.3       1 RES1    0.0000
      7 N4         1.6311    5.6597    6.3475 N.pl3     1 RES1    0.0000
      8 C1        -0.5315    4.6304   11.8031 C.ar      1 RES1    0.0000
      9 C2        -0.9989    5.5229   12.6479 C.ar      1 RES1    0.0000
     10 H2        -0.5138    5.7249   13.4156 H         1 RES1    0.0000
     11 C3        -2.1456    6.1369   12.4252 C.ar      1 RES1    0.0000
     12 H3        -2.4315    6.7721   13.0419 H         1 RES1    0.0000
     13 C4        -2.9350    5.8926   11.3394 C.ar      1 RES1    0.0000
     14 H4        -3.7460    6.3340   11.2270 H         1 RES1    0.0000
     15 C5        -2.4903    4.9545   10.3982 C.ar      1 RES1    0.0000
     16 H5        -2.9806    4.7705    9.6305 H         1 RES1    0.0000
     17 C6        -1.2421    4.2900   10.6702 C.ar      1 RES1    0.0000
     18 C7        -0.7407    3.1548    9.7600 C.2       1 RES1    0.0000
     19 C8        -0.4868    1.6075    8.3456 C.ar      1 RES1    0.0000
     20 C9        -0.5897    0.7101    7.3273 C.ar      1 RES1    0.0000
     21 H6        -1.3423    0.6906    6.7822 H         1 RES1    0.0000
     22 C10        0.4379   -0.1564    7.1313 C.ar      1 RES1    0.0000
     23 H7         0.3881   -0.7345    6.4043 H         1 RES1    0.0000
     24 C11        1.5391   -0.2313    7.9365 C.ar      1 RES1    0.0000
     25 H8         2.1857   -0.8828    7.7877 H         1 RES1    0.0000
     26 C12        1.6857    0.6857    8.9912 C.ar      1 RES1    0.0000
     27 H9         2.4311    0.6987    9.5470 H         1 RES1    0.0000
     28 C13        0.6299    1.5684    9.1358 C.ar      1 RES1    0.0000
     29 C14        1.4137    3.2346   10.9796 C.3       1 RES1    0.0000
     30 H10        1.9827    2.5212   11.3351 H         1 RES1    0.0000
     31 C15        2.2543    4.2134   10.2451 C.2       1 RES1    0.0000
     32 H11        2.8816    4.6695   10.7591 H         1 RES1    0.0000
     33 C16        2.2365    4.5082    9.0351 C.2       1 RES1    0.0000
     34 H12        1.6013    4.0734    8.5126 H         1 RES1    0.0000
     35 C17        3.1177    5.4806    8.3338 C.ar      1 RES1    0.0000
     36 C18        4.3178    5.8698    8.8981 C.ar      1 RES1    0.0000
     37 H13        4.5271    5.5685    9.7525 H         1 RES1    0.0000
     38 C19        5.2106    6.6826    8.2513 C.ar      1 RES1    0.0000
     39 H14        5.9961    6.9448    8.6754 H         1 RES1    0.0000
     40 C20        4.9406    7.1060    6.9814 C.ar      1 RES1    0.0000
     41 H15        5.5443    7.6484    6.5274 H         1 RES1    0.0000
     42 C21        3.7784    6.7233    6.3893 C.ar      1 RES1    0.0000
     43 H16        3.5960    6.9888    5.5166 H         1 RES1    0.0000
     44 C22        2.8951    5.9676    7.0542 C.ar      1 RES1    0.0000
@<TRIPOS>BOND
     1    1    7 2
     2    2    7 2
     3    3    4 1
     4    5   18 2
     5    6   18 1
     6    7   44 1
     7    8    3 1
     8    9    8 ar
     9   10    9 1
    10   11    9 ar
    11   12   11 1
    12   13   11 ar
    13   14   13 1
    14   15   13 ar
    15   16   15 1
    16   17    8 ar
    17   18   17 1
    18   19    5 1
    19   20   19 ar
    20   21   20 1
    21   22   20 ar
    22   23   22 1
    23   24   22 ar
    24   25   24 1
    25   26   24 ar
    26   27   26 1
    27   28    6 1
    28   29    3 1
    29   30   29 1
    30   31   29 1
    31   32   31 1
    32   33   31 2
    33   34   33 1
    34   35   33 1
    35   36   35 ar
    36   37   36 1
    37   38   36 ar
    38   39   38 1
    39   40   38 ar
    40   41   40 1
    41   42   40 ar
    42   43   42 1
    43   44   35 ar
    44    6   29 1
    45   15   17 ar
    46   19   28 ar
    47   26   28 ar
    48   42   44 ar
@<TRIPOS>SUBSTRUCTURE
     1 RES1 1

@<TRIPOS>CRYSIN
  10.3900   16.2870   11.1240  90.0000 105.7250  90.0000 231 1

