# MOL2 file generated by ConQuest
# Please check atom types

@<TRIPOS>MOLECULE
XOYXAL
    51    53     1
SMALL
NO_CHARGES
****
Generated from CSD

@<TRIPOS>ATOM
      1 O1         9.1880    1.1041    1.5999 O.2       1 RES1    0.0000
      2 O2         4.1376    1.2995    4.5453 O.2       1 RES1    0.0000
      3 O3         9.3321   -4.1261    6.9371 O.3       1 RES1    0.0000
      4 O4         7.0040    2.8317    9.8040 O.3       1 RES1    0.0000
      5 N1         5.9808    0.3437    3.9801 N.pl3     1 RES1    0.0000
      6 C1         6.5904   -0.7890    3.2683 C.3       1 RES1    0.0000
      7 H1         5.8514   -1.3501    2.9532 H         1 RES1    0.0000
      8 C2         7.3018   -0.2616    2.0139 C.3       1 RES1    0.0000
      9 H2         7.7783   -1.0030    1.5854 H         1 RES1    0.0000
     10 C3         8.2948    0.8202    2.3519 C.2       1 RES1    0.0000
     11 C4         8.1296    1.5256    3.6734 C.3       1 RES1    0.0000
     12 H3         8.4555    2.4339    3.5696 H         1 RES1    0.0000
     13 H4         8.7050    1.0870    4.3194 H         1 RES1    0.0000
     14 C5         6.7170    1.5954    4.2685 C.3       1 RES1    0.0000
     15 H5         6.2434    2.3278    3.8217 H         1 RES1    0.0000
     16 N2         4.6569    0.2840    4.0997 N.2       1 RES1    0.0000
     17 C6         7.4139   -1.6484    4.2105 C.ar      1 RES1    0.0000
     18 C7         8.7931   -1.7684    4.1627 C.ar      1 RES1    0.0000
     19 H6         9.2724   -1.3025    3.5168 H         1 RES1    0.0000
     20 C8         9.4674   -2.5746    5.0666 C.ar      1 RES1    0.0000
     21 H7        10.3948   -2.6368    5.0280 H         1 RES1    0.0000
     22 C9         8.7734   -3.2830    6.0221 C.ar      1 RES1    0.0000
     23 C10        7.3870   -3.1733    6.0801 C.ar      1 RES1    0.0000
     24 H8         6.9076   -3.6493    6.7189 H         1 RES1    0.0000
     25 C11        6.7301   -2.3610    5.1928 C.ar      1 RES1    0.0000
     26 H9         5.8048   -2.2834    5.2472 H         1 RES1    0.0000
     27 C12        6.7679    1.9199    5.7477 C.ar      1 RES1    0.0000
     28 C13        7.4066    1.0875    6.6648 C.ar      1 RES1    0.0000
     29 H10        7.7921    0.2947    6.3695 H         1 RES1    0.0000
     30 C14        7.4772    1.4188    8.0012 C.ar      1 RES1    0.0000
     31 H11        7.9078    0.8509    8.5993 H         1 RES1    0.0000
     32 C15        6.9039    2.6032    8.4569 C.ar      1 RES1    0.0000
     33 C16        6.2900    3.4533    7.5572 C.ar      1 RES1    0.0000
     34 H12        5.9227    4.2562    7.8478 H         1 RES1    0.0000
     35 C17        6.2245    3.1017    6.2212 C.ar      1 RES1    0.0000
     36 H13        5.8026    3.6762    5.6230 H         1 RES1    0.0000
     37 C18       10.7062   -4.4641    6.7606 C.3       1 RES1    0.0000
     38 H14       10.9804   -5.0643    7.4572 H         1 RES1    0.0000
     39 H15       11.2394   -3.6667    6.7980 H         1 RES1    0.0000
     40 H16       10.8247   -4.8885    5.9081 H         1 RES1    0.0000
     41 C19        6.4122    4.0214   10.3073 C.3       1 RES1    0.0000
     42 H17        6.5453    4.0676   11.2575 H         1 RES1    0.0000
     43 H18        5.4709    4.0169   10.1171 H         1 RES1    0.0000
     44 H19        6.8196    4.7839    9.8880 H         1 RES1    0.0000
     45 C20        6.2842    0.3176    1.0122 C.3       1 RES1    0.0000
     46 H20        5.5008   -0.2535    0.9954 H         1 RES1    0.0000
     47 H21        6.0049    1.1932    1.3217 H         1 RES1    0.0000
     48 C21        6.8239    0.4453   -0.3945 C.3       1 RES1    0.0000
     49 H22        6.1438    0.8113   -0.9657 H         1 RES1    0.0000
     50 H23        7.0829   -0.4199   -0.7185 H         1 RES1    0.0000
     51 H24        7.5870    1.0284   -0.3922 H         1 RES1    0.0000
@<TRIPOS>BOND
     1    1   10 2
     2    2   16 2
     3    3   22 1
     4    4   32 1
     5    5    6 1
     6    6    7 1
     7    8    6 1
     8    9    8 1
     9   10    8 1
    10   11   10 1
    11   12   11 1
    12   13   11 1
    13   14    5 1
    14   15   14 1
    15   16    5 1
    16   17    6 1
    17   18   17 ar
    18   19   18 1
    19   20   18 ar
    20   21   20 1
    21   22   20 ar
    22   23   22 ar
    23   24   23 1
    24   25   17 ar
    25   26   25 1
    26   27   14 1
    27   28   27 ar
    28   29   28 1
    29   30   28 ar
    30   31   30 1
    31   32   30 ar
    32   33   32 ar
    33   34   33 1
    34   35   27 ar
    35   36   35 1
    36   37    3 1
    37   38   37 1
    38   39   37 1
    39   40   37 1
    40   41    4 1
    41   42   41 1
    42   43   41 1
    43   44   41 1
    44   45    8 1
    45   46   45 1
    46   47   45 1
    47   48   45 1
    48   49   48 1
    49   50   48 1
    50   51   48 1
    51   11   14 1
    52   23   25 ar
    53   33   35 ar
@<TRIPOS>SUBSTRUCTURE
     1 RES1 1

@<TRIPOS>CRYSIN
   7.2742   15.8459   16.4800  90.0000  90.0000  90.0000  19 1

