# MOL2 file generated by ConQuest
# Please check atom types

@<TRIPOS>MOLECULE
XOZBUK
    15    15     1
SMALL
NO_CHARGES
****
Generated from CSD

@<TRIPOS>ATOM
      1 O1         5.9604    1.0202    1.0473 O.3       1 RES1    0.0000
      2 O2         1.2022    2.5948    1.3452 O.2       1 RES1    0.0000
      3 O3         1.1535    0.6768    2.3619 O.2       1 RES1    0.0000
      4 N1         1.7499    1.5640    1.7519 N.pl3     1 RES1    0.0000
      5 C1         5.1877    0.0619    1.6650 C.2       1 RES1    0.0000
      6 C2         5.9568   -1.0096    2.0055 C.2       1 RES1    0.0000
      7 H1         5.6643   -1.8022    2.4406 H         1 RES1    0.0000
      8 C3         7.2815   -0.7126    1.5844 C.2       1 RES1    0.0000
      9 H2         8.0476   -1.2665    1.6787 H         1 RES1    0.0000
     10 C4         7.2327    0.5180    1.0213 C.2       1 RES1    0.0000
     11 H3         7.9831    0.9726    0.6560 H         1 RES1    0.0000
     12 C5         3.7963    0.3214    1.8666 C.2       1 RES1    0.0000
     13 H4         3.2844   -0.3469    2.3076 H         1 RES1    0.0000
     14 C6         3.1613    1.4329    1.4820 C.2       1 RES1    0.0000
     15 H5         3.6324    2.1273    1.0369 H         1 RES1    0.0000
@<TRIPOS>BOND
     1    1    5 1
     2    2    4 2
     3    3    4 2
     4    4   14 1
     5    5    6 2
     6    6    7 1
     7    8    6 1
     8    9    8 1
     9   10    1 1
    10   11   10 1
    11   12    5 1
    12   13   12 1
    13   14   12 2
    14   15   14 1
    15    8   10 2
@<TRIPOS>SUBSTRUCTURE
     1 RES1 1

@<TRIPOS>CRYSIN
   9.0374    5.2012   13.0270  90.0000  97.5800  90.0000 231 1

