# MOL2 file generated by ConQuest
# Please check atom types

@<TRIPOS>MOLECULE
XOZFEY
    67    69     2
SMALL
NO_CHARGES
****
Generated from CSD

@<TRIPOS>ATOM
      1 O1         3.8843    4.1473    6.2013 O.3       1 RES1    0.0000
      2 N1         2.2639    3.5058    3.8258 N.am      1 RES1    0.0000
      3 O2         4.8597    3.4994    3.0465 O.2       1 RES1    0.0000
      4 C1         3.1320    5.1055    5.5016 C.ar      1 RES1    0.0000
      5 C2         2.3043    4.7988    4.3998 C.ar      1 RES1    0.0000
      6 N2         5.5229    2.0316    4.6279 N.am      1 RES1    0.0000
      7 H1         5.2742    1.3884    5.1414 H         1 RES1    0.0000
      8 C3         1.7636    7.1736    4.2525 C.ar      1 RES1    0.0000
      9 C4         1.5162    5.8393    3.8383 C.ar      1 RES1    0.0000
     10 C5         2.8143    2.1079    5.7316 C.ar      1 RES1    0.0000
     11 O3         1.6621    2.1224    2.1282 O.2       1 RES1    0.0000
     12 C6         3.3103    6.3952    5.9502 C.ar      1 RES1    0.0000
     13 C7         3.1326    2.4138    4.2942 C.3       1 RES1    0.0000
     14 H2         2.8869    1.6198    3.7777 H         1 RES1    0.0000
     15 C8         6.9492    2.3494    4.5103 C.3       1 RES1    0.0000
     16 H3         7.1692    2.4227    3.5583 H         1 RES1    0.0000
     17 C9         0.5251    4.1824    2.2895 C.ar      1 RES1    0.0000
     18 C10        2.6389    7.4125    5.2847 C.ar      1 RES1    0.0000
     19 H4         2.7871    8.2912    5.5491 H         1 RES1    0.0000
     20 C11        3.1710    3.0569    6.6656 C.ar      1 RES1    0.0000
     21 C12        4.6009    2.7246    3.9521 C.2       1 RES1    0.0000
     22 C13        1.5215    3.1949    2.6980 C.2       1 RES1    0.0000
     23 N3         1.0466   -0.3228    7.9115 N.pl3     1 RES1    0.0000
     24 C14        0.4942    5.4635    2.8568 C.ar      1 RES1    0.0000
     25 C15        2.1153    0.9875    6.1368 C.ar      1 RES1    0.0000
     26 H5         1.8601    0.3345    5.5245 H         1 RES1    0.0000
     27 C16        1.8065    0.8640    7.4785 C.ar      1 RES1    0.0000
     28 C17        2.8812    2.9167    8.0114 C.ar      1 RES1    0.0000
     29 H6         3.1538    3.5574    8.6277 H         1 RES1    0.0000
     30 O4         0.9673   -0.5174    9.1140 O.2       1 RES1    0.0000
     31 C18        2.1778    1.8004    8.4108 C.ar      1 RES1    0.0000
     32 H7         1.9565    1.6839    9.3063 H         1 RES1    0.0000
     33 C19       -0.4413    3.7612    1.3695 C.ar      1 RES1    0.0000
     34 H8        -0.3934    2.9078    1.0011 H         1 RES1    0.0000
     35 C20        1.2146    8.3947    3.5534 C.3       1 RES1    0.0000
     36 H9         0.3195    8.5617    3.8571 H         1 RES1    0.0000
     37 H10        1.2075    8.2438    2.6055 H         1 RES1    0.0000
     38 H11        1.7676    9.1527    3.7531 H         1 RES1    0.0000
     39 C21        4.2601    6.7055    7.0757 C.3       1 RES1    0.0000
     40 H12        4.2531    7.6500    7.2493 H         1 RES1    0.0000
     41 H13        5.1464    6.4317    6.8310 H         1 RES1    0.0000
     42 H14        3.9854    6.2338    7.8648 H         1 RES1    0.0000
     43 C22        7.2670    3.6722    5.1742 C.3       1 RES1    0.0000
     44 H15        7.0302    3.6299    6.1139 H         1 RES1    0.0000
     45 H16        6.7422    4.3770    4.7633 H         1 RES1    0.0000
     46 C23       -0.5932    6.2770    2.4999 C.ar      1 RES1    0.0000
     47 H17       -0.6801    7.1175    2.8887 H         1 RES1    0.0000
     48 C24        9.6012    2.8905    5.6400 C.3       1 RES1    0.0000
     49 H18       10.5394    3.0974    5.5073 H         1 RES1    0.0000
     50 H19        9.4358    2.8353    6.5936 H         1 RES1    0.0000
     51 C25        9.2779    1.5668    4.9933 C.3       1 RES1    0.0000
     52 H20        9.7953    0.8670    5.4198 H         1 RES1    0.0000
     53 H21        9.5288    1.5975    4.0568 H         1 RES1    0.0000
     54 O5         0.5741   -1.0552    7.0618 O.2       1 RES1    0.0000
     55 C26        7.7942    1.2406    5.1079 C.3       1 RES1    0.0000
     56 H22        7.6093    0.4070    4.6462 H         1 RES1    0.0000
     57 H23        7.5603    1.1235    6.0427 H         1 RES1    0.0000
     58 C27       -1.4610    4.6079    1.0109 C.ar      1 RES1    0.0000
     59 H24       -2.0951    4.3408    0.3847 H         1 RES1    0.0000
     60 C28       -1.5347    5.8568    1.5897 C.ar      1 RES1    0.0000
     61 H25       -2.2331    6.4261    1.3596 H         1 RES1    0.0000
     62 C29        8.7453    3.9923    5.0350 C.3       1 RES1    0.0000
     63 H26        8.9668    4.0927    4.0961 H         1 RES1    0.0000
     64 H27        8.9370    4.8314    5.4811 H         1 RES1    0.0000
     65 H28        4.6712    5.8936    7.3811 Du        2 SUP2    0.0000
     66 H29        3.7767    7.1120    7.7993 Du        2 SUP2    0.0000
     67 H30        4.9378    7.3099    6.7655 Du        2 SUP2    0.0000
@<TRIPOS>BOND
     1    1    4 1
     2    2    5 1
     3    3   21 2
     4    4    5 ar
     5    5    9 ar
     6    6    7 1
     7    8    9 ar
     8    9   24 1
     9   10   13 1
    10   11   22 2
    11   12    4 ar
    12   13    2 1
    13   14   13 1
    14   15    6 1
    15   16   15 1
    16   17   22 1
    17   18    8 ar
    18   19   18 1
    19   20    1 1
    20   21    6 1
    21   22    2 1
    22   23   27 1
    23   24   17 ar
    24   25   10 ar
    25   26   25 1
    26   27   25 ar
    27   28   20 ar
    28   29   28 1
    29   30   23 2
    30   31   27 ar
    31   32   31 1
    32   33   17 ar
    33   34   33 1
    34   35    8 1
    35   36   35 1
    36   37   35 1
    37   38   35 1
    38   39   12 1
    39   40   39 1
    40   41   39 1
    41   42   39 1
    42   43   15 1
    43   44   43 1
    44   45   43 1
    45   46   24 ar
    46   47   46 1
    47   48   49 1
    48   50   48 1
    49   51   48 1
    50   52   51 1
    51   53   51 1
    52   54   23 2
    53   55   15 1
    54   56   55 1
    55   57   55 1
    56   58   33 ar
    57   59   58 1
    58   60   46 ar
    59   61   60 1
    60   62   43 1
    61   63   62 1
    62   64   62 1
    63   10   20 ar
    64   12   18 ar
    65   13   21 1
    66   28   31 ar
    67   48   62 1
    68   51   55 1
    69   58   60 ar
@<TRIPOS>SUBSTRUCTURE
     1 RES1 1
     2 SUP2 65

@<TRIPOS>CRYSIN
  10.7451   27.8791    8.4917  90.0000 105.4280  90.0000  14 1

