# MOL2 file generated by ConQuest
# Please check atom types

@<TRIPOS>MOLECULE
XOZJIG
    32    33     1
SMALL
NO_CHARGES
****
Generated from CSD

@<TRIPOS>ATOM
      1 O1        11.0259    0.6505    1.4997 O.3       1 RES1    0.0000
      2 O2        14.7823   -0.4144    0.9185 O.3       1 RES1    0.0000
      3 N1        13.5733    0.0911    1.4178 N.2       1 RES1    0.0000
      4 C1        11.2528    1.1462    2.7539 C.ar      1 RES1    0.0000
      5 C2        10.1731    1.6529    3.4860 C.ar      1 RES1    0.0000
      6 C3        10.4274    2.1600    4.7616 C.ar      1 RES1    0.0000
      7 H1         9.7085    2.5292    5.2613 H         1 RES1    0.0000
      8 C4        11.6829    2.1427    5.3177 C.ar      1 RES1    0.0000
      9 H2        11.8205    2.4860    6.1931 H         1 RES1    0.0000
     10 C5        12.7393    1.6262    4.6026 C.ar      1 RES1    0.0000
     11 H3        13.6070    1.6112    4.9896 H         1 RES1    0.0000
     12 C6        12.5478    1.1214    3.3084 C.ar      1 RES1    0.0000
     13 C7        13.6864    0.5637    2.5978 C.2       1 RES1    0.0000
     14 H4        14.5359    0.5507    3.0222 H         1 RES1    0.0000
     15 H5        11.8140    0.3182    1.1830 H         1 RES1    0.0000
     16 H6        14.5371   -0.6481   -0.0256 H         1 RES1    0.0000
     17 O1A        7.9408    0.6505    4.9087 O.3       1 RES1    0.0000
     18 O2A        4.1844   -0.4144    5.4899 O.3       1 RES1    0.0000
     19 N1A        5.3934    0.0911    4.9906 N.2       1 RES1    0.0000
     20 C1A        7.7140    1.1462    3.6545 C.ar      1 RES1    0.0000
     21 C2A        8.7937    1.6529    2.9224 C.ar      1 RES1    0.0000
     22 C3A        8.5393    2.1600    1.6468 C.ar      1 RES1    0.0000
     23 H1A        9.2582    2.5292    1.1471 H         1 RES1    0.0000
     24 C4A        7.2838    2.1427    1.0907 C.ar      1 RES1    0.0000
     25 H2A        7.1462    2.4860    0.2153 H         1 RES1    0.0000
     26 C5A        6.2274    1.6262    1.8058 C.ar      1 RES1    0.0000
     27 H3A        5.3597    1.6112    1.4188 H         1 RES1    0.0000
     28 C6A        6.4189    1.1214    3.1000 C.ar      1 RES1    0.0000
     29 C7A        5.2803    0.5637    3.8106 C.2       1 RES1    0.0000
     30 H4A        4.4308    0.5507    3.3862 H         1 RES1    0.0000
     31 H5A        7.1527    0.3182    5.2254 H         1 RES1    0.0000
     32 H6A        4.4296   -0.6481    6.4340 H         1 RES1    0.0000
@<TRIPOS>BOND
     1    1    4 1
     2    2    3 1
     3    3   13 2
     4    4    5 ar
     5    5    6 ar
     6    6    7 1
     7    8    6 ar
     8    9    8 1
     9   10    8 ar
    10   11   10 1
    11   12    4 ar
    12   13   12 1
    13   14   13 1
    14   15    1 1
    15   16    2 1
    16   17   20 1
    17   18   19 1
    18   19   29 2
    19   20   21 ar
    20   21    5 1
    21   22   21 ar
    22   23   22 1
    23   24   22 ar
    24   25   24 1
    25   26   24 ar
    26   27   26 1
    27   28   20 ar
    28   29   28 1
    29   30   29 1
    30   31   17 1
    31   32   18 1
    32   10   12 ar
    33   26   28 ar
@<TRIPOS>SUBSTRUCTURE
     1 RES1 1

@<TRIPOS>CRYSIN
  24.2780    3.9279   16.6466  90.0000 129.6520  90.0000  15 1

