# MOL2 file generated by ConQuest
# Please check atom types

@<TRIPOS>MOLECULE
XOZZAP
    30    31     1
SMALL
NO_CHARGES
****
Generated from CSD

@<TRIPOS>ATOM
      1 O1         1.1545    4.4433   19.0099 O.3       1 RES1    0.0000
      2 O2         4.2933    6.1950   12.8071 O.2       1 RES1    0.0000
      3 O3         4.0318    4.1241   12.7316 O.2       1 RES1    0.0000
      4 N1         4.0041    4.0472   22.5445 N.ar      1 RES1    0.0000
      5 N2         2.1589    5.1180   19.7314 N.2       1 RES1    0.0000
      6 N3         3.8627    5.1793   13.2698 N.pl3     1 RES1    0.0000
      7 C1         3.6090    4.9080   21.5962 C.ar      1 RES1    0.0000
      8 C2         4.8730    4.5150   23.4524 C.ar      1 RES1    0.0000
      9 H1         5.1595    3.9349   24.1192 H         1 RES1    0.0000
     10 C3         5.3614    5.7843   23.4583 C.ar      1 RES1    0.0000
     11 H2         5.9488    6.0629   24.1219 H         1 RES1    0.0000
     12 C4         4.9744    6.6399   22.4722 C.ar      1 RES1    0.0000
     13 H3         5.3104    7.5070   22.4372 H         1 RES1    0.0000
     14 C5         4.0759    6.1981   21.5277 C.ar      1 RES1    0.0000
     15 H4         3.7881    6.7668   20.8500 H         1 RES1    0.0000
     16 C6         2.6209    4.3767   20.6664 C.2       1 RES1    0.0000
     17 H5         2.3253    3.4993   20.7525 H         1 RES1    0.0000
     18 C7         0.6616    5.3134   17.9939 C.3       1 RES1    0.0000
     19 H6         0.6270    6.2189   18.3393 H         1 RES1    0.0000
     20 H7        -0.2424    5.0504   17.7596 H         1 RES1    0.0000
     21 C8         1.5160    5.2926   16.7567 C.ar      1 RES1    0.0000
     22 C9         1.9925    6.4590   16.1979 C.ar      1 RES1    0.0000
     23 H8         1.7865    7.2751   16.5923 H         1 RES1    0.0000
     24 C10        2.7705    6.4320   15.0606 C.ar      1 RES1    0.0000
     25 H9         3.0997    7.2200   14.6909 H         1 RES1    0.0000
     26 C11        3.0483    5.2271   14.4870 C.ar      1 RES1    0.0000
     27 C12        2.5977    4.0451   15.0257 C.ar      1 RES1    0.0000
     28 H10        2.8078    3.2321   14.6259 H         1 RES1    0.0000
     29 C13        1.8374    4.0867   16.1551 C.ar      1 RES1    0.0000
     30 H11        1.5296    3.2924   16.5300 H         1 RES1    0.0000
@<TRIPOS>BOND
     1    1    5 1
     2    2    6 2
     3    3    6 2
     4    4    7 ar
     5    5   16 2
     6    6   26 1
     7    7   14 ar
     8    8    4 ar
     9    9    8 1
    10   10    8 ar
    11   11   10 1
    12   12   10 ar
    13   13   12 1
    14   14   12 ar
    15   15   14 1
    16   16    7 1
    17   17   16 1
    18   18    1 1
    19   19   18 1
    20   20   18 1
    21   21   18 1
    22   22   21 ar
    23   23   22 1
    24   24   22 ar
    25   25   24 1
    26   26   24 ar
    27   27   26 ar
    28   28   27 1
    29   29   21 ar
    30   30   29 1
    31   27   29 ar
@<TRIPOS>SUBSTRUCTURE
     1 RES1 1

@<TRIPOS>CRYSIN
   4.5470   10.3960   27.0850  90.0000  90.0000  90.0000  19 1

