# MOL2 file generated by ConQuest
# Please check atom types

@<TRIPOS>MOLECULE
XOZZAP01
    30    31     1
SMALL
NO_CHARGES
****
Generated from CSD

@<TRIPOS>ATOM
      1 O1         1.0614    4.4671   19.0352 O.3       1 RES1    0.0000
      2 O2         3.7535    4.0650   12.6591 O.2       1 RES1    0.0000
      3 O3         4.1837    6.1426   12.7790 O.2       1 RES1    0.0000
      4 N1         2.0467    5.1706   19.7277 N.2       1 RES1    0.0000
      5 N2         3.6766    5.1396   13.2248 N.pl3     1 RES1    0.0000
      6 N3         3.9029    4.0733   22.5696 N.ar      1 RES1    0.0000
      7 C1         4.7566    4.5541   23.4853 C.ar      1 RES1    0.0000
      8 H1         5.0368    3.9697   24.1806 H         1 RES1    0.0000
      9 C2         5.2565    5.8421   23.4872 C.ar      1 RES1    0.0000
     10 H2         5.8595    6.1333   24.1616 H         1 RES1    0.0000
     11 C3         4.8512    6.6907   22.4776 C.ar      1 RES1    0.0000
     12 H3         5.1809    7.5808   22.4391 H         1 RES1    0.0000
     13 C4         3.9640    6.2379   21.5256 C.ar      1 RES1    0.0000
     14 H4         3.6695    6.8120   20.8276 H         1 RES1    0.0000
     15 C5         3.5055    4.9220   21.6025 C.ar      1 RES1    0.0000
     16 C6         2.5273    4.3697   20.6784 C.2       1 RES1    0.0000
     17 H5         2.2399    3.4661   20.7518 H         1 RES1    0.0000
     18 C7         0.5596    5.3748   18.0106 C.3       1 RES1    0.0000
     19 H6         0.5446    6.2980   18.3684 H         1 RES1    0.0000
     20 H7        -0.3687    5.1240   17.7752 H         1 RES1    0.0000
     21 C8         1.4155    5.3375   16.7691 C.ar      1 RES1    0.0000
     22 C9         1.6913    4.1168   16.1654 C.ar      1 RES1    0.0000
     23 H8         1.3615    3.3169   16.5592 H         1 RES1    0.0000
     24 C10        2.4296    4.0443   15.0154 C.ar      1 RES1    0.0000
     25 H9         2.6126    3.2070   14.6064 H         1 RES1    0.0000
     26 C11        2.9012    5.2162   14.4656 C.ar      1 RES1    0.0000
     27 C12        2.6705    6.4462   15.0341 C.ar      1 RES1    0.0000
     28 H10        3.0202    7.2379   14.6416 H         1 RES1    0.0000
     29 C13        1.9132    6.5011   16.1954 C.ar      1 RES1    0.0000
     30 H11        1.7333    7.3404   16.6025 H         1 RES1    0.0000
@<TRIPOS>BOND
     1    1    4 1
     2    2    5 2
     3    3    5 2
     4    4   16 2
     5    5   26 1
     6    6    7 ar
     7    7    8 1
     8    9    7 ar
     9   10    9 1
    10   11    9 ar
    11   12   11 1
    12   13   11 ar
    13   14   13 1
    14   15    6 ar
    15   16   15 1
    16   17   16 1
    17   18    1 1
    18   19   18 1
    19   20   18 1
    20   21   18 1
    21   22   21 ar
    22   23   22 1
    23   24   22 ar
    24   25   24 1
    25   26   24 ar
    26   27   26 ar
    27   28   27 1
    28   29   21 ar
    29   30   29 1
    30   13   15 ar
    31   27   29 ar
@<TRIPOS>SUBSTRUCTURE
     1 RES1 1

@<TRIPOS>CRYSIN
   4.4206   10.3620   27.0840  90.0000  90.0000  90.0000  19 1

