# MOL2 file generated by ConQuest
# Please check atom types

@<TRIPOS>MOLECULE
XUBDON
    40    43     1
SMALL
NO_CHARGES
****
Generated from CSD

@<TRIPOS>ATOM
      1 N1        -2.6312    3.0758    3.2889 N.pl3     1 RES1    0.0000
      2 N2        -1.5874    3.8230    2.7697 N.3       1 RES1    0.0000
      3 C1        -0.5780    3.8384    3.7044 C.ar      1 RES1    0.0000
      4 C2         0.7125    4.4492    3.6982 C.ar      1 RES1    0.0000
      5 N3         1.5140    4.2772    4.7251 N.ar      1 RES1    0.0000
      6 C3         1.1218    3.5136    5.8091 C.ar      1 RES1    0.0000
      7 C4         2.0413    3.3418    6.8668 C.ar      1 RES1    0.0000
      8 H1         2.9026    3.7385    6.8141 H         1 RES1    0.0000
      9 C5         1.6941    2.6013    7.9736 C.ar      1 RES1    0.0000
     10 H2         2.3180    2.4978    8.6825 H         1 RES1    0.0000
     11 C6         0.4325    1.9991    8.0685 C.ar      1 RES1    0.0000
     12 H3         0.2053    1.4941    8.8407 H         1 RES1    0.0000
     13 C7        -1.0095    3.0711    4.7928 C.ar      1 RES1    0.0000
     14 C8        -0.1413    2.8906    5.9014 C.ar      1 RES1    0.0000
     15 C9        -0.4779    2.1388    7.0469 C.ar      1 RES1    0.0000
     16 H4        -1.3325    1.7287    7.1119 H         1 RES1    0.0000
     17 C10       -2.3016    2.6068    4.4924 C.2       1 RES1    0.0000
     18 H5        -2.8430    2.0571    5.0475 H         1 RES1    0.0000
     19 O1        -3.7060    2.9193    2.6046 O.2       1 RES1    0.0000
     20 C11       -1.7950    4.4584    1.4775 C.3       1 RES1    0.0000
     21 H6        -2.3188    3.8473    0.9022 H         1 RES1    0.0000
     22 H7        -0.9147    4.5985    1.0462 H         1 RES1    0.0000
     23 C12       -2.5123    5.7844    1.5584 C.ar      1 RES1    0.0000
     24 C13       -3.1502    6.2696    0.4225 C.ar      1 RES1    0.0000
     25 H8        -3.1490    5.7538   -0.3751 H         1 RES1    0.0000
     26 C14       -3.7869    7.4982    0.4454 C.ar      1 RES1    0.0000
     27 H9        -4.2151    7.8253   -0.3373 H         1 RES1    0.0000
     28 C15       -3.7992    8.2551    1.6137 C.ar      1 RES1    0.0000
     29 H10       -4.2430    9.0947    1.6339 H         1 RES1    0.0000
     30 C16       -3.1633    7.7780    2.7469 C.ar      1 RES1    0.0000
     31 H11       -3.1654    8.2939    3.5445 H         1 RES1    0.0000
     32 C17       -2.5257    6.5528    2.7188 C.ar      1 RES1    0.0000
     33 H12       -2.0914    6.2319    3.5006 H         1 RES1    0.0000
     34 C18        1.1967    5.2940    2.5405 C.3       1 RES1    0.0000
     35 H13        0.5643    6.0444    2.4096 H         1 RES1    0.0000
     36 H14        1.1806    4.7431    1.7182 H         1 RES1    0.0000
     37 C19        2.5926    5.8628    2.7153 C.3       1 RES1    0.0000
     38 H15        2.8383    6.3767    1.9185 H         1 RES1    0.0000
     39 H16        3.2310    5.1293    2.8400 H         1 RES1    0.0000
     40 H17        2.6108    6.4482    3.5006 H         1 RES1    0.0000
@<TRIPOS>BOND
     1    1    2 1
     2    2    3 1
     3    3    4 ar
     4    4    5 ar
     5    5    6 ar
     6    6    7 ar
     7    7    8 1
     8    9    7 ar
     9   10    9 1
    10   11    9 ar
    11   12   11 1
    12   13    3 ar
    13   14    6 ar
    14   15   11 ar
    15   16   15 1
    16   17    1 2
    17   18   17 1
    18   19    1 1
    19   20    2 1
    20   21   20 1
    21   22   20 1
    22   23   20 1
    23   24   23 ar
    24   25   24 1
    25   26   24 ar
    26   27   26 1
    27   28   26 ar
    28   29   28 1
    29   30   28 ar
    30   31   30 1
    31   32   23 ar
    32   33   32 1
    33   34    4 1
    34   35   34 1
    35   36   34 1
    36   37   34 1
    37   38   37 1
    38   39   37 1
    39   40   37 1
    40   13   14 ar
    41   13   17 1
    42   14   15 ar
    43   30   32 ar
@<TRIPOS>SUBSTRUCTURE
     1 RES1 1

@<TRIPOS>CRYSIN
   9.1214    9.4197    9.6335  66.0580  84.0080  83.9310   2 1

