# MOL2 file generated by ConQuest
# Please check atom types

@<TRIPOS>MOLECULE
XUBGUX
    58    60     1
SMALL
NO_CHARGES
****
Generated from CSD

@<TRIPOS>ATOM
      1 O1        -3.0383    3.1705   -1.2621 O.2       1 RES1    0.0000
      2 O2        -1.1580    2.1903   -0.8399 O.2       1 RES1    0.0000
      3 O3        -1.4847    4.6978    6.4826 O.2       1 RES1    0.0000
      4 O4         0.4106    4.6066    7.6810 O.3       1 RES1    0.0000
      5 O5         2.3570    3.5469    5.4631 O.2       1 RES1    0.0000
      6 O6         3.4861    4.4306    7.1946 O.3       1 RES1    0.0000
      7 N1        -2.0316    3.0092   -0.5755 N.pl3     1 RES1    0.0000
      8 N2         0.7544    7.2974    3.8832 N.3       1 RES1    0.0000
      9 H1         0.4307    7.6071    3.1255 H         1 RES1    0.0000
     10 C1        -0.5556    4.4956    2.5109 C.ar      1 RES1    0.0000
     11 H2         0.2241    4.4039    3.0452 H         1 RES1    0.0000
     12 C2        -0.7203    3.6884    1.3912 C.ar      1 RES1    0.0000
     13 H3        -0.0670    3.0385    1.1623 H         1 RES1    0.0000
     14 C3        -1.8555    3.8506    0.6171 C.ar      1 RES1    0.0000
     15 C4        -2.8334    4.7833    0.9274 C.ar      1 RES1    0.0000
     16 H4        -3.6037    4.8808    0.3787 H         1 RES1    0.0000
     17 C5        -2.6612    5.5705    2.0568 C.ar      1 RES1    0.0000
     18 H5        -3.3259    6.2078    2.2879 H         1 RES1    0.0000
     19 C6        -1.5231    5.4401    2.8601 C.ar      1 RES1    0.0000
     20 C7        -1.4026    6.3163    4.0920 C.3       1 RES1    0.0000
     21 H6        -1.7483    7.2182    3.8777 H         1 RES1    0.0000
     22 H7        -1.9718    5.9387    4.8096 H         1 RES1    0.0000
     23 C8         0.0099    6.4476    4.6104 C.2       1 RES1    0.0000
     24 C9         2.0770    7.7213    4.3075 C.3       1 RES1    0.0000
     25 H8         1.9936    8.4436    4.9788 H         1 RES1    0.0000
     26 H9         2.5754    8.0794    3.5304 H         1 RES1    0.0000
     27 C10        2.8427    6.5532    4.9083 C.3       1 RES1    0.0000
     28 H10        2.9920    5.8783    4.1848 H         1 RES1    0.0000
     29 C11        2.0122    5.8740    6.0329 C.3       1 RES1    0.0000
     30 H11        2.1253    6.3844    6.8863 H         1 RES1    0.0000
     31 C12        0.5320    5.7742    5.6936 C.2       1 RES1    0.0000
     32 C13       -0.2987    4.9954    6.5941 C.2       1 RES1    0.0000
     33 C14       -0.3140    3.8196    8.6668 C.3       1 RES1    0.0000
     34 H12       -0.6603    2.9872    8.2579 H         1 RES1    0.0000
     35 H13       -1.0783    4.3362    9.0258 H         1 RES1    0.0000
     36 C15        0.6626    3.4979    9.7620 C.3       1 RES1    0.0000
     37 H14        1.4178    2.9973    9.3888 H         1 RES1    0.0000
     38 H15        0.2180    2.9570   10.4481 H         1 RES1    0.0000
     39 H16        0.9885    4.3307   10.1636 H         1 RES1    0.0000
     40 C16        2.6089    4.4807    6.1915 C.2       1 RES1    0.0000
     41 C17        4.2208    3.1849    7.4082 C.3       1 RES1    0.0000
     42 H17        3.8766    2.4829    6.8007 H         1 RES1    0.0000
     43 H18        4.0972    2.8765    8.3417 H         1 RES1    0.0000
     44 C18        5.6604    3.4210    7.1424 C.3       1 RES1    0.0000
     45 H19        5.7804    3.6855    6.2057 H         1 RES1    0.0000
     46 H20        6.1641    2.5983    7.3173 H         1 RES1    0.0000
     47 H21        5.9878    4.1349    7.7274 H         1 RES1    0.0000
     48 C19        4.2036    7.0263    5.3956 C.ar      1 RES1    0.0000
     49 C20        5.3652    6.5255    4.8260 C.ar      1 RES1    0.0000
     50 H22        5.3086    5.8463    4.1639 H         1 RES1    0.0000
     51 C21        6.6139    7.0068    5.2132 C.ar      1 RES1    0.0000
     52 H23        7.4005    6.6535    4.8148 H         1 RES1    0.0000
     53 C22        6.7138    7.9890    6.1681 C.ar      1 RES1    0.0000
     54 H24        7.5670    8.3274    6.4151 H         1 RES1    0.0000
     55 C23        5.5677    8.4857    6.7719 C.ar      1 RES1    0.0000
     56 H25        5.6326    9.1511    7.4464 H         1 RES1    0.0000
     57 C24        4.3214    8.0031    6.3840 C.ar      1 RES1    0.0000
     58 H26        3.5386    8.3448    6.7990 H         1 RES1    0.0000
@<TRIPOS>BOND
     1    1    7 2
     2    2    7 2
     3    3   32 2
     4    4   32 1
     5    5   40 2
     6    6   40 1
     7    7   14 1
     8    8    9 1
     9   10   11 1
    10   12   10 ar
    11   13   12 1
    12   14   12 ar
    13   15   14 ar
    14   16   15 1
    15   17   15 ar
    16   18   17 1
    17   19   10 ar
    18   20   19 1
    19   21   20 1
    20   22   20 1
    21   23    8 1
    22   24    8 1
    23   25   24 1
    24   26   24 1
    25   27   24 1
    26   28   27 1
    27   29   27 1
    28   30   29 1
    29   31   23 2
    30   32   31 1
    31   33    4 1
    32   34   33 1
    33   35   33 1
    34   36   33 1
    35   37   36 1
    36   38   36 1
    37   39   36 1
    38   40   29 1
    39   41    6 1
    40   42   41 1
    41   43   41 1
    42   44   41 1
    43   45   44 1
    44   46   44 1
    45   47   44 1
    46   48   27 1
    47   49   48 ar
    48   50   49 1
    49   51   49 ar
    50   52   51 1
    51   53   51 ar
    52   54   53 1
    53   55   53 ar
    54   56   55 1
    55   57   48 ar
    56   58   57 1
    57   17   19 ar
    58   20   23 1
    59   29   31 1
    60   55   57 ar
@<TRIPOS>SUBSTRUCTURE
     1 RES1 1

@<TRIPOS>CRYSIN
  13.7020    9.1520   17.9580  90.0000 103.6440  90.0000  14 1

