# MOL2 file generated by ConQuest
# Please check atom types

@<TRIPOS>MOLECULE
XUBHAE
    53    52     2
SMALL
NO_CHARGES
****
Generated from CSD

@<TRIPOS>ATOM
      1 O1        -0.5724    5.4727    2.3913 O.2       1 RES1    0.0000
      2 O2         1.6541    5.4370    2.1042 O.3       1 RES1    0.0000
      3 O3         4.3077    5.7842    3.8992 O.2       1 RES1    0.0000
      4 O4         2.4711    4.9647    4.9236 O.3       1 RES1    0.0000
      5 O5        -3.4400    2.6442    7.9251 O.2       1 RES1    0.0000
      6 H1        -3.5645    1.9448    7.4757 Du        2 SUP2    0.0000
      7 O6        -5.3140    3.6816    7.6753 O.2       1 RES1    0.0000
      8 H2        -5.7129    2.9694    7.4789 Du        2 SUP2    0.0000
      9 N1        -4.1171    3.5494    7.4655 N.pl3     1 RES1    0.0000
     10 C1        -3.4485    4.5527    6.6331 C.ar      1 RES1    0.0000
     11 C2        -2.0900    4.4759    6.4368 C.ar      1 RES1    0.0000
     12 H3        -1.5819    3.7840    6.8457 H         1 RES1    0.0000
     13 C3        -1.4726    5.4217    5.6336 C.ar      1 RES1    0.0000
     14 H4        -0.5345    5.3790    5.4959 H         1 RES1    0.0000
     15 C4        -2.2119    6.4367    5.0252 C.ar      1 RES1    0.0000
     16 C5        -3.5800    6.4826    5.2566 C.ar      1 RES1    0.0000
     17 H5        -4.0950    7.1692    4.8483 H         1 RES1    0.0000
     18 C6        -4.2111    5.5614    6.0609 C.ar      1 RES1    0.0000
     19 H6        -5.1471    5.6136    6.2206 H         1 RES1    0.0000
     20 C7        -1.5977    7.4720    4.0984 C.3       1 RES1    0.0000
     21 H7        -1.7687    7.1980    3.1625 H         1 RES1    0.0000
     22 H8        -2.0569    8.3367    4.2440 H         1 RES1    0.0000
     23 C8        -0.1176    7.6810    4.2738 C.2       1 RES1    0.0000
     24 C9         0.8586    6.9048    3.6928 C.2       1 RES1    0.0000
     25 C10        2.3188    7.1415    4.0239 C.3       1 RES1    0.0000
     26 H9         2.7270    7.6746    3.2831 H         1 RES1    0.0000
     27 C11        2.4505    7.9486    5.3344 C.3       1 RES1    0.0000
     28 H10        2.2042    7.3739    6.1017 H         1 RES1    0.0000
     29 H11        3.3908    8.2333    5.4541 H         1 RES1    0.0000
     30 C12        1.5529    9.1662    5.3075 C.3       1 RES1    0.0000
     31 H12        1.8278    9.7484    4.5413 H         1 RES1    0.0000
     32 N2         0.1878    8.7152    5.0834 N.3       1 RES1    0.0000
     33 H13       -0.4673    9.1353    5.4943 H         1 RES1    0.0000
     34 C13        3.1490    5.8951    4.2270 C.2       1 RES1    0.0000
     35 C14        3.2458    3.7786    5.2854 C.3       1 RES1    0.0000
     36 H14        4.1353    4.0409    5.6325 H         1 RES1    0.0000
     37 H15        3.3737    3.1965    4.4947 H         1 RES1    0.0000
     38 C15        2.4835    3.0728    6.3219 C.3       1 RES1    0.0000
     39 H16        2.4136    3.6390    7.1189 H         1 RES1    0.0000
     40 H17        2.9416    2.2380    6.5533 H         1 RES1    0.0000
     41 H18        1.5850    2.8702    5.9860 H         1 RES1    0.0000
     42 C16        0.5299    5.8972    2.6984 C.2       1 RES1    0.0000
     43 C17        1.4942    4.4440    1.0574 C.3       1 RES1    0.0000
     44 H19        1.2683    4.8822    0.1993 H         1 RES1    0.0000
     45 H20        0.7681    3.8128    1.2904 H         1 RES1    0.0000
     46 C18        2.8057    3.7125    0.9417 C.3       1 RES1    0.0000
     47 H21        3.5220    4.3544    0.7553 H         1 RES1    0.0000
     48 H22        2.7520    3.0611    0.2105 H         1 RES1    0.0000
     49 H23        2.9949    3.2455    1.7821 H         1 RES1    0.0000
     50 C19        1.6187    9.9776    6.5758 C.3       1 RES1    0.0000
     51 H24        1.0227   10.7527    6.5002 H         1 RES1    0.0000
     52 H25        2.5369   10.2857    6.7204 H         1 RES1    0.0000
     53 H26        1.3372    9.4232    7.3343 H         1 RES1    0.0000
@<TRIPOS>BOND
     1    1   42 2
     2    2   42 1
     3    3   34 2
     4    4   34 1
     5    5    9 2
     6    7    9 2
     7    9   10 1
     8   10   11 ar
     9   11   12 1
    10   13   11 ar
    11   14   13 1
    12   15   13 ar
    13   16   15 ar
    14   17   16 1
    15   18   10 ar
    16   19   18 1
    17   20   15 1
    18   21   20 1
    19   22   20 1
    20   23   20 1
    21   24   23 2
    22   25   24 1
    23   26   25 1
    24   27   25 1
    25   28   27 1
    26   29   27 1
    27   30   27 1
    28   31   30 1
    29   32   23 1
    30   33   32 1
    31   34   25 1
    32   35    4 1
    33   36   35 1
    34   37   35 1
    35   38   35 1
    36   39   38 1
    37   40   38 1
    38   41   38 1
    39   42   24 1
    40   43    2 1
    41   44   43 1
    42   45   43 1
    43   46   43 1
    44   47   46 1
    45   48   46 1
    46   49   46 1
    47   50   30 1
    48   51   50 1
    49   52   50 1
    50   53   50 1
    51   16   18 ar
    52   30   32 1
@<TRIPOS>SUBSTRUCTURE
     1 RES1 1
     2 SUP2 6

@<TRIPOS>CRYSIN
  11.1150   10.6621   16.8080  90.0000 107.0440  90.0000  14 1

