# MOL2 file generated by ConQuest
# Please check atom types

@<TRIPOS>MOLECULE
XUBMEM
    51    52     1
SMALL
NO_CHARGES
****
Generated from CSD

@<TRIPOS>ATOM
      1 O1         4.9019    1.7071    3.7866 O.3       1 RES1    0.0000
      2 O2         5.9669    0.3657    5.3415 O.3       1 RES1    0.0000
      3 H1         6.5754    0.0119    4.8822 H         1 RES1    0.0000
      4 O3         7.0681    3.5500    4.2217 O.3       1 RES1    0.0000
      5 O4         8.0864    1.5484    4.2368 O.2       1 RES1    0.0000
      6 O5         3.1061    4.1179    7.1688 O.3       1 RES1    0.0000
      7 O6         1.5318    3.6283    5.6205 O.2       1 RES1    0.0000
      8 O7         7.3438    3.3344    9.3922 O.2       1 RES1    0.0000
      9 O8         7.5519    2.8529    7.2849 O.2       1 RES1    0.0000
     10 N1         6.9738    2.7588    8.3677 N.pl3     1 RES1    0.0000
     11 C1         5.7934    1.6692    4.9481 C.3       1 RES1    0.0000
     12 C2         5.0724    2.5075    6.0569 C.3       1 RES1    0.0000
     13 H2         5.5696    3.3613    6.2131 H         1 RES1    0.0000
     14 C3         3.7487    2.7998    5.3976 C.2       1 RES1    0.0000
     15 C4         3.7313    2.3167    4.1469 C.2       1 RES1    0.0000
     16 C5         7.1226    2.2486    4.4401 C.2       1 RES1    0.0000
     17 C6         8.3139    4.1519    3.7192 C.3       1 RES1    0.0000
     18 H3         8.4882    3.8520    2.7916 H         1 RES1    0.0000
     19 H4         9.0779    3.8782    4.2857 H         1 RES1    0.0000
     20 C7         8.1477    5.6368    3.7590 C.3       1 RES1    0.0000
     21 H5         7.3762    5.8936    3.2127 H         1 RES1    0.0000
     22 H6         8.9555    6.0651    3.4066 H         1 RES1    0.0000
     23 H7         8.0027    5.9245    4.6848 H         1 RES1    0.0000
     24 C8         2.6798    2.3126    3.1030 C.3       1 RES1    0.0000
     25 H8         2.2210    1.4460    3.1048 H         1 RES1    0.0000
     26 H9         3.0900    2.4632    2.2257 H         1 RES1    0.0000
     27 H10        2.0325    3.0254    3.2882 H         1 RES1    0.0000
     28 C9         2.6580    3.5383    6.0412 C.2       1 RES1    0.0000
     29 C10        2.1680    4.7258    8.1386 C.3       1 RES1    0.0000
     30 C11        1.2294    3.6610    8.6375 C.3       1 RES1    0.0000
     31 H11        0.6822    3.3327    7.8931 H         1 RES1    0.0000
     32 H12        0.6468    4.0378    9.3302 H         1 RES1    0.0000
     33 H13        1.7476    2.9182    9.0143 H         1 RES1    0.0000
     34 C12        3.0891    5.1913    9.2381 C.3       1 RES1    0.0000
     35 H14        3.6027    4.4285    9.5785 H         1 RES1    0.0000
     36 H15        2.5592    5.5791    9.9653 H         1 RES1    0.0000
     37 H16        3.7044    5.8674    8.8845 H         1 RES1    0.0000
     38 C13        1.4358    5.8993    7.5227 C.3       1 RES1    0.0000
     39 H17        2.0867    6.5344    7.1588 H         1 RES1    0.0000
     40 H18        0.8943    6.3414    8.2081 H         1 RES1    0.0000
     41 H19        0.8536    5.5791    6.8027 H         1 RES1    0.0000
     42 C14        4.9360    1.7423    7.3659 C.ar      1 RES1    0.0000
     43 C15        5.7920    1.8929    8.4589 C.ar      1 RES1    0.0000
     44 C16        5.6077    1.2383    9.6737 C.ar      1 RES1    0.0000
     45 H20        6.2017    1.3936   10.3987 H         1 RES1    0.0000
     46 C17        4.5516    0.3616    9.8106 C.ar      1 RES1    0.0000
     47 H21        4.4159   -0.1048   10.6277 H         1 RES1    0.0000
     48 C18        3.6894    0.1672    8.7397 C.ar      1 RES1    0.0000
     49 H22        2.9662   -0.4431    8.8231 H         1 RES1    0.0000
     50 C19        3.8730    0.8569    7.5478 C.ar      1 RES1    0.0000
     51 H23        3.2578    0.7218    6.8369 H         1 RES1    0.0000
@<TRIPOS>BOND
     1    1   11 1
     2    2    3 1
     3    4   16 1
     4    5   16 2
     5    6   28 1
     6    7   28 2
     7    8   10 2
     8    9   10 2
     9   10   43 1
    10   11    2 1
    11   12   11 1
    12   13   12 1
    13   14   12 1
    14   15    1 1
    15   16   11 1
    16   17    4 1
    17   18   17 1
    18   19   17 1
    19   20   17 1
    20   21   20 1
    21   22   20 1
    22   23   20 1
    23   24   15 1
    24   25   24 1
    25   26   24 1
    26   27   24 1
    27   28   14 1
    28   29    6 1
    29   30   29 1
    30   31   30 1
    31   32   30 1
    32   33   30 1
    33   34   29 1
    34   35   34 1
    35   36   34 1
    36   37   34 1
    37   38   29 1
    38   39   38 1
    39   40   38 1
    40   41   38 1
    41   42   12 1
    42   43   42 ar
    43   44   43 ar
    44   45   44 1
    45   46   44 ar
    46   47   46 1
    47   48   46 ar
    48   49   48 1
    49   50   42 ar
    50   51   50 1
    51   14   15 2
    52   48   50 ar
@<TRIPOS>SUBSTRUCTURE
     1 RES1 1

@<TRIPOS>CRYSIN
   9.4778   23.8220    9.2679  90.0000 108.8070  90.0000  14 1

