# MOL2 file generated by ConQuest
# Please check atom types

@<TRIPOS>MOLECULE
XUBMIQ
    36    37     1
SMALL
NO_CHARGES
****
Generated from CSD

@<TRIPOS>ATOM
      1 O1         2.4755    8.9371    4.4325 O.3       1 RES1    0.0000
      2 C1         2.7294    7.8394    5.1864 C.2       1 RES1    0.0000
      3 C2         2.5964    6.6842    4.5067 C.2       1 RES1    0.0000
      4 C3         2.2327    6.9894    3.0651 C.3       1 RES1    0.0000
      5 H1         1.4192    6.4719    2.8005 H         1 RES1    0.0000
      6 C4         1.8964    8.4955    3.1493 C.3       1 RES1    0.0000
      7 H2         2.3551    8.9749    2.4008 H         1 RES1    0.0000
      8 C5         3.1159    8.1265    6.5933 C.3       1 RES1    0.0000
      9 H3         2.3092    8.2003    7.1455 H         1 RES1    0.0000
     10 H4         3.6150    8.9695    6.6300 H         1 RES1    0.0000
     11 H5         3.6783    7.3994    6.9325 H         1 RES1    0.0000
     12 C6         2.8083    5.3588    5.0402 C.2       1 RES1    0.0000
     13 C7         2.9931    3.0561    4.4304 C.3       1 RES1    0.0000
     14 H6         2.2296    2.6521    4.9140 H         1 RES1    0.0000
     15 H7         3.7916    3.0184    5.0145 H         1 RES1    0.0000
     16 C8         3.2484    2.3212    3.1535 C.3       1 RES1    0.0000
     17 H8         2.4478    2.3587    2.5897 H         1 RES1    0.0000
     18 H9         3.4633    1.3851    3.3521 H         1 RES1    0.0000
     19 H10        4.0005    2.7359    2.6815 H         1 RES1    0.0000
     20 C9         3.3717    6.7082    2.0893 C.ar      1 RES1    0.0000
     21 C10        3.2010    6.3516    0.7520 C.ar      1 RES1    0.0000
     22 C11        4.2538    6.0963   -0.1047 C.ar      1 RES1    0.0000
     23 H11        4.0894    5.8370   -1.0038 H         1 RES1    0.0000
     24 C12        5.5485    6.2227    0.3600 C.ar      1 RES1    0.0000
     25 H12        6.2846    6.0644   -0.2195 H         1 RES1    0.0000
     26 C13        5.7584    6.5796    1.6723 C.ar      1 RES1    0.0000
     27 H13        6.6459    6.6770    1.9977 H         1 RES1    0.0000
     28 C14        4.6921    6.7993    2.5193 C.ar      1 RES1    0.0000
     29 H14        4.8645    7.0199    3.4275 H         1 RES1    0.0000
     30 O2         0.5527    8.8175    3.1366 O.3       1 RES1    0.0000
     31 H15        0.1292    8.2707    3.6132 H         1 RES1    0.0000
     32 O3         2.6936    4.4326    4.0753 O.3       1 RES1    0.0000
     33 O4         3.0761    5.0800    6.2022 O.2       1 RES1    0.0000
     34 O5         1.0074    7.0741    0.5412 O.2       1 RES1    0.0000
     35 O6         1.6719    5.4636   -0.7480 O.2       1 RES1    0.0000
     36 N1         1.8612    6.2778    0.1503 N.pl3     1 RES1    0.0000
@<TRIPOS>BOND
     1    1    2 1
     2    2    3 2
     3    3    4 1
     4    4    5 1
     5    6    1 1
     6    7    6 1
     7    8    2 1
     8    9    8 1
     9   10    8 1
    10   11    8 1
    11   12    3 1
    12   13   14 1
    13   15   13 1
    14   16   13 1
    15   17   16 1
    16   18   16 1
    17   19   16 1
    18   20    4 1
    19   21   20 ar
    20   22   21 ar
    21   23   22 1
    22   24   22 ar
    23   25   24 1
    24   26   24 ar
    25   27   26 1
    26   28   20 ar
    27   29   28 1
    28   30    6 1
    29   31   30 1
    30   32   12 1
    31   33   12 2
    32   34   36 2
    33   35   36 2
    34   36   21 1
    35    4    6 1
    36   13   32 1
    37   26   28 ar
@<TRIPOS>SUBSTRUCTURE
     1 RES1 1

@<TRIPOS>CRYSIN
   7.8419    8.4750   11.5750  70.9410  88.6010  76.3460   2 1

