# MOL2 file generated by ConQuest
# Please check atom types

@<TRIPOS>MOLECULE
XUCJEM01
    14    14     1
SMALL
NO_CHARGES
****
Generated from CSD

@<TRIPOS>ATOM
      1 N1        -2.2270   -0.8008   -3.2857 N.2       1 RES1    0.0000
      2 N2        -0.9027   -0.4535   -1.2668 N.pl3     1 RES1    0.0000
      3 O1        -0.2792    0.3478   -0.5698 O.2       1 RES1    0.0000
      4 O2        -0.9947   -1.6628   -1.0072 O.2       1 RES1    0.0000
      5 C1        -1.5868    1.3638   -2.8544 C.2       1 RES1    0.0000
      6 H1        -1.1994    2.1222   -2.4344 H         1 RES1    0.0000
      7 N3        -2.3035    1.3181   -4.0177 N.pl3     1 RES1    0.0000
      8 C2        -2.6524    2.4333   -4.9076 C.3       1 RES1    0.0000
      9 H2        -1.8341    2.8174   -5.2858 H         1 RES1    0.0000
     10 H3        -3.1306    3.1202   -4.3983 H         1 RES1    0.0000
     11 H4        -3.2253    2.1058   -5.6321 H         1 RES1    0.0000
     12 C3        -2.6647    0.0118   -4.2255 C.2       1 RES1    0.0000
     13 H5        -3.1778   -0.2774   -4.9712 H         1 RES1    0.0000
     14 C4        -1.5589    0.0512   -2.4332 C.2       1 RES1    0.0000
@<TRIPOS>BOND
     1    1   12 2
     2    2    3 2
     3    4    2 2
     4    5    6 1
     5    7    5 1
     6    8    7 1
     7    9    8 1
     8   10    8 1
     9   11    8 1
    10   12    7 1
    11   13   12 1
    12   14    1 1
    13    2   14 1
    14    5   14 2
@<TRIPOS>SUBSTRUCTURE
     1 RES1 1

@<TRIPOS>CRYSIN
   3.8976    5.7235    6.2670  89.6300  84.8000  76.9700   1 1

