# MOL2 file generated by ConQuest
# Please check atom types

@<TRIPOS>MOLECULE
XUCJEM
    14    14     1
SMALL
NO_CHARGES
****
Generated from CSD

@<TRIPOS>ATOM
      1 O1         3.9569   -2.4530    2.0148 O.2       1 RES1    0.0000
      2 O2         1.8664   -1.9225    1.9196 O.2       1 RES1    0.0000
      3 N1         3.0524   -1.6343    1.8921 N.pl3     1 RES1    0.0000
      4 N2         2.4804    0.6922    1.5835 N.2       1 RES1    0.0000
      5 N3         4.5211    1.5482    1.4213 N.pl3     1 RES1    0.0000
      6 C1         5.5628    2.5594    1.2362 C.3       1 RES1    0.0000
      7 H1         5.1553    3.4199    1.1154 H         1 RES1    0.0000
      8 H2         6.0860    2.3409    0.4609 H         1 RES1    0.0000
      9 H3         6.1302    2.5791    2.0102 H         1 RES1    0.0000
     10 C2         4.6898    0.2125    1.6203 C.2       1 RES1    0.0000
     11 H4         5.4879   -0.2604    1.6787 H         1 RES1    0.0000
     12 C3         3.4310   -0.2667    1.7128 C.2       1 RES1    0.0000
     13 C4         3.1976    1.7777    1.4082 C.2       1 RES1    0.0000
     14 H5         2.8261    2.6222    1.2881 H         1 RES1    0.0000
@<TRIPOS>BOND
     1    1    3 2
     2    2    3 2
     3    3   12 1
     4    4   12 1
     5    5    6 1
     6    6    7 1
     7    8    6 1
     8    9    6 1
     9   10    5 1
    10   11   10 1
    11   12   10 2
    12   13    4 2
    13   14   13 1
    14    5   13 1
@<TRIPOS>SUBSTRUCTURE
     1 RES1 1

@<TRIPOS>CRYSIN
   5.8223   14.8820    6.5873  90.0000  94.7050  90.0000  14 1

