# MOL2 file generated by ConQuest
# Please check atom types

@<TRIPOS>MOLECULE
XUDMAM
    33    35     1
SMALL
NO_CHARGES
****
Generated from CSD

@<TRIPOS>ATOM
      1 O1         2.4034    8.0041   12.8852 O.3       1 RES1    0.0000
      2 H1         3.1966    7.8522   12.7416 H         1 RES1    0.0000
      3 N1         0.5029   10.8109    9.9962 N.2       1 RES1    0.0000
      4 N2         1.1161   11.4000   11.1076 N.pl3     1 RES1    0.0000
      5 N3         2.3561   10.7845   13.0168 N.pl3     1 RES1    0.0000
      6 H2         2.4635   11.6048   13.2525 H         1 RES1    0.0000
      7 H3         2.6900   10.1524   13.4946 H         1 RES1    0.0000
      8 N4         1.7669    8.0074   11.7838 N.2       1 RES1    0.0000
      9 C1        -0.9610    6.9580    7.1633 C.ar      1 RES1    0.0000
     10 H4        -1.3274    6.3965    6.5191 H         1 RES1    0.0000
     11 C2        -0.4427    6.4361    8.3024 C.ar      1 RES1    0.0000
     12 H5        -0.4571    5.5156    8.4368 H         1 RES1    0.0000
     13 C3         0.1084    7.2598    9.2666 C.ar      1 RES1    0.0000
     14 H6         0.4651    6.8854   10.0388 H         1 RES1    0.0000
     15 C4         0.1363    8.6185    9.0992 C.ar      1 RES1    0.0000
     16 C5         0.6851    9.5204   10.1231 C.2       1 RES1    0.0000
     17 C6         0.9898   12.8161   11.3038 C.ar      1 RES1    0.0000
     18 C7         1.7123   13.6727   10.5476 C.ar      1 RES1    0.0000
     19 H7         2.2955   13.3490    9.8991 H         1 RES1    0.0000
     20 C8         1.5768   15.0381   10.7449 C.ar      1 RES1    0.0000
     21 H8         2.0789   15.6316   10.2351 H         1 RES1    0.0000
     22 C9         0.7122   15.5149   11.6814 C.ar      1 RES1    0.0000
     23 H9         0.6229   16.4311   11.8115 H         1 RES1    0.0000
     24 C10       -0.9466    8.3157    6.9638 C.ar      1 RES1    0.0000
     25 H10       -1.3030    8.6780    6.1852 H         1 RES1    0.0000
     26 C11       -0.4010    9.1416    7.9280 C.ar      1 RES1    0.0000
     27 H11       -0.3931   10.0610    7.7926 H         1 RES1    0.0000
     28 C12        1.6787   10.4971   11.9246 C.2       1 RES1    0.0000
     29 C13        1.4190    9.2231   11.3305 C.2       1 RES1    0.0000
     30 C14       -0.0159   14.6483   12.4216 C.ar      1 RES1    0.0000
     31 H12       -0.6067   14.9710   13.0637 H         1 RES1    0.0000
     32 C15        0.1150   13.2895   12.2307 C.ar      1 RES1    0.0000
     33 H13       -0.3959   12.6982   12.7341 H         1 RES1    0.0000
@<TRIPOS>BOND
     1    1    2 1
     2    3    4 1
     3    4   17 1
     4    5    6 1
     5    7    5 1
     6    8    1 1
     7    9   10 1
     8   11    9 ar
     9   12   11 1
    10   13   11 ar
    11   14   13 1
    12   15   13 ar
    13   16    3 2
    14   17   18 ar
    15   18   19 1
    16   20   18 ar
    17   21   20 1
    18   22   20 ar
    19   23   22 1
    20   24    9 ar
    21   25   24 1
    22   26   15 ar
    23   27   26 1
    24   28    4 1
    25   29    8 un
    26   30   22 ar
    27   31   30 1
    28   32   17 ar
    29   33   32 1
    30    5   28 1
    31   15   16 1
    32   16   29 1
    33   24   26 ar
    34   28   29 un
    35   30   32 ar
@<TRIPOS>SUBSTRUCTURE
     1 RES1 1

@<TRIPOS>CRYSIN
  11.1479   11.0113   10.8911  90.0000 101.6690  90.0000  14 1

