# MOL2 file generated by ConQuest
# Please check atom types

@<TRIPOS>MOLECULE
XUDRUL
    24    25     1
SMALL
NO_CHARGES
****
Generated from CSD

@<TRIPOS>ATOM
      1 O1         2.7556    5.0601    6.5493 O.2       1 RES1    0.0000
      2 O2         1.3730    4.2801    5.0672 O.2       1 RES1    0.0000
      3 O3        -0.9088    3.2765    6.6362 O.2       1 RES1    0.0000
      4 O4        -2.0635    1.9659    5.3443 O.2       1 RES1    0.0000
      5 N1        -0.9863    7.3405    6.4402 N.3       1 RES1    0.0000
      6 N2        -0.0124    7.8533    7.2233 N.2       1 RES1    0.0000
      7 N3         1.0273    7.0647    7.1499 N.2       1 RES1    0.0000
      8 N4        -1.9435    6.1632    3.8743 N.2       1 RES1    0.0000
      9 N5        -2.6070    5.2414    3.1856 N.3       1 RES1    0.0000
     10 N6        -2.5618    4.0134    3.6617 N.2       1 RES1    0.0000
     11 N7         1.6793    5.0594    5.9632 N.pl3     1 RES1    0.0000
     12 N8        -1.5769    3.0484    5.6362 N.pl3     1 RES1    0.0000
     13 C1         0.7065    6.0535    6.3267 C.2       1 RES1    0.0000
     14 C2        -0.5764    6.1950    5.8537 C.2       1 RES1    0.0000
     15 C3        -1.4021    5.4848    4.8924 C.2       1 RES1    0.0000
     16 C4        -1.8032    4.1583    4.7468 C.2       1 RES1    0.0000
     17 C5        -2.2735    8.0184    6.3392 C.3       1 RES1    0.0000
     18 H1        -2.2753    8.8048    6.9248 H         1 RES1    0.0000
     19 H2        -2.9880    7.4059    6.6136 H         1 RES1    0.0000
     20 H3        -2.4225    8.3004    5.4122 H         1 RES1    0.0000
     21 C6        -3.3364    5.6045    1.9747 C.3       1 RES1    0.0000
     22 H4        -4.1004    6.1712    2.2118 H         1 RES1    0.0000
     23 H5        -3.6565    4.7920    1.5298 H         1 RES1    0.0000
     24 H6        -2.7417    6.0943    1.3703 H         1 RES1    0.0000
@<TRIPOS>BOND
     1    1   11 2
     2    2   11 2
     3    3   12 2
     4    4   12 2
     5    5    6 1
     6    6    7 2
     7    7   13 1
     8    8    9 1
     9    9   10 1
    10   10   16 2
    11   11   13 1
    12   12   16 1
    13   13   14 2
    14   14    5 1
    15   15    8 2
    16   16   15 1
    17   17    5 1
    18   18   17 1
    19   19   17 1
    20   20   17 1
    21   21    9 1
    22   22   21 1
    23   23   21 1
    24   24   21 1
    25   14   15 1
@<TRIPOS>SUBSTRUCTURE
     1 RES1 1

@<TRIPOS>CRYSIN
   6.9236    9.3758   15.9429  90.0000 101.1440  90.0000  14 1

