# MOL2 file generated by ConQuest
# Please check atom types

@<TRIPOS>MOLECULE
XUFFEL
    62    65     1
SMALL
NO_CHARGES
****
Generated from CSD

@<TRIPOS>ATOM
      1 C1         4.7795   10.6450    6.7819 C.3       1 RES1    0.0000
      2 H1         4.4567    9.9141    7.3666 H         1 RES1    0.0000
      3 H2         4.5797   10.3984    5.8440 H         1 RES1    0.0000
      4 C2         4.0521   11.9301    7.1326 C.3       1 RES1    0.0000
      5 H3         3.0754   11.7788    7.0895 H         1 RES1    0.0000
      6 H4         4.2831   12.6309    6.4724 H         1 RES1    0.0000
      7 C3         4.4334   12.4083    8.5373 C.3       1 RES1    0.0000
      8 H5         4.0496   13.3242    8.6529 H         1 RES1    0.0000
      9 C4         5.9660   12.5235    8.7444 C.3       1 RES1    0.0000
     10 H6         6.0879   12.5367    9.7364 H         1 RES1    0.0000
     11 C5         6.7172   11.2378    8.2697 C.3       1 RES1    0.0000
     12 H7         7.6703   11.5088    8.1371 H         1 RES1    0.0000
     13 C6         3.8176   11.5177    9.6208 C.3       1 RES1    0.0000
     14 H8         2.8483   11.4633    9.4865 H         1 RES1    0.0000
     15 H9         4.0045   11.9005   10.5032 H         1 RES1    0.0000
     16 H10        4.2068   10.6202    9.5657 H         1 RES1    0.0000
     17 C7         6.6510   13.8413    8.2414 C.3       1 RES1    0.0000
     18 C8         6.9350   13.8744    6.7348 C.3       1 RES1    0.0000
     19 H11        7.3292   14.7398    6.4959 H         1 RES1    0.0000
     20 H12        6.0975   13.7485    6.2411 H         1 RES1    0.0000
     21 H13        7.5602   13.1561    6.5045 H         1 RES1    0.0000
     22 C9         5.7915   15.0588    8.6056 C.3       1 RES1    0.0000
     23 H14        5.5545   15.0196    9.5558 H         1 RES1    0.0000
     24 H15        4.9741   15.0554    8.0654 H         1 RES1    0.0000
     25 H16        6.2957   15.8795    8.4290 H         1 RES1    0.0000
     26 C10        7.9847   14.0083    8.9896 C.3       1 RES1    0.0000
     27 H17        8.5691   13.2483    8.7889 H         1 RES1    0.0000
     28 H18        7.8154   14.0437    9.9540 H         1 RES1    0.0000
     29 H19        8.4186   14.8382    8.7024 H         1 RES1    0.0000
     30 C11        6.7390   10.1038    9.2948 C.ar      1 RES1    0.0000
     31 C12        7.1063   10.4172   10.6322 C.ar      1 RES1    0.0000
     32 H20        7.3096   11.3162   10.8606 H         1 RES1    0.0000
     33 C13        7.1729    9.4524   11.5921 C.ar      1 RES1    0.0000
     34 H21        7.4076    9.6934   12.4809 H         1 RES1    0.0000
     35 C14        6.8982    8.0976   11.2869 C.ar      1 RES1    0.0000
     36 C15        6.9672    7.0690   12.2620 C.ar      1 RES1    0.0000
     37 H22        7.1640    7.2895   13.1649 H         1 RES1    0.0000
     38 C16        6.7555    5.7679   11.9147 C.ar      1 RES1    0.0000
     39 H23        6.8004    5.0873   12.5761 H         1 RES1    0.0000
     40 C17        6.4683    5.4296   10.5774 C.ar      1 RES1    0.0000
     41 H24        6.3353    4.5188   10.3412 H         1 RES1    0.0000
     42 C18        6.3787    6.3966    9.6164 C.ar      1 RES1    0.0000
     43 H25        6.1810    6.1526    8.7197 H         1 RES1    0.0000
     44 C19        6.5785    7.7601    9.9439 C.ar      1 RES1    0.0000
     45 C20        6.5023    8.7950    8.9737 C.ar      1 RES1    0.0000
     46 H26        6.2808    8.5726    8.0778 H         1 RES1    0.0000
     47 C21        7.1342   10.4527    6.0061 C.2       1 RES1    0.0000
     48 C22        6.6306   10.2545    4.5994 C.ar      1 RES1    0.0000
     49 C23        6.3129   11.3813    3.8419 C.ar      1 RES1    0.0000
     50 H27        6.3224   12.2386    4.2498 H         1 RES1    0.0000
     51 C24        5.9844   11.2655    2.5045 C.ar      1 RES1    0.0000
     52 H28        5.7723   12.0314    1.9839 H         1 RES1    0.0000
     53 C25        5.9737   10.0005    1.9481 C.ar      1 RES1    0.0000
     54 C26        6.2623    8.8652    2.6738 C.ar      1 RES1    0.0000
     55 H29        6.2319    8.0094    2.2634 H         1 RES1    0.0000
     56 C27        6.5974    8.9937    4.0133 C.ar      1 RES1    0.0000
     57 H30        6.8035    8.2228    4.5293 H         1 RES1    0.0000
     58 N1         6.2304   10.8000    6.9490 N.am      1 RES1    0.0000
     59 N2         5.6614    9.8691    0.5155 N.pl3     1 RES1    0.0000
     60 O1         8.3451   10.3798    6.2221 O.2       1 RES1    0.0000
     61 O2         5.5576    8.7380    0.0493 O.2       1 RES1    0.0000
     62 O3         5.5283   10.8924   -0.1463 O.2       1 RES1    0.0000
@<TRIPOS>BOND
     1    1    2 1
     2    3    1 1
     3    4    1 1
     4    5    4 1
     5    6    4 1
     6    7    4 1
     7    8    7 1
     8    9    7 1
     9   10    9 1
    10   11    9 1
    11   12   11 1
    12   13    7 1
    13   14   13 1
    14   15   13 1
    15   16   13 1
    16   17    9 1
    17   18   17 1
    18   19   18 1
    19   20   18 1
    20   21   18 1
    21   22   17 1
    22   23   22 1
    23   24   22 1
    24   25   22 1
    25   26   17 1
    26   27   26 1
    27   28   26 1
    28   29   26 1
    29   30   11 1
    30   31   30 ar
    31   32   31 1
    32   33   31 ar
    33   34   33 1
    34   35   33 ar
    35   36   35 ar
    36   37   36 1
    37   38   36 ar
    38   39   38 1
    39   40   38 ar
    40   41   40 1
    41   42   40 ar
    42   43   42 1
    43   44   35 ar
    44   45   30 ar
    45   46   45 1
    46   47   48 1
    47   48   49 ar
    48   49   50 1
    49   51   49 ar
    50   52   51 1
    51   53   51 ar
    52   54   53 ar
    53   55   54 1
    54   56   48 ar
    55   57   56 1
    56   58    1 1
    57   59   53 1
    58   60   47 2
    59   61   59 2
    60   62   59 2
    61   11   58 1
    62   42   44 ar
    63   44   45 ar
    64   47   58 1
    65   54   56 ar
@<TRIPOS>SUBSTRUCTURE
     1 RES1 1

@<TRIPOS>CRYSIN
   7.2150   12.5739   13.1379  70.3580  86.9080  85.3840   2 1

