# MOL2 file generated by ConQuest
# Please check atom types

@<TRIPOS>MOLECULE
XUGXOM
    37    39     1
SMALL
NO_CHARGES
****
Generated from CSD

@<TRIPOS>ATOM
      1 N1         2.2217    2.7805   15.3280 N.pl3     1 RES1    0.0000
      2 O1         5.8428    0.7100   12.8648 O.2       1 RES1    0.0000
      3 O2         1.2679    2.7105   16.1021 O.2       1 RES1    0.0000
      4 O3         2.6451    1.8157   14.7046 O.2       1 RES1    0.0000
      5 C1         6.0799    1.7467   12.2701 C.2       1 RES1    0.0000
      6 C2         5.4138    3.0425   12.6412 C.2       1 RES1    0.0000
      7 C3         5.4121    4.1265   11.5884 C.3       1 RES1    0.0000
      8 H1         4.6894    4.7710   11.7915 H         1 RES1    0.0000
      9 H2         5.2143    3.7194   10.7078 H         1 RES1    0.0000
     10 C4         6.7531    4.8891   11.4987 C.3       1 RES1    0.0000
     11 H3         6.8192    5.3217   10.6102 H         1 RES1    0.0000
     12 H4         6.7650    5.6025   12.1853 H         1 RES1    0.0000
     13 C5         7.9690    3.9780   11.7032 C.3       1 RES1    0.0000
     14 H5         8.7960    4.4856   11.5071 H         1 RES1    0.0000
     15 H6         8.0056    3.6875   12.6481 H         1 RES1    0.0000
     16 C6         7.9036    2.7689   10.8124 C.ar      1 RES1    0.0000
     17 C7         8.7232    2.6603    9.6902 C.ar      1 RES1    0.0000
     18 H7         9.3474    3.3515    9.5029 H         1 RES1    0.0000
     19 C8         8.6480    1.5688    8.8422 C.ar      1 RES1    0.0000
     20 H8         9.2031    1.5253    8.0725 H         1 RES1    0.0000
     21 C9         7.7609    0.5375    9.1185 C.ar      1 RES1    0.0000
     22 H9         7.7049   -0.2139    8.5403 H         1 RES1    0.0000
     23 C10        6.9576    0.6144   10.2462 C.ar      1 RES1    0.0000
     24 H10        6.3664   -0.1011   10.4503 H         1 RES1    0.0000
     25 C11        7.0057    1.7276   11.0847 C.ar      1 RES1    0.0000
     26 C12        4.8168    3.0874   13.8435 C.2       1 RES1    0.0000
     27 H11        4.8889    2.3085   14.3831 H         1 RES1    0.0000
     28 C13        4.0614    4.2176   14.4154 C.ar      1 RES1    0.0000
     29 C14        2.8679    4.0859   15.1464 C.ar      1 RES1    0.0000
     30 C15        2.2147    5.1644   15.7259 C.ar      1 RES1    0.0000
     31 H12        1.4136    5.0308   16.2190 H         1 RES1    0.0000
     32 C16        2.7384    6.4320   15.5792 C.ar      1 RES1    0.0000
     33 H13        2.2935    7.1799   15.9599 H         1 RES1    0.0000
     34 C17        3.9165    6.6074   14.8726 C.ar      1 RES1    0.0000
     35 H14        4.2848    7.4778   14.7752 H         1 RES1    0.0000
     36 C18        4.5607    5.5186   14.3078 C.ar      1 RES1    0.0000
     37 H15        5.3699    5.6616   13.8311 H         1 RES1    0.0000
@<TRIPOS>BOND
     1    1    3 2
     2    2    5 2
     3    4    1 2
     4    5    6 1
     5    6    7 1
     6    7    8 1
     7    9    7 1
     8   10    7 1
     9   11   10 1
    10   12   10 1
    11   13   10 1
    12   14   13 1
    13   15   13 1
    14   16   13 1
    15   17   16 ar
    16   18   17 1
    17   19   17 ar
    18   20   19 1
    19   21   19 ar
    20   22   21 1
    21   23   21 ar
    22   24   23 1
    23   25    5 1
    24   26    6 2
    25   27   26 1
    26   28   26 1
    27   29    1 1
    28   30   29 ar
    29   31   30 1
    30   32   30 ar
    31   33   32 1
    32   34   32 ar
    33   35   34 1
    34   36   28 ar
    35   37   36 1
    36   16   25 ar
    37   23   25 ar
    38   28   29 ar
    39   34   36 ar
@<TRIPOS>SUBSTRUCTURE
     1 RES1 1

@<TRIPOS>CRYSIN
  10.6010    7.7780   16.9460  90.0000  96.7600  90.0000  14 2

