# MOL2 file generated by ConQuest
# Please check atom types

@<TRIPOS>MOLECULE
XUJQIC
    29    31     1
SMALL
NO_CHARGES
****
Generated from CSD

@<TRIPOS>ATOM
      1 O1        -1.0208   16.1037    5.1540 O.3       1 RES1    0.0000
      2 N1        -0.4087   15.6255    3.9200 N.3       1 RES1    0.0000
      3 H1        -1.0834   15.0734    3.4723 H         1 RES1    0.0000
      4 C1        -2.0302   17.0363    4.7266 C.3       1 RES1    0.0000
      5 H2        -2.2486   17.6545    5.4419 H         1 RES1    0.0000
      6 H3        -2.8370   16.5686    4.4627 H         1 RES1    0.0000
      7 O2        -1.6312   19.8533    4.7859 O.3       1 RES1    0.0000
      8 H4        -1.5660   20.6578    4.6417 H         1 RES1    0.0000
      9 C2        -1.4277   17.7814    3.5385 C.3       1 RES1    0.0000
     10 H5        -2.0672   17.8539    2.7997 H         1 RES1    0.0000
     11 O3         1.5387   19.8300    4.1171 O.3       1 RES1    0.0000
     12 C3        -0.2264   16.8624    3.1646 C.3       1 RES1    0.0000
     13 H6        -0.1911   16.6916    2.2004 H         1 RES1    0.0000
     14 O4         1.7448   18.1790    2.5540 O.3       1 RES1    0.0000
     15 C4         1.0261   17.5873    3.6513 C.3       1 RES1    0.0000
     16 H7         1.5995   17.0034    4.1908 H         1 RES1    0.0000
     17 C5         0.5743   18.8094    4.4269 C.3       1 RES1    0.0000
     18 H8         0.5417   18.6302    5.3895 H         1 RES1    0.0000
     19 C6        -0.8059   19.1405    3.8767 C.3       1 RES1    0.0000
     20 H9        -0.7073   19.6630    3.0535 H         1 RES1    0.0000
     21 C7         2.4116   19.3396    3.0791 C.3       1 RES1    0.0000
     22 C8         3.7424   18.9729    3.6956 C.3       1 RES1    0.0000
     23 H10        4.1679   19.7649    4.0321 H         1 RES1    0.0000
     24 H11        4.3017   18.5665    3.0294 H         1 RES1    0.0000
     25 H12        3.6015   18.3544    4.4157 H         1 RES1    0.0000
     26 C9         2.5076   20.3695    1.9867 C.3       1 RES1    0.0000
     27 H13        2.9550   21.1498    2.3216 H         1 RES1    0.0000
     28 H14        1.6250   20.6069    1.6929 H         1 RES1    0.0000
     29 H15        3.0043   20.0088    1.2490 H         1 RES1    0.0000
@<TRIPOS>BOND
     1    1    2 1
     2    2    3 1
     3    4    1 1
     4    5    4 1
     5    6    4 1
     6    7    8 1
     7    9    4 1
     8   10    9 1
     9   11   17 1
    10   12    2 1
    11   13   12 1
    12   14   15 1
    13   15   12 1
    14   16   15 1
    15   17   15 1
    16   18   17 1
    17   19    7 1
    18   20   19 1
    19   21   11 1
    20   22   21 1
    21   23   22 1
    22   24   22 1
    23   25   22 1
    24   26   21 1
    25   27   26 1
    26   28   26 1
    27   29   26 1
    28    9   12 1
    29    9   19 1
    30   14   21 1
    31   17   19 1
@<TRIPOS>SUBSTRUCTURE
     1 RES1 1

@<TRIPOS>CRYSIN
   8.8078   21.2092    5.3420  90.0000  90.0000  90.0000  18 1

