# MOL2 file generated by ConQuest
# Please check atom types

@<TRIPOS>MOLECULE
XUMRIH
    37    38     1
SMALL
NO_CHARGES
****
Generated from CSD

@<TRIPOS>ATOM
      1 N1        13.4325    0.4601    1.8216 N.2       1 RES1    0.0000
      2 H1        12.4824    1.4893    3.1272 H         1 RES1    0.0000
      3 N2        13.0950    0.9653    3.0504 N.pl3     1 RES1    0.0000
      4 N3        15.1057   -1.5081    7.6495 N.pl3     1 RES1    0.0000
      5 N4        12.1905    1.8435    5.6926 N.pl3     1 RES1    0.0000
      6 O1        15.8421   -2.4590    7.4865 O.2       1 RES1    0.0000
      7 O2        14.7651   -1.1083    8.7374 O.2       1 RES1    0.0000
      8 O3        11.7908    2.0295    6.8184 O.2       1 RES1    0.0000
      9 O4        11.8115    2.5144    4.7382 O.2       1 RES1    0.0000
     10 C1        14.9878    1.8732   -1.3838 C.ar      1 RES1    0.0000
     11 H2        15.5518    1.5046   -0.7434 H         1 RES1    0.0000
     12 C2        15.4649    2.8647   -2.2359 C.ar      1 RES1    0.0000
     13 H3        16.3457    3.1566   -2.1628 H         1 RES1    0.0000
     14 C3        14.6421    3.4080   -3.1796 C.ar      1 RES1    0.0000
     15 H4        14.9590    4.0734   -3.7470 H         1 RES1    0.0000
     16 C4        13.3549    2.9751   -3.2901 C.ar      1 RES1    0.0000
     17 H5        12.7918    3.3412   -3.9343 H         1 RES1    0.0000
     18 C5        12.8868    1.9900   -2.4418 C.ar      1 RES1    0.0000
     19 H6        12.0070    1.6981   -2.5261 H         1 RES1    0.0000
     20 C6        13.6868    1.4324   -1.4775 C.ar      1 RES1    0.0000
     21 C7        13.1635    0.3859   -0.5337 C.3       1 RES1    0.0000
     22 H7        13.8362   -0.3053   -0.4251 H         1 RES1    0.0000
     23 H8        12.3765   -0.0252   -0.9232 H         1 RES1    0.0000
     24 C8        12.8072    0.9420    0.8202 C.2       1 RES1    0.0000
     25 C9        13.5870    0.4186    4.1777 C.ar      1 RES1    0.0000
     26 C10       14.5499   -0.6165    4.0972 C.ar      1 RES1    0.0000
     27 H9        14.8474   -0.8960    3.2620 H         1 RES1    0.0000
     28 C11       15.0482   -1.2107    5.2114 C.ar      1 RES1    0.0000
     29 H10       15.6958   -1.8732    5.1365 H         1 RES1    0.0000
     30 C12       14.5929   -0.8327    6.4548 C.ar      1 RES1    0.0000
     31 C13       13.6729    0.1682    6.6046 C.ar      1 RES1    0.0000
     32 H11       13.3904    0.4290    7.4510 H         1 RES1    0.0000
     33 C14       13.1694    0.7852    5.4717 C.ar      1 RES1    0.0000
     34 C15       11.7490    1.9865    0.8820 C.3       1 RES1    0.0000
     35 H12       11.0245    1.6763    1.4306 H         1 RES1    0.0000
     36 H13       11.4243    2.1656   -0.0037 H         1 RES1    0.0000
     37 H14       12.1141    2.7905    1.2584 H         1 RES1    0.0000
@<TRIPOS>BOND
     1    1    3 1
     2    2    3 1
     3    3   25 1
     4    4    6 2
     5    5    8 2
     6    7    4 2
     7    9    5 2
     8   10   11 1
     9   12   10 ar
    10   13   12 1
    11   14   12 ar
    12   15   14 1
    13   16   14 ar
    14   17   16 1
    15   18   16 ar
    16   19   18 1
    17   20   10 ar
    18   21   20 1
    19   22   21 1
    20   23   21 1
    21   24    1 2
    22   25   26 ar
    23   26   27 1
    24   28   26 ar
    25   29   28 1
    26   30    4 1
    27   31   30 ar
    28   32   31 1
    29   33    5 1
    30   34   24 1
    31   35   34 1
    32   36   34 1
    33   37   34 1
    34   18   20 ar
    35   21   24 1
    36   25   33 ar
    37   28   30 ar
    38   31   33 ar
@<TRIPOS>SUBSTRUCTURE
     1 RES1 1

@<TRIPOS>CRYSIN
  16.1007    4.9477   19.2600  90.0000 103.5270  90.0000 231 1

