# MOL2 file generated by ConQuest
# Please check atom types

@<TRIPOS>MOLECULE
XUMRUT
    37    38     1
SMALL
NO_CHARGES
****
Generated from CSD

@<TRIPOS>ATOM
      1 O1         7.7158    5.7728   24.0567 O.2       1 RES1    0.0000
      2 O2         5.5908    6.0351   23.8622 O.2       1 RES1    0.0000
      3 O3         3.0012    2.9152   21.4278 O.2       1 RES1    0.0000
      4 O4         3.8226    1.1205   20.6182 O.2       1 RES1    0.0000
      5 N1         7.6436    0.1363   20.2538 N.2       1 RES1    0.0000
      6 N2         6.4279    0.7317   20.5494 N.3       1 RES1    0.0000
      7 N3         6.6198    5.4106   23.6592 N.pl3     1 RES1    0.0000
      8 N4         3.9545    2.1902   21.2037 N.pl3     1 RES1    0.0000
      9 C1         8.5669   -3.2695   17.3278 C.ar      1 RES1    0.0000
     10 C2         8.6993   -3.6190   16.0007 C.ar      1 RES1    0.0000
     11 C3         9.2553   -2.7577   15.0829 C.ar      1 RES1    0.0000
     12 C4         9.6518   -1.5203   15.5438 C.ar      1 RES1    0.0000
     13 C5         9.5050   -1.1660   16.8673 C.ar      1 RES1    0.0000
     14 C6         8.9772   -2.0418   17.7884 C.ar      1 RES1    0.0000
     15 C7         8.8655   -1.6529   19.2390 C.3       1 RES1    0.0000
     16 C8         7.6080   -0.9194   19.5750 C.2       1 RES1    0.0000
     17 C9         6.4275    1.8352   21.3372 C.ar      1 RES1    0.0000
     18 C10        7.6253    2.3101   21.8972 C.ar      1 RES1    0.0000
     19 C11        7.6863    3.4294   22.6478 C.ar      1 RES1    0.0000
     20 C12        6.5465    4.1684   22.8864 C.ar      1 RES1    0.0000
     21 C13        5.3440    3.7516   22.4112 C.ar      1 RES1    0.0000
     22 C14        5.2660    2.5875   21.6469 C.ar      1 RES1    0.0000
     23 C15        9.4153   -3.1641   13.6326 C.3       1 RES1    0.0000
     24 H1        10.3144   -3.4639   13.4816 H         1 RES1    0.0000
     25 H2         9.2292   -2.4113   13.0664 H         1 RES1    0.0000
     26 H3         8.8020   -3.8752   13.4300 H         1 RES1    0.0000
     27 H4         8.2102   -3.8158   17.9993 H         1 RES1    0.0000
     28 H5         8.4160   -4.4760   15.7544 H         1 RES1    0.0000
     29 H6         5.7115    0.4119   20.2284 H         1 RES1    0.0000
     30 H7        10.1009   -0.9570   14.9001 H         1 RES1    0.0000
     31 H8         9.7932   -0.3028   17.1689 H         1 RES1    0.0000
     32 H9         9.6712   -1.1448   19.5490 H         1 RES1    0.0000
     33 H10        8.8051   -2.4470   19.7476 H         1 RES1    0.0000
     34 H11        6.8587   -1.2780   19.3026 H         1 RES1    0.0000
     35 H12        8.3624    1.7565   21.7860 H         1 RES1    0.0000
     36 H13        8.4151    3.7250   22.9581 H         1 RES1    0.0000
     37 H14        4.6730    4.1793   22.5965 H         1 RES1    0.0000
@<TRIPOS>BOND
     1    1    7 2
     2    2    7 2
     3    3    8 2
     4    4    8 2
     5    5    6 1
     6    6   17 1
     7    7   20 1
     8    8   22 1
     9    9   10 ar
    10   10   11 ar
    11   11   12 ar
    12   12   13 ar
    13   13   14 ar
    14   14    9 ar
    15   15   14 1
    16   16    5 2
    17   17   18 ar
    18   18   19 ar
    19   19   20 ar
    20   20   21 ar
    21   21   22 ar
    22   22   17 ar
    23   23   11 1
    24   24   23 1
    25   25   23 1
    26   26   23 1
    27   27    9 1
    28   28   10 1
    29   29    6 1
    30   30   12 1
    31   31   13 1
    32   32   15 1
    33   33   15 1
    34   34   16 1
    35   35   18 1
    36   36   19 1
    37   37   21 1
    38   15   16 1
@<TRIPOS>SUBSTRUCTURE
     1 RES1 1

@<TRIPOS>CRYSIN
  12.4040    6.0569   19.9950  90.0000  96.4910  90.0000 231 1

