# MOL2 file generated by ConQuest
# Please check atom types

@<TRIPOS>MOLECULE
XUMSAZ
    27    28     1
SMALL
NO_CHARGES
****
Generated from CSD

@<TRIPOS>ATOM
      1 O1         0.0724    4.9446    7.0876 O.3       1 RES1    0.0000
      2 C1        -0.7772    6.7288    9.3006 C.2       1 RES1    0.0000
      3 N1        -1.8039    7.0515    9.9709 N.2       1 RES1    0.0000
      4 O2        -1.1067    4.3380    8.9400 O.3       1 RES1    0.0000
      5 C2         1.1417    6.8959    8.0490 C.3       1 RES1    0.0000
      6 H1         1.8650    7.1296    8.6672 H         1 RES1    0.0000
      7 O3        -2.1475    8.4028    9.7645 O.3       1 RES1    0.0000
      8 H2        -2.8704    8.5584   10.1200 H         1 RES1    0.0000
      9 O4        -0.0946    7.5716    8.4853 O.3       1 RES1    0.0000
     10 C3         0.8362    5.4195    8.1921 C.3       1 RES1    0.0000
     11 H3         1.6346    4.8787    8.3658 H         1 RES1    0.0000
     12 C4        -0.1926    5.3479    9.3221 C.3       1 RES1    0.0000
     13 H4         0.2289    5.1470   10.1834 H         1 RES1    0.0000
     14 C5        -0.8458    3.9710    7.5678 C.3       1 RES1    0.0000
     15 C6        -2.0923    4.0706    6.7535 C.3       1 RES1    0.0000
     16 H5        -2.7284    3.4204    7.0600 H         1 RES1    0.0000
     17 H6        -1.8853    3.9060    5.8299 H         1 RES1    0.0000
     18 H7        -2.4650    4.9503    6.8455 H         1 RES1    0.0000
     19 C7        -0.2269    2.6007    7.5729 C.3       1 RES1    0.0000
     20 H8        -0.8654    1.9629    7.8999 H         1 RES1    0.0000
     21 H9         0.5459    2.6007    8.1420 H         1 RES1    0.0000
     22 H10        0.0335    2.3637    6.6799 H         1 RES1    0.0000
     23 C8         1.4961    7.3823    6.6881 C.2       1 RES1    0.0000
     24 H11        0.9352    7.1724    5.9770 H         1 RES1    0.0000
     25 C9         2.5662    8.0917    6.4572 C.2       1 RES1    0.0000
     26 H12        3.1392    8.3107    7.1561 H         1 RES1    0.0000
     27 H13        2.7565    8.3790    5.5928 H         1 RES1    0.0000
@<TRIPOS>BOND
     1    1   10 1
     2    2    3 2
     3    3    7 1
     4    4   12 1
     5    5    6 1
     6    7    8 1
     7    9    2 1
     8   10    5 1
     9   11   10 1
    10   12    2 1
    11   13   12 1
    12   14    1 1
    13   15   14 1
    14   16   15 1
    15   17   15 1
    16   18   15 1
    17   19   14 1
    18   20   19 1
    19   21   19 1
    20   22   19 1
    21   23    5 1
    22   24   23 1
    23   25   23 2
    24   26   25 1
    25   27   25 1
    26    4   14 1
    27    5    9 1
    28   10   12 1
@<TRIPOS>SUBSTRUCTURE
     1 RES1 1

@<TRIPOS>CRYSIN
   6.2282    8.2300   10.5903  90.0000 105.2560  90.0000   4 1

