# MOL2 file generated by ConQuest
# Please check atom types

@<TRIPOS>MOLECULE
XUMSED
    32    34     1
SMALL
NO_CHARGES
****
Generated from CSD

@<TRIPOS>ATOM
      1 N1         3.1092    5.7378    9.5625 N.2       1 RES1    0.0000
      2 O1         3.6353    4.7544    8.6513 O.3       1 RES1    0.0000
      3 C1         4.9387    5.2139    8.1754 C.3       1 RES1    0.0000
      4 H1         4.8692    5.5851    7.2815 H         1 RES1    0.0000
      5 H2         5.5786    4.4841    8.1629 H         1 RES1    0.0000
      6 O2         4.3972    7.7172   11.9309 O.3       1 RES1    0.0000
      7 C2         5.3511    6.2715    9.1664 C.3       1 RES1    0.0000
      8 H3         6.0186    5.9143    9.7879 H         1 RES1    0.0000
      9 O3         6.1936    8.6151   10.9137 O.3       1 RES1    0.0000
     10 C3         4.0582    6.5111    9.8709 C.2       1 RES1    0.0000
     11 O4         4.9652    8.0148    7.5656 O.3       1 RES1    0.0000
     12 C4         4.0190    7.8292   10.5645 C.3       1 RES1    0.0000
     13 H4         3.1644    8.2943   10.4455 H         1 RES1    0.0000
     14 O5         6.4591    9.6041    7.0482 O.2       1 RES1    0.0000
     15 C5         5.2126    8.5773    9.8850 C.3       1 RES1    0.0000
     16 H5         4.9625    9.4738    9.5782 H         1 RES1    0.0000
     17 C6         5.7193    7.6976    8.7482 C.3       1 RES1    0.0000
     18 H6         6.6838    7.8012    8.6059 H         1 RES1    0.0000
     19 C7         5.4963    8.5871   12.1567 C.3       1 RES1    0.0000
     20 C8         5.0287    9.9753   12.5308 C.3       1 RES1    0.0000
     21 H7         4.5628    9.9403   13.3700 H         1 RES1    0.0000
     22 H8         4.4391   10.3087   11.8514 H         1 RES1    0.0000
     23 H9         5.7878   10.5581   12.6107 H         1 RES1    0.0000
     24 C9         6.4056    7.9819   13.1790 C.3       1 RES1    0.0000
     25 H10        5.9595    7.9553   14.0291 H         1 RES1    0.0000
     26 H11        7.2022    8.5128   13.2526 H         1 RES1    0.0000
     27 H12        6.6396    7.0910   12.9113 H         1 RES1    0.0000
     28 C10        5.4444    9.0241    6.7883 C.2       1 RES1    0.0000
     29 C11        4.5164    9.2861    5.6517 C.3       1 RES1    0.0000
     30 H13        3.7816    8.6697    5.6893 H         1 RES1    0.0000
     31 H14        4.9862    9.1740    4.8220 H         1 RES1    0.0000
     32 H15        4.1830   10.1854    5.7112 H         1 RES1    0.0000
@<TRIPOS>BOND
     1    1    2 1
     2    2    3 1
     3    3    4 1
     4    5    3 1
     5    6   12 1
     6    7    3 1
     7    8    7 1
     8    9   15 1
     9   10    1 2
    10   11   17 1
    11   12   10 1
    12   13   12 1
    13   14   28 2
    14   15   12 1
    15   16   15 1
    16   17    7 1
    17   18   17 1
    18   19    6 1
    19   20   19 1
    20   21   20 1
    21   22   20 1
    22   23   20 1
    23   24   19 1
    24   25   24 1
    25   26   24 1
    26   27   24 1
    27   28   11 1
    28   29   28 1
    29   30   29 1
    30   31   29 1
    31   32   29 1
    32    7   10 1
    33    9   19 1
    34   15   17 1
@<TRIPOS>SUBSTRUCTURE
     1 RES1 1

@<TRIPOS>CRYSIN
   5.5206   14.0083   15.6557  90.0000  90.0000  90.0000  19 1

