# MOL2 file generated by ConQuest
# Please check atom types

@<TRIPOS>MOLECULE
XUMWOR
    43    45     1
SMALL
NO_CHARGES
****
Generated from CSD

@<TRIPOS>ATOM
      1 O1         5.7158   -0.0636    4.6208 O.3       1 RES1    0.0000
      2 O2         5.7360    0.0841    7.4950 O.2       1 RES1    0.0000
      3 O3         6.5268    2.1414    7.1532 O.3       1 RES1    0.0000
      4 O4         4.3431    3.7447    7.0738 O.2       1 RES1    0.0000
      5 O5         5.4211    5.1901    5.7381 O.3       1 RES1    0.0000
      6 N1         4.5449   -0.8385    4.4734 N.2       1 RES1    0.0000
      7 N2         2.8979    3.0476    3.7188 N.1       1 RES1    0.0000
      8 C1         3.5286   -0.1794    4.8361 C.2       1 RES1    0.0000
      9 C2         2.1445   -0.7237    4.8110 C.ar      1 RES1    0.0000
     10 C3         1.4207   -0.7350    3.6122 C.ar      1 RES1    0.0000
     11 C4         2.0096   -0.2635    2.3161 C.3       1 RES1    0.0000
     12 C5         0.0984   -1.1973    3.6529 C.ar      1 RES1    0.0000
     13 C6        -0.4954   -1.6361    4.8235 C.ar      1 RES1    0.0000
     14 C7        -1.9268   -2.1015    4.8434 C.3       1 RES1    0.0000
     15 C8         0.2486   -1.5992    5.9889 C.ar      1 RES1    0.0000
     16 C9         1.5694   -1.1563    6.0098 C.ar      1 RES1    0.0000
     17 C10        2.3278   -1.1420    7.3100 C.3       1 RES1    0.0000
     18 C11        3.8584    1.2322    5.3179 C.3       1 RES1    0.0000
     19 C12        3.3115    2.2532    4.4128 C.1       1 RES1    0.0000
     20 C13        5.4086    1.1563    5.3283 C.3       1 RES1    0.0000
     21 C14        5.8943    1.0230    6.7822 C.2       1 RES1    0.0000
     22 C15        6.4567    3.1276    6.1049 C.3       1 RES1    0.0000
     23 C16        5.2876    4.0563    6.3955 C.2       1 RES1    0.0000
     24 C17        4.3455    6.1393    5.9053 C.3       1 RES1    0.0000
     25 C18        6.2168    2.3280    4.8204 C.3       1 RES1    0.0000
     26 H1         2.6260    0.2460    2.3830 H         1 RES1    0.0000
     27 H2         2.6132   -1.0046    1.8186 H         1 RES1    0.0000
     28 H3         1.4906   -0.3895    1.5991 H         1 RES1    0.0000
     29 H4        -0.3878   -1.2096    2.7802 H         1 RES1    0.0000
     30 H5        -2.0386   -2.8908    5.0691 H         1 RES1    0.0000
     31 H6        -2.1751   -2.3475    3.9194 H         1 RES1    0.0000
     32 H7        -2.4460   -1.6914    5.5186 H         1 RES1    0.0000
     33 H8        -0.0992   -1.9374    6.8041 H         1 RES1    0.0000
     34 H9         1.9678   -1.6812    7.9329 H         1 RES1    0.0000
     35 H10        2.3290   -0.3280    7.7030 H         1 RES1    0.0000
     36 H11        3.2797   -1.3121    7.0968 H         1 RES1    0.0000
     37 H12        3.5085    1.4351    6.1666 H         1 RES1    0.0000
     38 H13        7.2301    3.6494    6.0830 H         1 RES1    0.0000
     39 H14        4.5143    6.7759    5.2991 H         1 RES1    0.0000
     40 H15        3.5846    5.7816    5.5708 H         1 RES1    0.0000
     41 H16        4.2424    6.3249    6.8251 H         1 RES1    0.0000
     42 H17        5.8077    2.8293    4.1598 H         1 RES1    0.0000
     43 H18        7.0609    2.0194    4.4629 H         1 RES1    0.0000
@<TRIPOS>BOND
     1    1    6 1
     2    2   21 2
     3    3   21 1
     4    4   23 2
     5    5   23 1
     6    6    8 2
     7    7   19 3
     8    8    9 1
     9    9   10 ar
    10   10   11 1
    11   11   26 1
    12   12   10 ar
    13   13   12 ar
    14   14   13 1
    15   15   13 ar
    16   16    9 ar
    17   17   16 1
    18   18    8 1
    19   19   18 1
    20   20    1 1
    21   21   20 1
    22   22    3 1
    23   23   22 1
    24   24    5 1
    25   25   20 1
    26   27   11 1
    27   28   11 1
    28   29   12 1
    29   30   14 1
    30   31   14 1
    31   32   14 1
    32   33   15 1
    33   34   17 1
    34   35   17 1
    35   36   17 1
    36   37   18 1
    37   38   22 1
    38   39   24 1
    39   40   24 1
    40   41   24 1
    41   42   25 1
    42   43   25 1
    43   15   16 ar
    44   18   20 1
    45   22   25 1
@<TRIPOS>SUBSTRUCTURE
     1 RES1 1

@<TRIPOS>CRYSIN
  16.4620   10.2510   10.6810  90.0000 101.8900  90.0000  14 1

