# MOL2 file generated by ConQuest
# Please check atom types

@<TRIPOS>MOLECULE
XUNYEL
   160   107     2
SMALL
NO_CHARGES
****
Generated from CSD

@<TRIPOS>ATOM
      1 O1         0.4644    0.0560    6.1066 O.2       1 RES1    0.0000
      2 O2         2.5698    0.2131    6.5943 O.2       1 RES1    0.0000
      3 N1         1.4460    0.6970    6.5010 N.pl3     1 RES1    0.0000
      4 N2         2.1063    4.3506    6.5790 N.2       1 RES1    0.0000
      5 N3         1.7676    7.1292    7.3280 N.pl3     1 RES1    0.0000
      6 H1         1.4319    6.2930    7.5682 H         1 RES1    0.0000
      7 N4        -0.4632    6.3058    9.0436 N.2       1 RES1    0.0000
      8 N5        -0.1509    3.5187    8.2787 N.pl3     1 RES1    0.0000
      9 H2         0.1942    4.3475    7.9963 H         1 RES1    0.0000
     10 C1         1.2510    2.0944    6.8894 C.2       1 RES1    0.0000
     11 C2         2.1159    3.0232    6.2977 C.2       1 RES1    0.0000
     12 C3         3.1465    2.7007    5.3039 C.2       1 RES1    0.0000
     13 H3         3.3254    1.8476    4.9262 H         1 RES1    0.0000
     14 C4         3.7830    3.8503    5.0378 C.2       1 RES1    0.0000
     15 H4         4.5137    3.9667    4.4400 H         1 RES1    0.0000
     16 C5         3.1438    4.8861    5.8359 C.2       1 RES1    0.0000
     17 C6         3.5492    6.2194    5.8222 C.2       1 RES1    0.0000
     18 C7         2.8574    7.2558    6.4995 C.2       1 RES1    0.0000
     19 C8         3.1318    8.6537    6.4123 C.2       1 RES1    0.0000
     20 H5         3.8338    9.0504    5.9124 H         1 RES1    0.0000
     21 C9         2.2165    9.3228    7.1676 C.2       1 RES1    0.0000
     22 H6         2.1647   10.2653    7.2731 H         1 RES1    0.0000
     23 C10        1.3491    8.3666    7.7746 C.2       1 RES1    0.0000
     24 C11        0.3054    8.6384    8.6813 C.2       1 RES1    0.0000
     25 C12       -0.5097    7.6619    9.2806 C.2       1 RES1    0.0000
     26 C13       -1.5638    7.9755   10.2194 C.2       1 RES1    0.0000
     27 H7        -1.7888    8.8377   10.5496 H         1 RES1    0.0000
     28 C14       -2.1642    6.8177   10.5374 C.2       1 RES1    0.0000
     29 H8        -2.8967    6.7015   11.1322 H         1 RES1    0.0000
     30 C15       -1.4756    5.7735    9.7928 C.2       1 RES1    0.0000
     31 C16       -1.8435    4.4026    9.8693 C.2       1 RES1    0.0000
     32 C17       -1.1832    3.3759    9.1935 C.2       1 RES1    0.0000
     33 C18       -1.4214    1.9722    9.3051 C.2       1 RES1    0.0000
     34 H9        -2.0713    1.5641    9.8647 H         1 RES1    0.0000
     35 C19       -0.5697    1.3224    8.4841 C.2       1 RES1    0.0000
     36 H10       -0.5091    0.3816    8.3740 H         1 RES1    0.0000
     37 C20        0.2231    2.2989    7.8144 C.2       1 RES1    0.0000
     38 C21        4.7934    6.6163    5.0623 C.3       1 RES1    0.0000
     39 H11        5.4395    5.8662    5.0959 H         1 RES1    0.0000
     40 H12        5.2098    7.3922    5.5164 H         1 RES1    0.0000
     41 C22        4.5408    6.9801    3.6022 C.3       1 RES1    0.0000
     42 H13        3.8900    7.7246    3.5609 H         1 RES1    0.0000
     43 H14        4.1418    6.2014    3.1374 H         1 RES1    0.0000
     44 C23        5.8244    7.3928    2.8744 C.3       1 RES1    0.0000
     45 H15        6.2040    8.1904    3.3208 H         1 RES1    0.0000
     46 H16        6.4864    6.6602    2.9493 H         1 RES1    0.0000
     47 C24        5.6054    7.7072    1.4112 C.3       1 RES1    0.0000
     48 H17        4.9550    8.4517    1.3424 H         1 RES1    0.0000
     49 H18        5.1996    6.9162    0.9755 H         1 RES1    0.0000
     50 C25        6.8713    8.0944    0.6360 C.3       1 RES1    0.0000
     51 H19        7.2749    8.8941    1.0580 H         1 RES1    0.0000
     52 H20        7.5269    7.3551    0.7018 H         1 RES1    0.0000
     53 C26        6.6088    8.3873   -0.8226 C.3       1 RES1    0.0000
     54 H21        5.9559    9.1302   -0.8868 H         1 RES1    0.0000
     55 H22        6.1983    7.5899   -1.2415 H         1 RES1    0.0000
     56 C27        7.8736    8.7680   -1.6084 C.3       1 RES1    0.0000
     57 H23        8.2803    9.5646   -1.2079 H         1 RES1    0.0000
     58 H24        7.6349    8.9556   -2.5396 H         1 RES1    0.0000
     59 H25        8.5112    8.0245   -1.5794 H         1 RES1    0.0000
     60 C28        0.0974   10.0863    9.0589 C.3       1 RES1    0.0000
     61 H26       -0.8592   10.2318    9.2669 H         1 RES1    0.0000
     62 H27        0.3311   10.6580    8.2853 H         1 RES1    0.0000
     63 C29        0.9421   10.5067   10.2653 C.3       1 RES1    0.0000
     64 H28        0.6239   10.0088   11.0603 H         1 RES1    0.0000
     65 H29        1.8809   10.2385   10.1017 H         1 RES1    0.0000
     66 C30        0.9142   11.9690   10.5772 C.3       1 RES1    0.0000
     67 H30        0.0300   12.3464   10.3417 H         1 RES1    0.0000
     68 H31        1.6045   12.4402   10.0466 H         1 RES1    0.0000
     69 C31        1.1915   12.1710   12.1290 C.3       1 RES1    0.0000
     70 H32        1.1379   13.1382   12.3354 H         1 RES1    0.0000
     71 H33        0.4739   11.7165   12.6397 H         1 RES1    0.0000
     72 C32        2.5215   11.6536   12.6076 C.3       1 RES1    0.0000
     73 H34        2.5380   10.6614   12.6183 H         1 RES1    0.0000
     74 H35        2.7340   11.9886   13.5142 H         1 RES1    0.0000
     75 C33        3.5053   12.2161   11.5542 C.3       1 RES1    0.0000
     76 H36        3.3755   13.1892   11.4211 H         1 RES1    0.0000
     77 H37        3.4140   11.7516   10.6842 H         1 RES1    0.0000
     78 C34        4.8729   11.9103   12.2208 C.3       1 RES1    0.0000
     79 H38        5.5965   12.2129   11.6337 H         1 RES1    0.0000
     80 H39        4.9541   10.9478   12.3737 H         1 RES1    0.0000
     81 H40        4.9304   12.3847   13.0770 H         1 RES1    0.0000
     82 C35       -3.0190    4.0244   10.7408 C.3       1 RES1    0.0000
     83 H41       -3.4443    3.2131   10.3662 H         1 RES1    0.0000
     84 H42       -3.6872    4.7547   10.7071 H         1 RES1    0.0000
     85 C36       -2.6563    3.7572   12.2162 C.3       1 RES1    0.0000
     86 H43       -2.0160    3.0033   12.2651 H         1 RES1    0.0000
     87 H44       -2.2160    4.5580   12.5969 H         1 RES1    0.0000
     88 C37       -3.8958    3.4230   13.0387 C.3       1 RES1    0.0000
     89 H45       -4.5252    4.1857   12.9883 H         1 RES1    0.0000
     90 H46       -4.3429    2.6379   12.6336 H         1 RES1    0.0000
     91 C38       -3.6085    3.1212   14.4989 C.3       1 RES1    0.0000
     92 H47       -3.1583    3.9023   14.9071 H         1 RES1    0.0000
     93 H48       -2.9882    2.3508   14.5524 H         1 RES1    0.0000
     94 C39       -4.8637    2.8017   15.2939 C.3       1 RES1    0.0000
     95 H49       -5.2852    1.9910   14.9132 H         1 RES1    0.0000
     96 H50       -5.5041    3.5503   15.1930 H         1 RES1    0.0000
     97 C40       -4.6043    2.5723   16.7770 C.3       1 RES1    0.0000
     98 H51       -3.9683    1.8210   16.8810 H         1 RES1    0.0000
     99 H52       -4.1810    3.3815   17.1608 H         1 RES1    0.0000
    100 C41       -5.8720    2.2590   17.5583 C.3       1 RES1    0.0000
    101 H53       -6.5251    2.9782   17.4237 H         1 RES1    0.0000
    102 H54       -5.6592    2.1871   18.5123 H         1 RES1    0.0000
    103 H55       -6.2500    1.4117   17.2418 H         1 RES1    0.0000
    104 C42        0.9421   10.5067   10.2653 Du        2 SUP2    0.0000
    105 C43        0.9421   10.5067   10.2653 Du        2 SUP2    0.0000
    106 C44        0.9421   10.5067   10.2653 Du        2 SUP2    0.0000
    107 C45        0.9142   11.9690   10.5772 Du        2 SUP2    0.0000
    108 C46        0.5785   11.9297   10.7301 Du        2 SUP2    0.0000
    109 C47        0.5785   11.9297   10.7301 Du        2 SUP2    0.0000
    110 C48        1.7856   12.4121   11.7223 Du        2 SUP2    0.0000
    111 C49       -0.7091   12.0686   11.5404 Du        2 SUP2    0.0000
    112 C50       -0.8119   12.0719   11.3600 Du        2 SUP2    0.0000
    113 C51        2.9739   11.7362   12.3706 Du        2 SUP2    0.0000
    114 C52       -0.4622   11.5103   12.9730 Du        2 SUP2    0.0000
    115 C53       -0.9070   11.3458   12.7268 Du        2 SUP2    0.0000
    116 C54        4.1348   12.2320   11.5144 Du        2 SUP2    0.0000
    117 C55       -1.8472   11.3506   13.6687 Du        2 SUP2    0.0000
    118 C56       -2.3263   11.5537   13.3277 Du        2 SUP2    0.0000
    119 C57        5.5063   11.8811   12.1290 Du        2 SUP2    0.0000
    120 C58       -1.4644   10.9038   15.1013 Du        2 SUP2    0.0000
    121 C59       -2.1849   10.7465   14.6304 Du        2 SUP2    0.0000
    122 H56        0.6239   10.0088   11.0603 Du        2 SUP2    0.0000
    123 H57        1.8809   10.2385   10.1017 Du        2 SUP2    0.0000
    124 H58        1.9015   10.4746   10.0222 Du        2 SUP2    0.0000
    125 H59        0.7933    9.8696   11.0083 Du        2 SUP2    0.0000
    126 H60        1.9015   10.4746   10.0222 Du        2 SUP2    0.0000
    127 H61        0.7933    9.8696   11.0083 Du        2 SUP2    0.0000
    128 H62       -0.0202   12.2264   10.7805 Du        2 SUP2    0.0000
    129 H63        1.1884   12.4658    9.7668 Du        2 SUP2    0.0000
    130 H64        1.3270   12.2774   11.2774 Du        2 SUP2    0.0000
    131 H65        0.5046   12.5073    9.9304 Du        2 SUP2    0.0000
    132 H66        1.2558   12.2269   11.3875 Du        2 SUP2    0.0000
    133 H67        0.6343   12.5378    9.9503 Du        2 SUP2    0.0000
    134 H68        1.1551   12.5766   12.4669 Du        2 SUP2    0.0000
    135 H69        2.1188   13.3043   11.4517 Du        2 SUP2    0.0000
    136 H70       -1.4402   11.5616   11.1016 Du        2 SUP2    0.0000
    137 H71       -0.9778   13.0184   11.5908 Du        2 SUP2    0.0000
    138 H72       -1.4911   11.7040   10.7469 Du        2 SUP2    0.0000
    139 H73       -1.0121   13.0368   11.4930 Du        2 SUP2    0.0000
    140 H74        2.8935   10.7554   12.3354 Du        2 SUP2    0.0000
    141 H75        3.0771   12.0272   13.3124 Du        2 SUP2    0.0000
    142 H76       -0.0032   10.6299   12.9225 Du        2 SUP2    0.0000
    143 H77        0.1095   12.1282   13.4898 Du        2 SUP2    0.0000
    144 H78       -0.2245   11.7032   13.3476 Du        2 SUP2    0.0000
    145 H79       -0.7369   10.3778   12.6015 Du        2 SUP2    0.0000
    146 H80        4.0660   13.2141   11.4058 Du        2 SUP2    0.0000
    147 H81        4.0691   11.8232   10.6154 Du        2 SUP2    0.0000
    148 H82       -2.3433   12.2022   13.6794 Du        2 SUP2    0.0000
    149 H83       -2.3980   10.6575   13.2176 Du        2 SUP2    0.0000
    150 H84       -2.5128   12.5109   13.5066 Du        2 SUP2    0.0000
    151 H85       -3.0341   11.1860   12.7406 Du        2 SUP2    0.0000
    152 H86        6.2186   12.2605   11.5710 Du        2 SUP2    0.0000
    153 H87        5.6063   10.9106   12.1749 Du        2 SUP2    0.0000
    154 H88        5.5649   12.2623   13.0311 Du        2 SUP2    0.0000
    155 H89       -2.2729   10.7623   15.6303 Du        2 SUP2    0.0000
    156 H90       -0.9131   11.5995   15.5217 Du        2 SUP2    0.0000
    157 H91       -0.9489   10.0674   15.0585 Du        2 SUP2    0.0000
    158 H92       -3.0270   10.7881   15.1349 Du        2 SUP2    0.0000
    159 H93       -1.4616   11.1218   15.1731 Du        2 SUP2    0.0000
    160 H94       -1.9822    9.8111   14.4148 Du        2 SUP2    0.0000
@<TRIPOS>BOND
     1    1    3 2
     2    2    3 2
     3    3   10 1
     4    4   11 2
     5    5    6 1
     6    7   25 1
     7    8    9 1
     8   10   11 1
     9   11   12 1
    10   12   13 1
    11   14   12 2
    12   15   14 1
    13   16    4 1
    14   17   16 2
    15   18    5 1
    16   19   18 2
    17   20   19 1
    18   21   19 1
    19   22   21 1
    20   23    5 1
    21   24   23 1
    22   25   24 2
    23   26   25 1
    24   27   26 1
    25   28   26 2
    26   29   28 1
    27   30    7 2
    28   31   30 1
    29   32    8 1
    30   33   32 1
    31   34   33 1
    32   35   33 2
    33   36   35 1
    34   37    8 1
    35   38   17 1
    36   39   38 1
    37   40   38 1
    38   41   38 1
    39   42   41 1
    40   43   41 1
    41   44   41 1
    42   45   44 1
    43   46   44 1
    44   47   44 1
    45   48   47 1
    46   49   47 1
    47   50   47 1
    48   51   50 1
    49   52   50 1
    50   53   50 1
    51   54   53 1
    52   55   53 1
    53   56   53 1
    54   57   56 1
    55   58   56 1
    56   59   56 1
    57   60   24 1
    58   61   60 1
    59   62   60 1
    60   63   60 1
    61   64   63 1
    62   65   63 1
    63   66   63 1
    64   67   66 1
    65   68   66 1
    66   69   66 1
    67   70   69 1
    68   71   69 1
    69   72   69 1
    70   73   72 1
    71   74   72 1
    72   75   72 1
    73   76   75 1
    74   77   75 1
    75   78   75 1
    76   79   78 1
    77   80   78 1
    78   81   78 1
    79   82   31 1
    80   83   82 1
    81   84   82 1
    82   85   82 1
    83   86   85 1
    84   87   85 1
    85   88   85 1
    86   89   88 1
    87   90   88 1
    88   91   88 1
    89   92   91 1
    90   93   91 1
    91   94   91 1
    92   95   94 1
    93   96   94 1
    94   97   94 1
    95   98   97 1
    96   99   97 1
    97  100   97 1
    98  101  100 1
    99  102  100 1
   100  103  100 1
   101   10   37 2
   102   14   16 1
   103   17   18 1
   104   21   23 2
   105   28   30 1
   106   31   32 2
   107   35   37 1
@<TRIPOS>SUBSTRUCTURE
     1 RES1 1
     2 SUP2 104

@<TRIPOS>CRYSIN
  10.4850   12.4510   15.4580  94.2410  96.8670  95.6150   2 1

