# MOL2 file generated by ConQuest
# Please check atom types

@<TRIPOS>MOLECULE
XUPYIR
    62    67     1
SMALL
NO_CHARGES
****
Generated from CSD

@<TRIPOS>ATOM
      1 O1        11.2076    6.0172    6.0737 O.3       1 RES1    0.0000
      2 N1         7.9747    4.8412    7.2710 N.am      1 RES1    0.0000
      3 N2        12.0167    5.6676    4.9453 N.2       1 RES1    0.0000
      4 C1         8.6685    4.9507    2.7246 C.ar      1 RES1    0.0000
      5 C2        10.0491    4.3955    4.7953 C.3       1 RES1    0.0000
      6 C3        12.0284    4.2424    3.0400 C.ar      1 RES1    0.0000
      7 C4         8.9965    6.6839    5.3757 C.ar      1 RES1    0.0000
      8 C5         8.8886    4.1729    3.8542 C.ar      1 RES1    0.0000
      9 O2         5.6485    3.5794    1.3268 O.3       1 RES1    0.0000
     10 C6        11.3911    4.8098    4.2296 C.2       1 RES1    0.0000
     11 C7         7.9844    3.1668    4.1302 C.ar      1 RES1    0.0000
     12 C8         9.3618    4.9037    7.1316 C.2       1 RES1    0.0000
     13 C9         7.0746    5.6383    6.5460 C.2       1 RES1    0.0000
     14 C10        7.6425    6.6679    5.6682 C.ar      1 RES1    0.0000
     15 C11        9.5134    7.7135    4.6035 C.ar      1 RES1    0.0000
     16 C12        6.6891    3.7257    2.2070 C.ar      1 RES1    0.0000
     17 C13        9.8631    5.5435    5.8498 C.3       1 RES1    0.0000
     18 C14       13.2451    3.1545    0.7749 C.ar      1 RES1    0.0000
     19 C15        6.8778    2.9422    3.3212 C.ar      1 RES1    0.0000
     20 C16        7.5924    4.7346    1.9159 C.ar      1 RES1    0.0000
     21 C17       11.5519    3.0878    2.4532 C.ar      1 RES1    0.0000
     22 C18       12.1546    2.5411    1.3300 C.ar      1 RES1    0.0000
     23 C19        8.6774    8.6980    4.1231 C.ar      1 RES1    0.0000
     24 C20        7.4187    3.9737    8.2964 C.ar      1 RES1    0.0000
     25 C21       13.7345    4.3110    1.3488 C.ar      1 RES1    0.0000
     26 C22       13.1362    4.8455    2.4609 C.ar      1 RES1    0.0000
     27 C23        6.8124    7.6609    5.1747 C.ar      1 RES1    0.0000
     28 C24        6.7910    2.8098    7.9152 C.ar      1 RES1    0.0000
     29 C25        7.3347    8.6717    4.3988 C.ar      1 RES1    0.0000
     30 C26        4.7782    2.4782    1.5045 C.3       1 RES1    0.0000
     31 C27       13.3077    1.6693   -1.0908 C.3       1 RES1    0.0000
     32 C28        7.4800    4.3476    9.6107 C.ar      1 RES1    0.0000
     33 C29        6.2233    2.3767   10.1706 C.ar      1 RES1    0.0000
     34 C30        6.8795    3.5256   10.5572 C.ar      1 RES1    0.0000
     35 C31        6.1988    2.0366    8.8771 C.ar      1 RES1    0.0000
     36 O3        13.9240    2.6939   -0.3202 O.3       1 RES1    0.0000
     37 O4        10.0946    4.3695    7.9209 O.2       1 RES1    0.0000
     38 O5         5.8749    5.4910    6.7184 O.2       1 RES1    0.0000
     39 H1         9.3205    5.6271    2.4848 H         1 RES1    0.0000
     40 H2        10.2630    3.5604    5.2736 H         1 RES1    0.0000
     41 H3         8.1714    2.5646    4.9037 H         1 RES1    0.0000
     42 H4        10.4885    7.7407    4.3864 H         1 RES1    0.0000
     43 H5         6.2900    2.2452    3.5218 H         1 RES1    0.0000
     44 H6         7.4135    5.2419    1.1096 H         1 RES1    0.0000
     45 H7        10.7422    2.6022    2.8342 H         1 RES1    0.0000
     46 H8        11.7813    1.7755    0.9145 H         1 RES1    0.0000
     47 H9         9.0620    9.4411    3.5649 H         1 RES1    0.0000
     48 H10       14.4830    4.7440    0.9394 H         1 RES1    0.0000
     49 H11       13.4612    5.7304    2.8297 H         1 RES1    0.0000
     50 H12        5.9125    7.6656    5.4393 H         1 RES1    0.0000
     51 H13        6.7267    2.5834    6.9755 H         1 RES1    0.0000
     52 H14        6.7115    9.3189    3.9915 H         1 RES1    0.0000
     53 H15        5.3220    1.6440    1.5249 H         1 RES1    0.0000
     54 H16        4.1556    2.4800    0.7579 H         1 RES1    0.0000
     55 H17        4.3199    2.4988    2.3713 H         1 RES1    0.0000
     56 H18       13.3016    0.8455   -0.5265 H         1 RES1    0.0000
     57 H19       13.8647    1.5218   -1.8834 H         1 RES1    0.0000
     58 H20       12.3903    1.9728   -1.4251 H         1 RES1    0.0000
     59 H21        7.8495    5.2231    9.8551 H         1 RES1    0.0000
     60 H22        5.8432    1.9352   10.9171 H         1 RES1    0.0000
     61 H23        6.9533    3.8798   11.4413 H         1 RES1    0.0000
     62 H24        5.7547    1.2870    8.5753 H         1 RES1    0.0000
@<TRIPOS>BOND
     1    1    3 1
     2    2   12 1
     3    3   10 2
     4    4    8 ar
     5    5    8 1
     6    6   10 1
     7    7   14 ar
     8    8   11 ar
     9    9   16 1
    10   10    5 1
    11   11   19 ar
    12   12   17 1
    13   13    2 1
    14   14   13 1
    15   15    7 ar
    16   16   19 ar
    17   17    1 1
    18   18   22 ar
    19   19   43 1
    20   20    4 ar
    21   21    6 ar
    22   22   21 ar
    23   23   15 ar
    24   24    2 1
    25   25   18 ar
    26   26    6 ar
    27   27   14 ar
    28   28   24 ar
    29   29   23 ar
    30   30    9 1
    31   31   36 1
    32   32   24 ar
    33   33   34 ar
    34   34   32 ar
    35   35   28 ar
    36   36   18 1
    37   37   12 2
    38   38   13 2
    39   39    4 1
    40   40    5 1
    41   41   11 1
    42   42   15 1
    43   44   20 1
    44   45   21 1
    45   46   22 1
    46   47   23 1
    47   48   25 1
    48   49   26 1
    49   50   27 1
    50   51   28 1
    51   52   29 1
    52   53   30 1
    53   54   30 1
    54   55   30 1
    55   56   31 1
    56   57   31 1
    57   58   31 1
    58   59   32 1
    59   60   33 1
    60   61   34 1
    61   62   35 1
    62    5   17 1
    63    7   17 1
    64   16   20 ar
    65   25   26 ar
    66   27   29 ar
    67   33   35 ar
@<TRIPOS>SUBSTRUCTURE
     1 RES1 1

@<TRIPOS>CRYSIN
  12.2441    9.3941   23.0227  90.0000  99.7230  90.0000  14 1

