# MOL2 file generated by ConQuest
# Please check atom types

@<TRIPOS>MOLECULE
XUPYEN
    59    63     2
SMALL
NO_CHARGES
****
Generated from CSD

@<TRIPOS>ATOM
      1 O1         6.3868    5.0202    2.6846 O.3       1 RES1    0.0000
      2 O2         9.5032    4.0661    0.3904 O.2       1 RES1    0.0000
      3 O3         7.1756    0.6172   -1.3513 O.2       1 RES1    0.0000
      4 O4        13.1872    2.3282    5.1031 O.3       1 RES1    0.0000
      5 N1         8.4257    2.2503   -0.4388 N.am      1 RES1    0.0000
      6 N2         7.5562    4.8202    3.4663 N.2       1 RES1    0.0000
      7 C1         7.4887    1.2074   -0.3106 C.2       1 RES1    0.0000
      8 C2         6.8262    1.0571    0.9883 C.ar      1 RES1    0.0000
      9 C3         6.1008   -0.1084    1.2223 C.ar      1 RES1    0.0000
     10 H1         6.0195   -0.7493    0.5529 H         1 RES1    0.0000
     11 C4         5.5071   -0.3093    2.4393 C.ar      1 RES1    0.0000
     12 H2         5.0183   -1.0842    2.5967 H         1 RES1    0.0000
     13 C5         5.6369    0.6377    3.4318 C.ar      1 RES1    0.0000
     14 H3         5.2380    0.4920    4.2596 H         1 RES1    0.0000
     15 C6         6.3503    1.8005    3.2125 C.ar      1 RES1    0.0000
     16 H4         6.4320    2.4325    3.8892 H         1 RES1    0.0000
     17 C7         6.9478    2.0216    1.9777 C.ar      1 RES1    0.0000
     18 C8         7.6450    3.3215    1.6619 C.3       1 RES1    0.0000
     19 C9         8.6238    3.2475    0.5069 C.2       1 RES1    0.0000
     20 C10        9.2572    2.2681   -1.6283 C.ar      1 RES1    0.0000
     21 C11        9.2329    3.3406   -2.4718 C.ar      1 RES1    0.0000
     22 H5         8.6789    4.0656   -2.2914 H         1 RES1    0.0000
     23 C12       10.0359    3.3420   -3.5965 C.ar      1 RES1    0.0000
     24 H6        10.0406    4.0793   -4.1641 H         1 RES1    0.0000
     25 C13       10.8249    2.2546   -3.8735 C.ar      1 RES1    0.0000
     26 H7        11.3510    2.2503   -4.6405 H         1 RES1    0.0000
     27 C14       10.8437    1.1805   -3.0321 C.ar      1 RES1    0.0000
     28 H8        11.3776    0.4441   -3.2293 H         1 RES1    0.0000
     29 C15       10.0727    1.1873   -1.8906 C.ar      1 RES1    0.0000
     30 H9        10.1020    0.4692   -1.3020 H         1 RES1    0.0000
     31 C16        6.6450    4.4986    1.3744 C.3       1 RES1    0.0000
     32 H10        7.1209    5.1839    0.8614 H         1 RES1    0.0000
     33 C17        5.3519    4.2029    0.6736 C.ar      1 RES1    0.0000
     34 C18        5.2836    4.3232   -0.6998 C.ar      1 RES1    0.0000
     35 H11        6.0378    4.5826   -1.1793 H         1 RES1    0.0000
     36 C19        4.0995    4.0579   -1.3702 C.ar      1 RES1    0.0000
     37 H12        4.0625    4.1294   -2.2977 H         1 RES1    0.0000
     38 C20        2.9792    3.6889   -0.6652 C.ar      1 RES1    0.0000
     39 H13        2.1833    3.5121   -1.1142 H         1 RES1    0.0000
     40 C21        3.0350    3.5834    0.6830 C.ar      1 RES1    0.0000
     41 H14        2.2712    3.3436    1.1572 H         1 RES1    0.0000
     42 C22        4.2140    3.8276    1.3639 C.ar      1 RES1    0.0000
     43 H15        4.2406    3.7399    2.2893 H         1 RES1    0.0000
     44 C23        8.2883    3.9374    2.8915 C.2       1 RES1    0.0000
     45 C24        9.5874    3.5479    3.4580 C.ar      1 RES1    0.0000
     46 C25       10.2702    4.4086    4.3026 C.ar      1 RES1    0.0000
     47 H16        9.9102    5.2432    4.4946 H         1 RES1    0.0000
     48 C26       11.4858    4.0412    4.8671 C.ar      1 RES1    0.0000
     49 H17       11.9383    4.6259    5.4305 H         1 RES1    0.0000
     50 C27       12.0146    2.7985    4.5827 C.ar      1 RES1    0.0000
     51 C28       11.3529    1.9385    3.7319 C.ar      1 RES1    0.0000
     52 H18       11.7163    1.1047    3.5378 H         1 RES1    0.0000
     53 C29       10.1586    2.3125    3.1695 C.ar      1 RES1    0.0000
     54 H19        9.7240    1.7310    2.5872 H         1 RES1    0.0000
     55 C30       13.9858    3.1987    5.8774 C.3       1 RES1    0.0000
     56 H20       14.2578    3.9472    5.3392 H         1 RES1    0.0000
     57 H21       14.7629    2.7286    6.1880 H         1 RES1    0.0000
     58 H22       13.4786    3.5144    6.6297 H         1 RES1    0.0000
     59 O5         7.4511    0.2779   -1.1153 Du        2 SUP2    0.0000
@<TRIPOS>BOND
     1    1    6 1
     2    2   19 2
     3    3    7 2
     4    4   50 1
     5    5    7 1
     6    6   44 2
     7    7    8 1
     8    8    9 ar
     9    9   10 1
    10   11    9 ar
    11   12   11 1
    12   13   11 ar
    13   14   13 1
    14   15   13 ar
    15   16   15 1
    16   17    8 ar
    17   18   17 1
    18   19    5 1
    19   20    5 1
    20   21   20 ar
    21   22   21 1
    22   23   21 ar
    23   24   23 1
    24   25   23 ar
    25   26   25 1
    26   27   25 ar
    27   28   27 1
    28   29   20 ar
    29   30   29 1
    30   31    1 1
    31   32   31 1
    32   33   31 1
    33   34   33 ar
    34   35   34 1
    35   36   34 ar
    36   37   36 1
    37   38   36 ar
    38   39   38 1
    39   40   38 ar
    40   41   40 1
    41   42   33 ar
    42   43   42 1
    43   44   18 1
    44   45   44 1
    45   46   45 ar
    46   47   46 1
    47   48   46 ar
    48   49   48 1
    49   50   48 ar
    50   51   50 ar
    51   52   51 1
    52   53   45 ar
    53   54   53 1
    54   55    4 1
    55   56   55 1
    56   57   55 1
    57   58   55 1
    58   15   17 ar
    59   18   19 1
    60   18   31 1
    61   27   29 ar
    62   40   42 ar
    63   51   53 ar
@<TRIPOS>SUBSTRUCTURE
     1 RES1 1
     2 SUP2 59

@<TRIPOS>CRYSIN
   9.8754   22.7765   10.7281  90.0000 102.0520  90.0000  14 1

