# MOL2 file generated by ConQuest
# Please check atom types

@<TRIPOS>MOLECULE
XUQNAY
    55    58     1
SMALL
NO_CHARGES
****
Generated from CSD

@<TRIPOS>ATOM
      1 O1         5.8226    3.2526    0.6103 O.2       1 RES1    0.0000
      2 O2        11.2742    0.5580   -2.8196 O.2       1 RES1    0.0000
      3 N1        11.6454    1.1435   -0.2910 N.3       1 RES1    0.0000
      4 O3         9.2861    0.5524   -3.6300 O.2       1 RES1    0.0000
      5 C1        10.3446    1.5096   -0.3434 C.ar      1 RES1    0.0000
      6 N2        12.2918    1.1308    0.9250 N.2       1 RES1    0.0000
      7 N3        10.0712    0.8195   -2.7353 N.pl3     1 RES1    0.0000
      8 O4         5.7299    2.8822   -1.5073 O.2       1 RES1    0.0000
      9 C2         9.7011    1.9903    0.8057 C.ar      1 RES1    0.0000
     10 C3        14.3735    0.3556   -0.2913 C.3       1 RES1    0.0000
     11 C4         9.5652    1.4260   -1.5257 C.ar      1 RES1    0.0000
     12 N4         6.3224    2.8759   -0.4431 N.pl3     1 RES1    0.0000
     13 C5        16.8478    0.0836    2.4992 C.3       1 RES1    0.0000
     14 C6        15.6671   -0.1694    0.3468 C.3       1 RES1    0.0000
     15 C7        14.3293    0.7007    2.1048 C.2       1 RES1    0.0000
     16 C8        17.0549    0.4259    0.0430 C.3       1 RES1    0.0000
     17 C9         8.2532    1.8884   -1.5531 C.ar      1 RES1    0.0000
     18 C10       15.5173    0.1673    1.7945 C.2       1 RES1    0.0000
     19 C11        7.6967    2.3846   -0.4144 C.ar      1 RES1    0.0000
     20 C12       17.8469    0.0014    1.2969 C.3       1 RES1    0.0000
     21 C13        8.4064    2.4078    0.7811 C.ar      1 RES1    0.0000
     22 C14       13.5244    0.7527    0.8897 C.2       1 RES1    0.0000
     23 C15       17.1060   -1.1877    3.3457 C.3       1 RES1    0.0000
     24 C16       17.4689   -2.2152    2.2895 C.3       1 RES1    0.0000
     25 C17       18.3186   -1.4759    1.2835 C.3       1 RES1    0.0000
     26 C18       13.8411    1.2257    3.4098 C.3       1 RES1    0.0000
     27 C19       15.9181   -1.6171    4.1992 C.3       1 RES1    0.0000
     28 C20       17.0092    1.9306   -0.1484 C.3       1 RES1    0.0000
     29 C21       18.3061   -0.9214    4.2749 C.3       1 RES1    0.0000
     30 H1        18.5698    0.5974    1.4527 H         1 RES1    0.0000
     31 H2        16.9724    0.8574    3.0834 H         1 RES1    0.0000
     32 H3        17.4301    0.0492   -0.7375 H         1 RES1    0.0000
     33 H4        13.9169   -0.2952   -0.8072 H         1 RES1    0.0000
     34 H5        17.8756   -3.0220    2.7287 H         1 RES1    0.0000
     35 H6         7.7786    1.8484   -2.3355 H         1 RES1    0.0000
     36 H7        15.7081   -1.1456    0.2077 H         1 RES1    0.0000
     37 H8        16.6501   -2.5160    1.8844 H         1 RES1    0.0000
     38 H9        10.1691    2.0241    1.5907 H         1 RES1    0.0000
     39 H10       14.5057    1.1385   -0.8591 H         1 RES1    0.0000
     40 H11       18.0958   -0.1616    4.9411 H         1 RES1    0.0000
     41 H12       18.5069   -1.7219    4.7185 H         1 RES1    0.0000
     42 H13       16.1345   -2.4247    4.6444 H         1 RES1    0.0000
     43 H14       17.9050    2.3122   -0.1484 H         1 RES1    0.0000
     44 H15       18.2046   -1.8273    0.3710 H         1 RES1    0.0000
     45 H16        8.0177    2.7550    1.5447 H         1 RES1    0.0000
     46 H17       19.2071   -1.4829    1.5580 H         1 RES1    0.0000
     47 H18       16.4996    2.3895    0.6084 H         1 RES1    0.0000
     48 H19       13.5112    2.1154    3.3238 H         1 RES1    0.0000
     49 H20       12.0132    0.8293   -1.0224 H         1 RES1    0.0000
     50 H21       16.5362    2.1506   -0.9793 H         1 RES1    0.0000
     51 H22       14.5229    1.2932    4.0508 H         1 RES1    0.0000
     52 H23       15.7396   -0.9347    4.9560 H         1 RES1    0.0000
     53 H24       15.1316   -1.7570    3.6057 H         1 RES1    0.0000
     54 H25       19.1506   -0.5833    3.6650 H         1 RES1    0.0000
     55 H26       13.1509    0.7239    3.7986 H         1 RES1    0.0000
@<TRIPOS>BOND
     1    1   12 2
     2    2    7 2
     3    3    5 1
     4    4    7 2
     5    5    9 ar
     6    6    3 1
     7    7   11 1
     8    8   12 2
     9    9   21 ar
    10   10   14 1
    11   11    5 ar
    12   12   19 1
    13   13   18 1
    14   14   16 1
    15   15   18 2
    16   16   20 1
    17   17   11 ar
    18   18   14 1
    19   19   17 ar
    20   20   13 1
    21   21   19 ar
    22   22    6 2
    23   23   13 1
    24   24   23 1
    25   25   20 1
    26   26   15 1
    27   27   23 1
    28   28   16 1
    29   29   23 1
    30   30   20 1
    31   31   13 1
    32   32   16 1
    33   33   10 1
    34   34   24 1
    35   35   17 1
    36   36   14 1
    37   37   24 1
    38   38    9 1
    39   39   10 1
    40   40   29 1
    41   41   29 1
    42   42   27 1
    43   43   28 1
    44   44   25 1
    45   45   21 1
    46   46   25 1
    47   47   28 1
    48   48   26 1
    49   49    3 1
    50   50   28 1
    51   51   26 1
    52   52   27 1
    53   53   27 1
    54   54   29 1
    55   55   26 1
    56   10   22 1
    57   15   22 1
    58   24   25 1
@<TRIPOS>SUBSTRUCTURE
     1 RES1 1

@<TRIPOS>CRYSIN
  19.6000    7.0280   14.8400  90.0000  90.8970  90.0000  14 1

