# MOL2 file generated by ConQuest
# Please check atom types

@<TRIPOS>MOLECULE
XURBES
    41    42     1
SMALL
NO_CHARGES
****
Generated from CSD

@<TRIPOS>ATOM
      1 O1        -0.0073    1.6449    0.4452 O.3       1 RES1    0.0000
      2 O2        -2.4407    0.0092   -1.6038 O.3       1 RES1    0.0000
      3 O3        -2.4003    0.3099    0.6216 O.2       1 RES1    0.0000
      4 O4        -4.9734    4.0362    1.7073 O.2       1 RES1    0.0000
      5 O5        -5.7196    5.8013    0.7145 O.2       1 RES1    0.0000
      6 N1        -0.9829    4.2582   -3.0328 N.2       1 RES1    0.0000
      7 N2        -0.4906    3.0767   -2.5451 N.pl3     1 RES1    0.0000
      8 N3         0.6183    2.4335   -3.1222 N.3       1 RES1    0.0000
      9 N4        -4.9355    4.8569    0.7981 N.pl3     1 RES1    0.0000
     10 C1        -1.1351    2.6000   -1.4657 C.2       1 RES1    0.0000
     11 C2        -2.1436    3.5202   -1.1931 C.2       1 RES1    0.0000
     12 C3        -2.0007    4.5298   -2.1848 C.2       1 RES1    0.0000
     13 C4        -2.8529    5.6581   -2.1848 C.2       1 RES1    0.0000
     14 C5        -3.8011    5.7271   -1.2160 C.2       1 RES1    0.0000
     15 C6        -3.9274    4.7067   -0.2462 C.2       1 RES1    0.0000
     16 C7        -3.1249    3.6145   -0.2027 C.2       1 RES1    0.0000
     17 C8        -0.7143    1.3548   -0.7500 C.3       1 RES1    0.0000
     18 C9        -1.9365    0.4980   -0.4695 C.2       1 RES1    0.0000
     19 C10       -3.6155   -0.8280   -1.4668 C.3       1 RES1    0.0000
     20 C11        1.8011    3.3179   -3.0905 C.3       1 RES1    0.0000
     21 C12        2.1807    3.6908   -1.6958 C.3       1 RES1    0.0000
     22 C13        0.2937    1.9731   -4.4840 C.3       1 RES1    0.0000
     23 C14       -0.7772    0.9176   -4.4714 C.3       1 RES1    0.0000
     24 H1        -0.5629    1.9819    1.0420 H         1 RES1    0.0000
     25 H2        -2.6974    6.3128   -2.8283 H         1 RES1    0.0000
     26 H3        -4.3788    6.4611   -1.1679 H         1 RES1    0.0000
     27 H4        -3.2253    3.0008    0.4718 H         1 RES1    0.0000
     28 H5        -0.0973    0.8676   -1.3054 H         1 RES1    0.0000
     29 H6        -3.7226   -1.1745   -2.3359 H         1 RES1    0.0000
     30 H7        -3.4808   -1.5268   -0.7786 H         1 RES1    0.0000
     31 H8        -4.3455   -0.2936   -1.2596 H         1 RES1    0.0000
     32 H9         2.5140    2.7894   -3.5038 H         1 RES1    0.0000
     33 H10        1.6365    4.0960   -3.6985 H         1 RES1    0.0000
     34 H11        1.5748    4.3162   -1.2367 H         1 RES1    0.0000
     35 H12        2.2729    2.9362   -1.1679 H         1 RES1    0.0000
     36 H13        3.0454    4.2281   -1.6718 H         1 RES1    0.0000
     37 H14        0.0220    2.7453   -5.0497 H         1 RES1    0.0000
     38 H15        1.1733    1.6296   -4.8779 H         1 RES1    0.0000
     39 H16       -1.0436    0.6504   -5.3932 H         1 RES1    0.0000
     40 H17       -1.6670    1.2772   -4.0878 H         1 RES1    0.0000
     41 H18       -0.4865    0.0440   -3.9161 H         1 RES1    0.0000
@<TRIPOS>BOND
     1    1   17 1
     2    2   18 1
     3    3   18 2
     4    4    9 2
     5    5    9 2
     6    6    7 1
     7    7    8 1
     8    8   20 1
     9    9   15 1
    10   10    7 1
    11   11   10 2
    12   12    6 2
    13   13   12 1
    14   14   13 2
    15   15   14 1
    16   16   11 1
    17   17   10 1
    18   18   17 1
    19   19    2 1
    20   20   21 1
    21   21   34 1
    22   22    8 1
    23   23   22 1
    24   24    1 1
    25   25   13 1
    26   26   14 1
    27   27   16 1
    28   28   17 1
    29   29   19 1
    30   30   19 1
    31   31   19 1
    32   32   20 1
    33   33   20 1
    34   35   21 1
    35   36   21 1
    36   37   22 1
    37   38   22 1
    38   39   23 1
    39   40   23 1
    40   41   23 1
    41   11   12 1
    42   15   16 2
@<TRIPOS>SUBSTRUCTURE
     1 RES1 1

@<TRIPOS>CRYSIN
   9.7390   14.6810   11.4620  90.0000  92.5690  90.0000  14 1

