# MOL2 file generated by ConQuest
# Please check atom types

@<TRIPOS>MOLECULE
XUSTIQ
    39    40     1
SMALL
NO_CHARGES
****
Generated from CSD

@<TRIPOS>ATOM
      1 O1         3.1805    1.7036   14.3851 O.3       1 RES1    0.0000
      2 O2         0.8965    1.2254   16.1577 O.3       1 RES1    0.0000
      3 O3        -0.7139    2.1499   17.3923 O.2       1 RES1    0.0000
      4 O4         5.3904    0.8526   13.6125 O.3       1 RES1    0.0000
      5 N1         5.3666    1.2991   14.9536 N.2       1 RES1    0.0000
      6 C1         3.4967    3.0694   19.2439 C.ar      1 RES1    0.0000
      7 C2         4.7736    2.7347   18.8443 C.ar      1 RES1    0.0000
      8 C3         2.4561    2.9991   18.3363 C.ar      1 RES1    0.0000
      9 C4         5.0225    2.3211   17.5629 C.ar      1 RES1    0.0000
     10 C5         2.6856    2.5872   17.0257 C.ar      1 RES1    0.0000
     11 C6         3.9764    2.2389   16.6321 C.ar      1 RES1    0.0000
     12 C7         1.5685    2.5135   16.0250 C.3       1 RES1    0.0000
     13 C8         4.2072    1.7499   15.2669 C.2       1 RES1    0.0000
     14 C9         2.0818    2.6287   14.6149 C.3       1 RES1    0.0000
     15 C10       -0.2439    1.1813   16.8675 C.2       1 RES1    0.0000
     16 C11       -0.8056   -0.1847   16.9309 C.3       1 RES1    0.0000
     17 C12        6.7126    0.4551   13.2955 C.3       1 RES1    0.0000
     18 C13        1.0483    2.3465   13.5474 C.3       1 RES1    0.0000
     19 C14        1.4934    2.6380   12.1363 C.3       1 RES1    0.0000
     20 C15        0.3525    2.4618   11.1515 C.3       1 RES1    0.0000
     21 H1         3.3104    3.3050   20.1273 H         1 RES1    0.0000
     22 H2         5.5352    2.7796   19.4448 H         1 RES1    0.0000
     23 H3         1.5520    3.2202   18.6402 H         1 RES1    0.0000
     24 H4         5.9046    2.1270   17.2461 H         1 RES1    0.0000
     25 H5         7.0135   -0.2712   13.8880 H         1 RES1    0.0000
     26 H6         7.3744    1.1356   13.4789 H         1 RES1    0.0000
     27 H7         0.9238    3.2287   16.2088 H         1 RES1    0.0000
     28 H8         6.7390    0.2119   12.3079 H         1 RES1    0.0000
     29 H9         2.4610    3.5253   14.5201 H         1 RES1    0.0000
     30 H10       -0.1704   -0.7737   17.3450 H         1 RES1    0.0000
     31 H11       -0.9955   -0.4941   16.0421 H         1 RES1    0.0000
     32 H12       -1.6159   -0.1746   17.4458 H         1 RES1    0.0000
     33 H13        0.2509    2.9152   13.7678 H         1 RES1    0.0000
     34 H14        0.7782    1.4322   13.6476 H         1 RES1    0.0000
     35 H15        1.8399    3.5592   12.0325 H         1 RES1    0.0000
     36 H16        2.2597    2.0084   11.8910 H         1 RES1    0.0000
     37 H17       -0.2859    3.2118   11.3423 H         1 RES1    0.0000
     38 H18       -0.0428    1.4745   11.2085 H         1 RES1    0.0000
     39 H19        0.7096    2.5762   10.3147 H         1 RES1    0.0000
@<TRIPOS>BOND
     1    1   13 1
     2    2   12 1
     3    3   15 2
     4    4    5 1
     5    5   13 2
     6    6    7 ar
     7    7    9 ar
     8    8    6 ar
     9    9   11 ar
    10   10    8 ar
    11   11   10 ar
    12   12   10 1
    13   13   11 1
    14   14    1 1
    15   15    2 1
    16   16   15 1
    17   17    4 1
    18   18   14 1
    19   19   18 1
    20   20   19 1
    21   21    6 1
    22   22    7 1
    23   23    8 1
    24   24    9 1
    25   25   17 1
    26   26   17 1
    27   27   12 1
    28   28   17 1
    29   29   14 1
    30   30   16 1
    31   31   16 1
    32   32   16 1
    33   33   18 1
    34   34   18 1
    35   35   19 1
    36   36   19 1
    37   37   20 1
    38   38   20 1
    39   39   20 1
    40   12   14 1
@<TRIPOS>SUBSTRUCTURE
     1 RES1 1

@<TRIPOS>CRYSIN
   9.2395    8.4743   19.6340  90.0000  99.0690  90.0000  14 1

