# MOL2 file generated by ConQuest
# Please check atom types

@<TRIPOS>MOLECULE
XUTPOT
    51    55     1
SMALL
NO_CHARGES
****
Generated from CSD

@<TRIPOS>ATOM
      1 O1        -0.1592    3.5999    5.7644 O.2       1 RES1    0.0000
      2 O2         1.2748    0.0169    3.3695 O.2       1 RES1    0.0000
      3 O3        -1.6176    5.2952    3.6475 O.2       1 RES1    0.0000
      4 O4         2.2250    3.7295    0.3736 O.3       1 RES1    0.0000
      5 N1         0.4008    1.6037    4.7685 N.am      1 RES1    0.0000
      6 N2         0.5220    6.0410    3.7623 N.am      1 RES1    0.0000
      7 N3         3.4812    4.1456    0.9549 N.3       1 RES1    0.0000
      8 C1         1.1386    4.8382    3.3307 C.2       1 RES1    0.0000
      9 C2         0.5039    3.4932    3.3921 C.3       1 RES1    0.0000
     10 H1        -0.3553    3.5272    2.8813 H         1 RES1    0.0000
     11 C3         0.2065    2.9786    4.7959 C.2       1 RES1    0.0000
     12 C4         1.0273    1.1803    3.6184 C.2       1 RES1    0.0000
     13 C5         1.3841    2.3845    2.7853 C.3       1 RES1    0.0000
     14 H2         1.1446    2.2319    1.8263 H         1 RES1    0.0000
     15 C6         2.8921    2.6487    2.9299 C.3       1 RES1    0.0000
     16 H3         3.1405    2.5563    3.8833 H         1 RES1    0.0000
     17 H4         3.3852    1.9559    2.4233 H         1 RES1    0.0000
     18 C7         3.3404    4.0316    2.4370 C.3       1 RES1    0.0000
     19 H5         4.2377    4.2161    2.8377 H         1 RES1    0.0000
     20 C8         2.4012    5.0847    2.9381 C.2       1 RES1    0.0000
     21 C9         2.6557    6.4978    3.1093 C.ar      1 RES1    0.0000
     22 C10        3.7700    7.2878    2.8516 C.ar      1 RES1    0.0000
     23 H6         4.5648    6.9022    2.5022 H         1 RES1    0.0000
     24 C11        3.7028    8.6404    3.1113 C.ar      1 RES1    0.0000
     25 H7         4.4571    9.1925    2.9414 H         1 RES1    0.0000
     26 C12        2.5370    9.2017    3.6198 C.ar      1 RES1    0.0000
     27 H8         2.5108   10.1357    3.7891 H         1 RES1    0.0000
     28 C13        1.4159    8.4418    3.8858 C.ar      1 RES1    0.0000
     29 H9         0.6240    8.8378    4.2283 H         1 RES1    0.0000
     30 C14        1.4873    7.0730    3.6343 C.ar      1 RES1    0.0000
     31 C15        0.0080    0.6985    5.8410 C.3       1 RES1    0.0000
     32 H10       -0.5854    0.0057    5.4835 H         1 RES1    0.0000
     33 H11       -0.4610    1.2029    6.5386 H         1 RES1    0.0000
     34 H12        0.8067    0.2794    6.2230 H         1 RES1    0.0000
     35 C16       -0.8550    6.1581    4.0285 C.2       1 RES1    0.0000
     36 C17       -1.3238    7.3505    4.7868 C.3       1 RES1    0.0000
     37 H13       -2.2068    7.1672    5.1703 H         1 RES1    0.0000
     38 H14       -1.3836    8.1193    4.1824 H         1 RES1    0.0000
     39 H15       -0.6900    7.5493    5.5071 H         1 RES1    0.0000
     40 C18        4.5539    3.3221    0.4363 C.ar      1 RES1    0.0000
     41 C19        4.3327    2.1521   -0.2668 C.ar      1 RES1    0.0000
     42 H16        3.4468    1.8460   -0.4227 H         1 RES1    0.0000
     43 C20        5.4178    1.4306   -0.7430 C.ar      1 RES1    0.0000
     44 H17        5.2709    0.6232   -1.2210 H         1 RES1    0.0000
     45 C21        6.6993    1.8677   -0.5321 C.ar      1 RES1    0.0000
     46 H18        7.4346    1.3632   -0.8607 H         1 RES1    0.0000
     47 C22        6.9213    3.0478    0.1623 C.ar      1 RES1    0.0000
     48 H19        7.8080    3.3584    0.3038 H         1 RES1    0.0000
     49 C23        5.8448    3.7717    0.6493 C.ar      1 RES1    0.0000
     50 H20        5.9941    4.5782    1.1292 H         1 RES1    0.0000
     51 H21        2.0579    4.4475   -0.1531 H         1 RES1    0.0000
@<TRIPOS>BOND
     1    1   11 2
     2    2   12 2
     3    3   35 2
     4    4    7 1
     5    5   11 1
     6    6    8 1
     7    7   18 1
     8    8    9 1
     9    9   10 1
    10   11    9 1
    11   12    5 1
    12   13    9 1
    13   14   13 1
    14   15   13 1
    15   16   15 1
    16   17   15 1
    17   18   15 1
    18   19   18 1
    19   20    8 2
    20   21   20 1
    21   22   21 ar
    22   23   22 1
    23   24   22 ar
    24   25   24 1
    25   26   24 ar
    26   27   26 1
    27   28   26 ar
    28   29   28 1
    29   30    6 1
    30   31    5 1
    31   32   31 1
    32   33   31 1
    33   34   31 1
    34   35    6 1
    35   36   35 1
    36   37   36 1
    37   38   36 1
    38   39   36 1
    39   40    7 1
    40   41   40 ar
    41   42   41 1
    42   43   41 ar
    43   44   43 1
    44   45   43 ar
    45   46   45 1
    46   47   45 ar
    47   48   47 1
    48   49   40 ar
    49   50   49 1
    50   51    4 1
    51   12   13 1
    52   18   20 1
    53   21   30 ar
    54   28   30 ar
    55   47   49 ar
@<TRIPOS>SUBSTRUCTURE
     1 RES1 1

@<TRIPOS>CRYSIN
   8.1162   10.6439   12.9645 112.4630  94.1750 104.0460   2 1

