# MOL2 file generated by ConQuest
# Please check atom types

@<TRIPOS>MOLECULE
XUTYAO
    38    40     1
SMALL
NO_CHARGES
****
Generated from CSD

@<TRIPOS>ATOM
      1 O1         0.7985    1.2845    1.0820 O.3       1 RES1    0.0000
      2 O2         3.9421    0.0299    2.0133 O.2       1 RES1    0.0000
      3 O3         0.9200    0.0035    4.4095 O.3       1 RES1    0.0000
      4 O4        -0.8960    0.1139    5.6785 O.2       1 RES1    0.0000
      5 O5         4.9877   -0.0073    9.8601 O.2       1 RES1    0.0000
      6 O6         3.3442   -0.0416   11.1362 O.2       1 RES1    0.0000
      7 N1         3.8060   -0.0486   10.0397 N.pl3     1 RES1    0.0000
      8 C1        -0.0664   -2.3833    2.9876 C.2       1 RES1    0.0000
      9 H1         0.3037   -2.6214    3.8066 H         1 RES1    0.0000
     10 C2         0.6856    1.3384    2.4949 C.3       1 RES1    0.0000
     11 H2         0.4155    2.1950    2.8865 H         1 RES1    0.0000
     12 C3         0.1654    0.0926    3.1570 C.3       1 RES1    0.0000
     13 H3        -0.7958    0.1694    3.3347 H         1 RES1    0.0000
     14 C4         0.4620   -1.1437    2.3339 C.3       1 RES1    0.0000
     15 H4         0.0007   -1.0438    1.4748 H         1 RES1    0.0000
     16 C5         1.9672   -1.2888    2.0376 C.3       1 RES1    0.0000
     17 H5         2.3524   -1.7992    2.7804 H         1 RES1    0.0000
     18 C6         2.0045    1.2832    1.8725 C.3       1 RES1    0.0000
     19 H6         2.5375    2.1053    1.8785 H         1 RES1    0.0000
     20 C7         2.7362    0.0038    1.9542 C.2       1 RES1    0.0000
     21 C8         0.2884    0.0495    5.5673 C.2       1 RES1    0.0000
     22 C9         1.2391   -0.0085    6.7156 C.ar      1 RES1    0.0000
     23 C10        0.7291   -0.0342    8.0002 C.ar      1 RES1    0.0000
     24 H7        -0.1924   -0.0343    8.1270 H         1 RES1    0.0000
     25 C11        1.5643   -0.0597    9.0962 C.ar      1 RES1    0.0000
     26 H8         1.2197   -0.0847    9.9595 H         1 RES1    0.0000
     27 C12        2.9118   -0.0467    8.8800 C.ar      1 RES1    0.0000
     28 C13        3.4490   -0.0411    7.6239 C.ar      1 RES1    0.0000
     29 H9         4.3718   -0.0490    7.5072 H         1 RES1    0.0000
     30 C14        2.6052   -0.0231    6.5263 C.ar      1 RES1    0.0000
     31 H10        2.9578   -0.0213    5.6657 H         1 RES1    0.0000
     32 C15        2.2004   -2.1139    0.7700 C.3       1 RES1    0.0000
     33 H11        1.7412   -2.9542    0.8464 H         1 RES1    0.0000
     34 H12        1.8655   -1.6334    0.0095 H         1 RES1    0.0000
     35 H13        3.1405   -2.2707    0.6600 H         1 RES1    0.0000
     36 C16       -0.9915   -3.1516    2.5139 C.2       1 RES1    0.0000
     37 H14       -1.3822   -2.9047    1.7212 H         1 RES1    0.0000
     38 H15       -1.2688   -3.9467    3.0160 H         1 RES1    0.0000
@<TRIPOS>BOND
     1    1   10 1
     2    2   20 2
     3    3   12 1
     4    4   21 2
     5    5    7 2
     6    6    7 2
     7    7   27 1
     8    8    9 1
     9   10   11 1
    10   12   10 1
    11   13   12 1
    12   14    8 1
    13   15   14 1
    14   16   14 1
    15   17   16 1
    16   18    1 1
    17   19   18 1
    18   20   16 1
    19   21    3 1
    20   22   21 1
    21   23   22 ar
    22   24   23 1
    23   25   23 ar
    24   26   25 1
    25   27   25 ar
    26   28   27 ar
    27   29   28 1
    28   30   22 ar
    29   31   30 1
    30   32   16 1
    31   33   32 1
    32   34   32 1
    33   35   32 1
    34   36    8 2
    35   37   36 1
    36   38   36 1
    37   10   18 1
    38   12   14 1
    39   18   20 1
    40   28   30 ar
@<TRIPOS>SUBSTRUCTURE
     1 RES1 1

@<TRIPOS>CRYSIN
   6.9558    7.1570   16.2052 102.7060  90.8540  98.0610   2 1

