# MOL2 file generated by ConQuest
# Please check atom types

@<TRIPOS>MOLECULE
XUVCEY
    30    31     1
SMALL
NO_CHARGES
****
Generated from CSD

@<TRIPOS>ATOM
      1 O1         5.4132   -1.7464    9.9717 O.3       1 RES1    0.0000
      2 H1         6.0216   -2.0150    9.4450 H         1 RES1    0.0000
      3 O2         5.5629   -2.6631    7.5641 O.2       1 RES1    0.0000
      4 O3         0.7199   -2.0946    9.7307 O.2       1 RES1    0.0000
      5 N1         4.2562   -2.0915    9.2711 N.am      1 RES1    0.0000
      6 C1         4.4255   -2.5260    8.0206 C.2       1 RES1    0.0000
      7 C2         3.1713   -2.8540    7.2671 C.2       1 RES1    0.0000
      8 C3         1.9766   -2.7518    7.8759 C.2       1 RES1    0.0000
      9 H2         1.2165   -3.0207    7.4123 H         1 RES1    0.0000
     10 C4         1.8218   -2.2395    9.2254 C.2       1 RES1    0.0000
     11 C5         3.0417   -1.8113   10.0323 C.3       1 RES1    0.0000
     12 C6         3.2996   -3.2927    5.8603 C.ar      1 RES1    0.0000
     13 C7         4.1429   -2.6314    4.9697 C.ar      1 RES1    0.0000
     14 H3         4.6654   -1.9216    5.2657 H         1 RES1    0.0000
     15 C8         4.2050   -3.0295    3.6410 C.ar      1 RES1    0.0000
     16 H4         4.7625   -2.5793    3.0482 H         1 RES1    0.0000
     17 C9         3.4442   -4.0899    3.1965 C.ar      1 RES1    0.0000
     18 H5         3.4906   -4.3539    2.3061 H         1 RES1    0.0000
     19 C10        2.6176   -4.7555    4.0666 C.ar      1 RES1    0.0000
     20 H6         2.1122   -5.4754    3.7649 H         1 RES1    0.0000
     21 C11        2.5318   -4.3592    5.3946 C.ar      1 RES1    0.0000
     22 H7         1.9605   -4.8071    5.9754 H         1 RES1    0.0000
     23 C12        2.9479   -0.3090   10.2949 C.3       1 RES1    0.0000
     24 H8         3.7562   -0.0062   10.7145 H         1 RES1    0.0000
     25 H9         2.2019   -0.1309   10.8714 H         1 RES1    0.0000
     26 H10        2.8265    0.1546    9.4625 H         1 RES1    0.0000
     27 C13        3.0570   -2.6097   11.3394 C.3       1 RES1    0.0000
     28 H11        3.1107   -3.5475   11.1412 H         1 RES1    0.0000
     29 H12        2.2525   -2.4324   11.8317 H         1 RES1    0.0000
     30 H13        3.8177   -2.3489   11.8641 H         1 RES1    0.0000
@<TRIPOS>BOND
     1    1    2 1
     2    3    6 2
     3    4   10 2
     4    5    1 1
     5    6    5 1
     6    7    6 1
     7    8    7 2
     8    9    8 1
     9   10    8 1
    10   11    5 1
    11   12    7 1
    12   13   12 ar
    13   14   13 1
    14   15   13 ar
    15   16   15 1
    16   17   15 ar
    17   18   17 1
    18   19   17 ar
    19   20   19 1
    20   21   12 ar
    21   22   21 1
    22   23   11 1
    23   24   23 1
    24   25   23 1
    25   26   23 1
    26   27   11 1
    27   28   27 1
    28   29   27 1
    29   30   27 1
    30   10   11 1
    31   19   21 ar
@<TRIPOS>SUBSTRUCTURE
     1 RES1 1

@<TRIPOS>CRYSIN
   7.3955    9.0553   10.1234 112.4920 106.3090  96.1160   2 1

