# MOL2 file generated by ConQuest
# Please check atom types

@<TRIPOS>MOLECULE
XUWCEX
    30    31     1
SMALL
NO_CHARGES
****
Generated from CSD

@<TRIPOS>ATOM
      1 O1         1.7448    1.0654    3.0328 O.2       1 RES1    0.0000
      2 O2         0.8140   -0.0554    4.6055 O.2       1 RES1    0.0000
      3 N1         1.1029    1.0000    4.0580 N.pl3     1 RES1    0.0000
      4 C1        -0.1353    4.6435    5.8105 C.ar      1 RES1    0.0000
      5 C2        -0.3487    3.4251    6.4707 C.ar      1 RES1    0.0000
      6 H1        -0.8467    3.4000    7.3307 H         1 RES1    0.0000
      7 C3         0.0490    2.2266    5.9028 C.ar      1 RES1    0.0000
      8 H2        -0.0414    1.4320    6.3863 H         1 RES1    0.0000
      9 C4         0.6502    2.2550    4.6751 C.ar      1 RES1    0.0000
     10 C5         0.8888    3.4382    3.9918 C.ar      1 RES1    0.0000
     11 H3         1.3708    3.4247    3.1453 H         1 RES1    0.0000
     12 C6         0.4789    4.6226    4.5733 C.ar      1 RES1    0.0000
     13 H4         0.6330    5.3835    4.1058 H         1 RES1    0.0000
     14 C7        -0.5711    5.8862    6.4523 C.2       1 RES1    0.0000
     15 H5        -1.1923    5.7086    7.2572 H         1 RES1    0.0000
     16 O1B       -2.6958   11.9413    9.4089 O.2       1 RES1    0.0000
     17 O2B       -1.7650   13.0621    7.8362 O.2       1 RES1    0.0000
     18 N1B       -2.0539   12.0067    8.3837 N.pl3     1 RES1    0.0000
     19 C1B       -0.8157    8.3632    6.6312 C.ar      1 RES1    0.0000
     20 C2B       -0.6023    9.5816    5.9710 C.ar      1 RES1    0.0000
     21 H1B       -0.1043    9.6067    5.1111 H         1 RES1    0.0000
     22 C3B       -1.0000   10.7801    6.5389 C.ar      1 RES1    0.0000
     23 H2B       -0.9096   11.5747    6.0554 H         1 RES1    0.0000
     24 C4B       -1.6012   10.7517    7.7666 C.ar      1 RES1    0.0000
     25 C5B       -1.8398    9.5685    8.4499 C.ar      1 RES1    0.0000
     26 H3B       -2.3218    9.5820    9.2964 H         1 RES1    0.0000
     27 C6B       -1.4299    8.3841    7.8684 C.ar      1 RES1    0.0000
     28 H4B       -1.5840    7.6232    8.3359 H         1 RES1    0.0000
     29 C7B       -0.3799    7.1205    5.9894 C.2       1 RES1    0.0000
     30 H5B        0.2413    7.2981    5.1845 H         1 RES1    0.0000
@<TRIPOS>BOND
     1    1    3 2
     2    2    3 2
     3    3    9 1
     4    4    5 ar
     5    5    6 1
     6    7    5 ar
     7    8    7 1
     8    9    7 ar
     9   10    9 ar
    10   11   10 1
    11   12    4 ar
    12   13   12 1
    13   14    4 1
    14   15   14 1
    15   16   18 2
    16   17   18 2
    17   18   24 1
    18   19   20 ar
    19   20   21 1
    20   22   20 ar
    21   23   22 1
    22   24   22 ar
    23   25   24 ar
    24   26   25 1
    25   27   19 ar
    26   28   27 1
    27   29   14 2
    28   30   29 1
    29   10   12 ar
    30   19   29 1
    31   25   27 ar
@<TRIPOS>SUBSTRUCTURE
     1 RES1 1

@<TRIPOS>CRYSIN
   3.8180   13.0067   12.4780  90.0000  94.3710  90.0000  14 1

