# MOL2 file generated by ConQuest
# Please check atom types

@<TRIPOS>MOLECULE
XUYRUG
    28    30     1
SMALL
NO_CHARGES
****
Generated from CSD

@<TRIPOS>ATOM
      1 O1         4.1424    1.7778    3.0019 O.3       1 RES1    0.0000
      2 N1         4.0888    0.9350    4.1208 N.2       1 RES1    0.0000
      3 N2         5.4180    1.8440    2.4880 N.2       1 RES1    0.0000
      4 N3         5.7248   -0.3486    5.2533 N.pl3     1 RES1    0.0000
      5 H1         6.5688   -0.6129    5.4189 H         1 RES1    0.0000
      6 H2         5.1154   -0.6972    5.8167 H         1 RES1    0.0000
      7 N4         8.3604    1.4065    2.1015 N.3       1 RES1    0.0000
      8 N5         8.2603    0.1170    3.9619 N.2       1 RES1    0.0000
      9 C1         5.3212    0.4975    4.2887 C.2       1 RES1    0.0000
     10 C2         6.1550    1.0797    3.2441 C.2       1 RES1    0.0000
     11 C3         7.5912    0.8696    3.1010 C.2       1 RES1    0.0000
     12 C4         9.5696    0.1691    3.5180 C.ar      1 RES1    0.0000
     13 C5        10.7176   -0.4119    4.0712 C.ar      1 RES1    0.0000
     14 H3        10.6734   -0.9522    4.8510 H         1 RES1    0.0000
     15 C6        11.9333   -0.1611    3.4256 C.ar      1 RES1    0.0000
     16 H4        12.7344   -0.5264    3.7828 H         1 RES1    0.0000
     17 C7        11.9940    0.6225    2.2559 C.ar      1 RES1    0.0000
     18 H5        12.8353    0.7714    1.8424 H         1 RES1    0.0000
     19 C8        10.8604    1.1808    1.6925 C.ar      1 RES1    0.0000
     20 H6        10.9029    1.6922    0.8936 H         1 RES1    0.0000
     21 C9         9.6494    0.9577    2.3551 C.ar      1 RES1    0.0000
     22 C10        7.9664    2.2606    0.9871 C.3       1 RES1    0.0000
     23 H7         8.7428    2.8097    0.7110 H         1 RES1    0.0000
     24 H8         7.2526    2.8760    1.2880 H         1 RES1    0.0000
     25 C11        7.4681    1.4673   -0.2107 C.3       1 RES1    0.0000
     26 H9         7.1679    2.0852   -0.9093 H         1 RES1    0.0000
     27 H10        6.7211    0.8968    0.0642 H         1 RES1    0.0000
     28 H11        8.1943    0.9094   -0.5578 H         1 RES1    0.0000
@<TRIPOS>BOND
     1    1    2 1
     2    2    9 2
     3    3    1 1
     4    4    5 1
     5    6    4 1
     6    7   11 1
     7    8   11 2
     8    9    4 1
     9   10    3 2
    10   11   10 1
    11   12    8 1
    12   13   12 ar
    13   14   13 1
    14   15   13 ar
    15   16   15 1
    16   17   15 ar
    17   18   17 1
    18   19   17 ar
    19   20   19 1
    20   21    7 1
    21   22    7 1
    22   23   22 1
    23   24   22 1
    24   25   22 1
    25   26   25 1
    26   27   25 1
    27   28   25 1
    28    9   10 1
    29   12   21 ar
    30   19   21 ar
@<TRIPOS>SUBSTRUCTURE
     1 RES1 1

@<TRIPOS>CRYSIN
  11.1800    4.1948   11.8230  90.0000 107.6210  90.0000   4 1

