# MOL2 file generated by ConQuest
# Please check atom types

@<TRIPOS>MOLECULE
YABBIM
    63    67     1
SMALL
NO_CHARGES
****
Generated from CSD

@<TRIPOS>ATOM
      1 O1         4.9201   -0.3265    1.9788 O.3       1 RES1    0.0000
      2 O2         1.5956   -0.8659    4.0488 O.2       1 RES1    0.0000
      3 O3         0.2928   -0.4684    2.2848 O.3       1 RES1    0.0000
      4 N1         4.6859   -1.7148    1.8983 N.2       1 RES1    0.0000
      5 N2         4.4066    2.7595    1.8446 N.3       1 RES1    0.0000
      6 N3         2.1956    2.1520    1.6316 N.3       1 RES1    0.0000
      7 C1         3.6480    0.3520    2.2484 C.3       1 RES1    0.0000
      8 C2         2.5867   -0.6814    1.8820 C.3       1 RES1    0.0000
      9 C3         3.4243   -1.9305    1.8666 C.2       1 RES1    0.0000
     10 C4         3.5525    1.6466    1.4359 C.3       1 RES1    0.0000
     11 C5         3.6697    3.4891    2.8623 C.3       1 RES1    0.0000
     12 C6         2.2601    3.4835    2.2599 C.3       1 RES1    0.0000
     13 C7         2.9033   -3.2904    1.7045 C.ar      1 RES1    0.0000
     14 C8         1.5964   -3.5204    1.4062 C.ar      1 RES1    0.0000
     15 C9         1.1070   -4.8149    1.2000 C.ar      1 RES1    0.0000
     16 C10        1.9354   -5.8682    1.3007 C.ar      1 RES1    0.0000
     17 C11        3.2434   -5.6752    1.6326 C.ar      1 RES1    0.0000
     18 C12        3.7392   -4.3976    1.8388 C.ar      1 RES1    0.0000
     19 C13        1.1049    3.7503    3.1596 C.ar      1 RES1    0.0000
     20 C14        0.1447    4.6900    2.8450 C.ar      1 RES1    0.0000
     21 C15       -0.9593    4.8802    3.6738 C.ar      1 RES1    0.0000
     22 C16       -1.1137    4.1393    4.8248 C.ar      1 RES1    0.0000
     23 C17       -0.1603    3.2365    5.1433 C.ar      1 RES1    0.0000
     24 C18        0.9357    3.0150    4.3279 C.ar      1 RES1    0.0000
     25 C19        4.2189    4.8859    3.1040 C.ar      1 RES1    0.0000
     26 C20        4.2980    5.3941    4.3913 C.ar      1 RES1    0.0000
     27 C21        4.7688    6.6745    4.6042 C.ar      1 RES1    0.0000
     28 C22        5.1799    7.4439    3.5491 C.ar      1 RES1    0.0000
     29 C23        5.1144    6.9499    2.2733 C.ar      1 RES1    0.0000
     30 C24        4.6427    5.6695    2.0517 C.ar      1 RES1    0.0000
     31 C25        1.4560   -0.6870    2.8699 C.2       1 RES1    0.0000
     32 C26       -0.8431   -0.3662    3.1587 C.3       1 RES1    0.0000
     33 C27        5.7833    2.4359    2.1755 C.3       1 RES1    0.0000
     34 C28        1.3573    2.1775    0.4278 C.3       1 RES1    0.0000
     35 H1         3.5709    0.5735    3.2162 H         1 RES1    0.0000
     36 H2         2.2577   -0.4798    0.9870 H         1 RES1    0.0000
     37 H3         3.7206    1.4479    0.5026 H         1 RES1    0.0000
     38 H4         3.6482    2.9696    3.6977 H         1 RES1    0.0000
     39 H5         2.2568    4.1648    1.5606 H         1 RES1    0.0000
     40 H6         0.9662   -2.7567    1.3477 H         1 RES1    0.0000
     41 H7         0.1268   -4.9597    0.9841 H         1 RES1    0.0000
     42 H8         1.5976   -6.7795    1.1395 H         1 RES1    0.0000
     43 H9         3.8324   -6.4701    1.7199 H         1 RES1    0.0000
     44 H10        4.6976   -4.2897    2.0882 H         1 RES1    0.0000
     45 H11        0.2623    5.2493    2.0345 H         1 RES1    0.0000
     46 H12       -1.6770    5.5389    3.4906 H         1 RES1    0.0000
     47 H13       -1.8881    4.2670    5.4301 H         1 RES1    0.0000
     48 H14       -0.2943    2.6942    5.9624 H         1 RES1    0.0000
     49 H15        1.6240    2.3507    4.6109 H         1 RES1    0.0000
     50 H16        4.0588    4.8405    5.1740 H         1 RES1    0.0000
     51 H17        4.8013    7.0436    5.5183 H         1 RES1    0.0000
     52 H18        5.5350    8.3637    3.7131 H         1 RES1    0.0000
     53 H19        5.3778    7.5092    1.5088 H         1 RES1    0.0000
     54 H20        4.6474    5.2749    1.1271 H         1 RES1    0.0000
     55 H21       -0.7628    0.3378    3.8541 H         1 RES1    0.0000
     56 H22       -1.6904   -0.2186    2.7433 H         1 RES1    0.0000
     57 H23       -0.9808   -1.1924    3.7208 H         1 RES1    0.0000
     58 H24        5.8592    1.8737    2.9582 H         1 RES1    0.0000
     59 H25        6.2266    1.9561    1.4532 H         1 RES1    0.0000
     60 H26        6.3146    3.2223    2.3424 H         1 RES1    0.0000
     61 H27        0.4437    2.4501    0.6417 H         1 RES1    0.0000
     62 H28        1.6733    2.8049   -0.2340 H         1 RES1    0.0000
     63 H29        1.2949    1.3201    0.0048 H         1 RES1    0.0000
@<TRIPOS>BOND
     1    1    4 1
     2    2   31 2
     3    3   31 1
     4    4    9 2
     5    5   10 1
     6    6   10 1
     7    7    1 1
     8    8    7 1
     9    9    8 1
    10   10    7 1
    11   11    5 1
    12   12    6 1
    13   13    9 1
    14   14   13 ar
    15   15   14 ar
    16   16   15 ar
    17   17   16 ar
    18   18   13 ar
    19   19   12 1
    20   20   19 ar
    21   21   20 ar
    22   22   21 ar
    23   23   22 ar
    24   24   19 ar
    25   25   11 1
    26   26   25 ar
    27   27   26 ar
    28   28   27 ar
    29   29   28 ar
    30   30   25 ar
    31   31    8 1
    32   32    3 1
    33   33    5 1
    34   34    6 1
    35   35    7 1
    36   36    8 1
    37   37   10 1
    38   38   11 1
    39   39   12 1
    40   40   14 1
    41   41   15 1
    42   42   16 1
    43   43   17 1
    44   44   18 1
    45   45   20 1
    46   46   21 1
    47   47   22 1
    48   48   23 1
    49   49   24 1
    50   50   26 1
    51   51   27 1
    52   52   28 1
    53   53   29 1
    54   54   30 1
    55   55   32 1
    56   56   32 1
    57   57   32 1
    58   58   33 1
    59   59   33 1
    60   60   33 1
    61   61   34 1
    62   62   34 1
    63   63   34 1
    64   11   12 1
    65   17   18 ar
    66   23   24 ar
    67   29   30 ar
@<TRIPOS>SUBSTRUCTURE
     1 RES1 1

@<TRIPOS>CRYSIN
   9.1300   28.3900   10.0800  90.0000 107.9000  90.0000 231 1

