# MOL2 file generated by ConQuest
# Please check atom types

@<TRIPOS>MOLECULE
YABFIR
    84    74     2
SMALL
NO_CHARGES
****
Generated from CSD

@<TRIPOS>ATOM
      1 N1        12.5931   -4.1269   13.9467 N.3       1 RES1    0.0000
      2 N2        12.0557    0.2559   10.5625 N.2       1 RES1    0.0000
      3 N3        11.1318    1.0720   10.8169 N.2       1 RES1    0.0000
      4 N4         9.9466    6.6433    7.9299 N.2       1 RES1    0.0000
      5 N5        11.2281    5.8770    6.2646 N.3       1 RES1    0.0000
      6 N6        10.9322   10.1029    3.7139 N.pl3     1 RES1    0.0000
      7 C1        16.5344   -4.2606   16.7116 C.3       1 RES1    0.0000
      8 H1        15.8012   -4.6580   17.1869 H         1 RES1    0.0000
      9 H2        16.6113   -3.3356   16.9576 H         1 RES1    0.0000
     10 H3        17.3470   -4.7195   16.9359 H         1 RES1    0.0000
     11 C2        16.2940   -4.3670   15.2572 C.2       1 RES1    0.0000
     12 C3        14.8190   -5.1339   13.6203 C.3       1 RES1    0.0000
     13 H4        15.2638   -5.9125   13.2505 H         1 RES1    0.0000
     14 H5        15.0982   -4.3531   13.1166 H         1 RES1    0.0000
     15 C4        13.3395   -5.2992   13.5316 C.3       1 RES1    0.0000
     16 H6        13.1025   -5.5130   12.6161 H         1 RES1    0.0000
     17 H7        13.0751   -6.0495   14.0873 H         1 RES1    0.0000
     18 C5        12.4879   -3.0296   13.1417 C.ar      1 RES1    0.0000
     19 C6        13.0466   -2.9900   11.8563 C.ar      1 RES1    0.0000
     20 H8        13.5230   -3.7261   11.5467 H         1 RES1    0.0000
     21 C7        12.9104   -1.9017   11.0496 C.ar      1 RES1    0.0000
     22 H9        13.3110   -1.8956   10.2111 H         1 RES1    0.0000
     23 C8        12.1773   -0.7957   11.4747 C.ar      1 RES1    0.0000
     24 C9        11.6435   -0.8214   12.7584 C.ar      1 RES1    0.0000
     25 H10       11.1719   -0.0812   13.0664 H         1 RES1    0.0000
     26 C10       11.7917   -1.8882   13.5668 C.ar      1 RES1    0.0000
     27 H11       11.4269   -1.8678   14.4220 H         1 RES1    0.0000
     28 C11       11.0656    2.1565    9.9065 C.ar      1 RES1    0.0000
     29 C12        9.8717    2.8687    9.8395 C.ar      1 RES1    0.0000
     30 H12        9.1532    2.6022   10.3651 H         1 RES1    0.0000
     31 C13        9.7317    3.9451    9.0194 C.ar      1 RES1    0.0000
     32 H13        8.9165    4.3903    8.9809 H         1 RES1    0.0000
     33 C14       10.7976    4.3919    8.2328 C.ar      1 RES1    0.0000
     34 C15       12.0070    3.6753    8.3215 C.ar      1 RES1    0.0000
     35 H14       12.7334    3.9488    7.8110 H         1 RES1    0.0000
     36 C16       12.1418    2.5911    9.1366 C.ar      1 RES1    0.0000
     37 H15       12.9544    2.1405    9.1801 H         1 RES1    0.0000
     38 C17       10.6534    5.6153    7.4863 C.2       1 RES1    0.0000
     39 C18       10.0711    7.6315    6.9759 C.ar      1 RES1    0.0000
     40 C19        9.5706    8.9102    6.9641 C.ar      1 RES1    0.0000
     41 H16        9.0483    9.2255    7.6654 H         1 RES1    0.0000
     42 C20        9.8603    9.7010    5.8980 C.ar      1 RES1    0.0000
     43 H17        9.5378   10.5730    5.8696 H         1 RES1    0.0000
     44 C21       10.6399    9.2161    4.8453 C.ar      1 RES1    0.0000
     45 C22       11.1669    7.9470    4.8352 C.ar      1 RES1    0.0000
     46 H18       11.6933    7.6379    4.1340 H         1 RES1    0.0000
     47 C23       10.8712    7.1648    5.9215 C.ar      1 RES1    0.0000
     48 C24       12.0144    4.9924    5.3993 C.3       1 RES1    0.0000
     49 H19       11.7165    5.0968    4.4821 H         1 RES1    0.0000
     50 H20       11.8580    4.0712    5.6604 H         1 RES1    0.0000
     51 C25       13.5022    5.2846    5.4763 C.3       1 RES1    0.0000
     52 H21       13.9780    4.6768    4.9055 H         1 RES1    0.0000
     53 H22       13.8034    5.1765    6.3817 H         1 RES1    0.0000
     54 H23       13.6656    6.1866    5.1901 H         1 RES1    0.0000
     55 O1        17.0512   -3.9704   14.4220 O.2       1 RES1    0.0000
     56 O2        15.1622   -4.9798   14.9944 O.3       1 RES1    0.0000
     57 O3        10.4031   11.1912    3.6921 O.2       1 RES1    0.0000
     58 O4        11.7170    9.7226    2.8854 O.2       1 RES1    0.0000
     59 O5        11.0994   -4.5928   17.9066 O.2       1 RES1    0.0000
     60 O6        11.6879   -2.6552   17.1702 O.3       1 RES1    0.0000
     61 C26        9.9752   -3.0535   18.9242 C.3       1 RES1    0.0000
     62 H24        9.8651   -2.1001   18.9242 H         1 RES1    0.0000
     63 H25       10.2377   -3.3464   19.7995 H         1 RES1    0.0000
     64 H26        9.1453   -3.4717   18.6815 H         1 RES1    0.0000
     65 C27       11.0187   -3.4276   17.9451 C.2       1 RES1    0.0000
     66 C28       12.5047   -3.5109   16.2982 C.3       1 RES1    0.0000
     67 H27       12.9174   -4.1951   16.8472 H         1 RES1    0.0000
     68 H28       13.2178   -2.9686   15.9267 H         1 RES1    0.0000
     69 C29       11.7780   -4.1995   15.1434 C.3       1 RES1    0.0000
     70 H29       11.6084   -5.1273   15.3693 H         1 RES1    0.0000
     71 H30       10.9248   -3.7647   14.9877 H         1 RES1    0.0000
     72 O7        10.3636   -2.1239   16.7367 Du        2 SUP2    0.0000
     73 O8        10.7034   -4.2768   17.1233 Du        2 SUP2    0.0000
     74 C30       10.1399   -2.6040   18.8740 Du        2 SUP2    0.0000
     75 H31       10.1005   -3.3602   19.4631 Du        2 SUP2    0.0000
     76 H32        9.3006   -2.1388   18.8924 Du        2 SUP2    0.0000
     77 H33       10.8397   -2.0131   19.1585 Du        2 SUP2    0.0000
     78 C31       10.4127   -3.0633   17.5100 Du        2 SUP2    0.0000
     79 C32       10.9497   -4.4457   15.6857 Du        2 SUP2    0.0000
     80 H34       10.3640   -3.8642   15.1769 Du        2 SUP2    0.0000
     81 H35       10.7759   -5.3629   15.4229 Du        2 SUP2    0.0000
     82 C33       12.3621   -4.1010   15.4212 Du        2 SUP2    0.0000
     83 H36       12.9465   -4.7400   15.8597 Du        2 SUP2    0.0000
     84 H37       12.5585   -3.2179   15.7727 Du        2 SUP2    0.0000
@<TRIPOS>BOND
     1    1   15 1
     2    2    3 2
     3    3   28 1
     4    4   38 2
     5    5   38 1
     6    6   44 1
     7    7    8 1
     8    9    7 1
     9   10    7 1
    10   11    7 1
    11   12   13 1
    12   14   12 1
    13   15   12 1
    14   16   15 1
    15   17   15 1
    16   18    1 1
    17   19   18 ar
    18   20   19 1
    19   21   19 ar
    20   22   21 1
    21   23    2 1
    22   24   23 ar
    23   25   24 1
    24   26   18 ar
    25   27   26 1
    26   28   29 ar
    27   29   30 1
    28   31   29 ar
    29   32   31 1
    30   33   31 ar
    31   34   33 ar
    32   35   34 1
    33   36   28 ar
    34   37   36 1
    35   38   33 1
    36   39    4 1
    37   40   39 ar
    38   41   40 1
    39   42   40 ar
    40   43   42 1
    41   44   42 ar
    42   45   44 ar
    43   46   45 1
    44   47    5 1
    45   48    5 1
    46   49   48 1
    47   50   48 1
    48   51   48 1
    49   52   51 1
    50   53   51 1
    51   54   51 1
    52   55   11 2
    53   56   11 1
    54   57    6 2
    55   58    6 2
    56   59   65 2
    57   60   65 1
    58   61   62 1
    59   63   61 1
    60   64   61 1
    61   65   61 1
    62   66   60 1
    63   67   66 1
    64   68   66 1
    65   69    1 1
    66   70   69 1
    67   71   69 1
    68   12   56 1
    69   21   23 ar
    70   24   26 ar
    71   34   36 ar
    72   39   47 ar
    73   45   47 ar
    74   66   69 1
@<TRIPOS>SUBSTRUCTURE
     1 RES1 1
     2 SUP2 72

@<TRIPOS>CRYSIN
   9.3690    9.9100   17.0850  78.5800  83.0800  62.8700   2 1

