# MOL2 file generated by ConQuest
# Please check atom types

@<TRIPOS>MOLECULE
YABMAQ
    41    44     1
SMALL
NO_CHARGES
****
Generated from CSD

@<TRIPOS>ATOM
      1 O1         5.1998    1.9652   10.6000 O.2       1 RES1    0.0000
      2 N1         0.9612    2.1114    9.1667 N.3       1 RES1    0.0000
      3 C1         3.9822    2.1454   10.6929 C.2       1 RES1    0.0000
      4 C2         1.6920    2.2608   11.5511 C.3       1 RES1    0.0000
      5 N2         0.5812    1.8933   14.3414 N.pl3     1 RES1    0.0000
      6 C3         2.4734    2.8313    7.3971 C.ar      1 RES1    0.0000
      7 O2         0.5259    0.7010   14.0632 O.2       1 RES1    0.0000
      8 N3         3.1835    2.6298    9.7260 N.am      1 RES1    0.0000
      9 C4         0.1803    2.2480    6.8589 C.ar      1 RES1    0.0000
     10 O3         1.1140    2.3234   15.3551 O.2       1 RES1    0.0000
     11 C5         1.1954    2.4065    7.8137 C.ar      1 RES1    0.0000
     12 C6         0.4515    4.4009   11.4108 C.3       1 RES1    0.0000
     13 C7         1.7976    2.8396   10.1097 C.3       1 RES1    0.0000
     14 C8        -0.0203    2.8736   13.3733 C.3       1 RES1    0.0000
     15 C9         1.4486    4.3481   10.2409 C.3       1 RES1    0.0000
     16 C10        1.6773    2.9626    5.1040 C.ar      1 RES1    0.0000
     17 C11        1.0614    3.3859   12.4045 C.3       1 RES1    0.0000
     18 C12        3.6174    2.9679    8.3756 C.3       1 RES1    0.0000
     19 C13        0.4260    2.5362    5.5185 C.ar      1 RES1    0.0000
     20 C14        2.6932    3.1052    6.0412 C.ar      1 RES1    0.0000
     21 C15        3.1334    1.8541   11.9236 C.3       1 RES1    0.0000
     22 C16        0.2759    5.7984   12.0060 C.3       1 RES1    0.0000
     23 H1         4.3602    2.3016    8.1639 H         1 RES1    0.0000
     24 H2         3.6128    3.3731    5.7952 H         1 RES1    0.0000
     25 H3         1.7360    3.7957   12.9055 H         1 RES1    0.0000
     26 H4         2.2219    4.8295   10.5045 H         1 RES1    0.0000
     27 H5        -0.2184    6.4368   11.3755 H         1 RES1    0.0000
     28 H6         0.1734    2.0978    9.3637 H         1 RES1    0.0000
     29 H7        -0.7595    1.9393    7.1285 H         1 RES1    0.0000
     30 H8         1.1325    1.4639   11.5343 H         1 RES1    0.0000
     31 H9        -0.2987    2.4148    4.8666 H         1 RES1    0.0000
     32 H10       -0.4660    3.6372   13.9451 H         1 RES1    0.0000
     33 H11        3.2292    0.9055   12.1595 H         1 RES1    0.0000
     34 H12       -0.4006    4.0372   11.1184 H         1 RES1    0.0000
     35 H13       -0.2167    5.7803   12.8394 H         1 RES1    0.0000
     36 H14        1.0953    4.7314    9.3777 H         1 RES1    0.0000
     37 H15       -0.6980    2.3317   12.8240 H         1 RES1    0.0000
     38 H16        4.0002    3.9240    8.3803 H         1 RES1    0.0000
     39 H17        1.1059    6.1274   12.2157 H         1 RES1    0.0000
     40 H18        3.5085    2.2940   12.6891 H         1 RES1    0.0000
     41 H19        1.8789    3.2071    4.1318 H         1 RES1    0.0000
@<TRIPOS>BOND
     1    1    3 2
     2    2   11 1
     3    3    8 1
     4    4   13 1
     5    5    7 2
     6    6   11 ar
     7    8   13 1
     8    9   11 ar
     9   10    5 2
    10   12   15 1
    11   13    2 1
    12   14    5 1
    13   15   13 1
    14   16   19 ar
    15   17    4 1
    16   18    6 1
    17   19    9 ar
    18   20    6 ar
    19   21    3 1
    20   22   12 1
    21   23   18 1
    22   24   20 1
    23   25   17 1
    24   26   15 1
    25   27   22 1
    26   28    2 1
    27   29    9 1
    28   30    4 1
    29   31   19 1
    30   32   14 1
    31   33   21 1
    32   34   12 1
    33   35   22 1
    34   36   15 1
    35   37   14 1
    36   38   18 1
    37   39   22 1
    38   40   21 1
    39   41   16 1
    40    4   21 1
    41    8   18 1
    42   12   17 1
    43   14   17 1
    44   16   20 ar
@<TRIPOS>SUBSTRUCTURE
     1 RES1 1

@<TRIPOS>CRYSIN
   6.9927    7.5461   14.0940  90.0000  94.5770  90.0000   4 1

