# MOL2 file generated by ConQuest
# Please check atom types

@<TRIPOS>MOLECULE
YACFOX
    19    19     1
SMALL
NO_CHARGES
****
Generated from CSD

@<TRIPOS>ATOM
      1 O1         5.2526   12.1643    2.9935 O.3       1 RES1    0.0000
      2 O2         3.5173   11.8792    5.3059 O.3       1 RES1    0.0000
      3 O3         1.8621    9.9808    1.9281 O.3       1 RES1    0.0000
      4 O4         4.3248    7.3621    2.8064 O.3       1 RES1    0.0000
      5 O5         2.7713    6.1384    0.6247 O.3       1 RES1    0.0000
      6 O6         0.4650    7.6941    0.7257 O.3       1 RES1    0.0000
      7 O7         0.5747   11.9234    0.4133 O.3       1 RES1    0.0000
      8 O8         3.0958    8.4438    5.5752 O.2       1 RES1    0.0000
      9 O9         1.3324    9.4733    4.8925 O.2       1 RES1    0.0000
     10 N1         2.5378    9.2511    4.8542 N.pl3     1 RES1    0.0000
     11 C1         3.8245   12.3692    2.9637 C.3       1 RES1    0.0000
     12 C2         3.0966   11.5083    3.9751 C.3       1 RES1    0.0000
     13 C3         3.3709    9.9995    3.8240 C.3       1 RES1    0.0000
     14 C4         3.1105    9.4573    2.4032 C.3       1 RES1    0.0000
     15 C5         3.1162    7.9337    2.2756 C.3       1 RES1    0.0000
     16 C6         2.9099    7.5776    0.7828 C.3       1 RES1    0.0000
     17 C7         1.6807    8.2617    0.1894 C.3       1 RES1    0.0000
     18 C8         1.7246    9.7625    0.5002 C.3       1 RES1    0.0000
     19 C9         0.5090   10.5216    0.0532 C.3       1 RES1    0.0000
@<TRIPOS>BOND
     1    1   11 1
     2    2   12 1
     3    3   14 1
     4    4   15 1
     5    5   16 1
     6    6   17 1
     7    7   19 1
     8    8   10 2
     9    9   10 2
    10   10   13 1
    11   11   12 1
    12   12   13 1
    13   13   14 1
    14   14   15 1
    15   15   16 1
    16   16   17 1
    17   17   18 1
    18   18    3 1
    19   19   18 1
@<TRIPOS>SUBSTRUCTURE
     1 RES1 1

@<TRIPOS>CRYSIN
   5.7670   13.3880    7.9360  90.0000  99.4600  90.0000   4 1

