# MOL2 file generated by ConQuest
# Please check atom types

@<TRIPOS>MOLECULE
YACLOD
    31    34     1
SMALL
NO_CHARGES
****
Generated from CSD

@<TRIPOS>ATOM
      1 O1         5.2094    2.3950    2.7100 O.2       1 RES1    0.0000
      2 O2         5.9084    3.0596    4.5978 O.2       1 RES1    0.0000
      3 O3         6.0025   -0.4323    7.8992 O.2       1 RES1    0.0000
      4 O4         4.2500   -1.6412    8.1763 O.2       1 RES1    0.0000
      5 O5         1.0027   -1.4170    5.6541 O.3       1 RES1    0.0000
      6 O6         0.2857   -0.1891    3.8680 O.2       1 RES1    0.0000
      7 O7         1.9491    3.3068    1.6076 O.3       1 RES1    0.0000
      8 O8         2.7223    3.8971    3.6462 O.2       1 RES1    0.0000
      9 N1         5.2127    2.3774    3.9234 N.pl3     1 RES1    0.0000
     10 N2         4.8900   -0.7936    7.5820 N.pl3     1 RES1    0.0000
     11 N3         2.1249   -1.5021    6.4518 N.2       1 RES1    0.0000
     12 N4         1.2154   -0.4248    4.6471 N.pl3     1 RES1    0.0000
     13 N5         2.5172    1.6817    2.9903 N.am      1 RES1    0.0000
     14 C1         3.1227    1.0584    4.0989 C.2       1 RES1    0.0000
     15 C2         4.3493    1.3846    4.5978 C.2       1 RES1    0.0000
     16 C3         4.8859    0.7902    5.7650 C.2       1 RES1    0.0000
     17 C4         4.2574   -0.2134    6.4086 C.2       1 RES1    0.0000
     18 C5         2.9730   -0.6369    5.9529 C.2       1 RES1    0.0000
     19 C6         2.4620    0.0392    4.8165 C.2       1 RES1    0.0000
     20 C7         2.1399    1.0469    1.7646 C.ar      1 RES1    0.0000
     21 C8         2.1259   -0.2533    1.3581 C.ar      1 RES1    0.0000
     22 C9         1.7517   -0.4728    0.0277 C.ar      1 RES1    0.0000
     23 C10        1.4220    0.5944   -0.8069 C.ar      1 RES1    0.0000
     24 C11        1.4437    1.8911   -0.3788 C.ar      1 RES1    0.0000
     25 C12        1.8078    2.1072    0.9362 C.ar      1 RES1    0.0000
     26 C13        2.4503    3.0528    2.8671 C.2       1 RES1    0.0000
     27 H1         5.6597    1.1347    6.0976 H         1 RES1    0.0000
     28 H2         2.3778   -1.1077    1.9709 H         1 RES1    0.0000
     29 H3         1.7372   -1.4521   -0.3696 H         1 RES1    0.0000
     30 H4         1.2017    0.3445   -1.7862 H         1 RES1    0.0000
     31 H5         1.1547    2.6746   -0.8315 H         1 RES1    0.0000
@<TRIPOS>BOND
     1    1    9 2
     2    2    9 2
     3    3   10 2
     4    4   10 2
     5    5   11 1
     6    6   12 1
     7    7   25 1
     8    8   26 2
     9    9   15 1
    10   10   17 1
    11   11   18 2
    12   12    5 1
    13   13   14 1
    14   14   15 2
    15   15   16 1
    16   16   17 2
    17   17   18 1
    18   18   19 1
    19   19   12 2
    20   20   13 1
    21   21   20 ar
    22   22   21 ar
    23   23   22 ar
    24   24   23 ar
    25   25   20 ar
    26   26    7 1
    27   27   16 1
    28   28   21 1
    29   29   22 1
    30   30   23 1
    31   31   24 1
    32   13   26 1
    33   14   19 1
    34   24   25 ar
@<TRIPOS>SUBSTRUCTURE
     1 RES1 1

@<TRIPOS>CRYSIN
   6.8380    6.7540   30.8450  90.0000  93.2300  90.0000  14 1

