# MOL2 file generated by ConQuest
# Please check atom types

@<TRIPOS>MOLECULE
YADHAP
    81    84     1
SMALL
NO_CHARGES
****
Generated from CSD

@<TRIPOS>ATOM
      1 C1         6.0511   11.5366    2.1856 C.3       1 RES1    0.0000
      2 H1         6.5620   11.5508    3.0210 H         1 RES1    0.0000
      3 C2         7.0342   11.4226    1.0019 C.3       1 RES1    0.0000
      4 H2         6.5394   11.1393    0.2048 H         1 RES1    0.0000
      5 C3         7.5132   12.8558    0.8034 C.2       1 RES1    0.0000
      6 C4         6.6532   14.8678    2.0149 C.2       1 RES1    0.0000
      7 H3         7.2471   15.5398    1.7698 H         1 RES1    0.0000
      8 C5         5.7719   14.9604    3.0079 C.2       1 RES1    0.0000
      9 C6         5.0022   13.6592    3.1284 C.3       1 RES1    0.0000
     10 H4         5.2570   13.1989    3.9548 H         1 RES1    0.0000
     11 C7         3.4979   13.8158    3.0723 C.ar      1 RES1    0.0000
     12 C8         2.6817   13.2367    4.0339 C.ar      1 RES1    0.0000
     13 H5         3.0659   12.7520    4.7289 H         1 RES1    0.0000
     14 C9         1.2954   13.3738    3.9721 C.ar      1 RES1    0.0000
     15 H6         0.7530   12.9719    4.6100 H         1 RES1    0.0000
     16 C10        0.7516   14.1045    2.9639 C.ar      1 RES1    0.0000
     17 C11        1.5049   14.7145    2.0248 C.ar      1 RES1    0.0000
     18 H7         1.1069   15.2253    1.3570 H         1 RES1    0.0000
     19 C12        2.9003   14.5656    2.0746 C.ar      1 RES1    0.0000
     20 H8         3.4282   14.9746    1.4283 H         1 RES1    0.0000
     21 C13        5.5441   16.0616    3.9491 C.2       1 RES1    0.0000
     22 C14        6.1745   17.4368    3.7260 C.3       1 RES1    0.0000
     23 H9         6.0242   17.9610    4.5399 H         1 RES1    0.0000
     24 C15        5.4665   18.1549    2.5920 C.3       1 RES1    0.0000
     25 H10        5.7835   19.0582    2.5376 H         1 RES1    0.0000
     26 H11        4.5210   18.1573    2.7560 H         1 RES1    0.0000
     27 H12        5.6448   17.7033    1.7645 H         1 RES1    0.0000
     28 C16        8.4602   17.2947    4.5341 C.2       1 RES1    0.0000
     29 C17       10.8599   17.1642    5.0484 C.3       1 RES1    0.0000
     30 C18       10.7413   15.8873    5.9000 C.3       1 RES1    0.0000
     31 H13       10.1092   16.0316    6.6066 H         1 RES1    0.0000
     32 H14       11.5982   15.6745    6.2766 H         1 RES1    0.0000
     33 H15       10.4432   15.1614    5.3470 H         1 RES1    0.0000
     34 C19       12.0484   17.0814    4.1114 C.3       1 RES1    0.0000
     35 H16       11.9549   16.3106    3.5463 H         1 RES1    0.0000
     36 H17       12.8552   17.0058    4.6247 H         1 RES1    0.0000
     37 H18       12.0852   17.8712    3.5688 H         1 RES1    0.0000
     38 C20       10.9307   18.4079    5.8870 C.3       1 RES1    0.0000
     39 H19       10.9301   19.1788    5.3161 H         1 RES1    0.0000
     40 H20       11.7370   18.3961    6.4091 H         1 RES1    0.0000
     41 H21       10.1715   18.4410    6.4720 H         1 RES1    0.0000
     42 C21        4.9569   10.4728    2.2951 C.3       1 RES1    0.0000
     43 H22        4.4219   10.7043    3.0823 H         1 RES1    0.0000
     44 C22        4.0171   10.4276    1.1418 C.3       1 RES1    0.0000
     45 H23        3.6037   11.2859    1.0334 H         1 RES1    0.0000
     46 H24        3.3433    9.7656    1.3041 H         1 RES1    0.0000
     47 H25        4.5011   10.2030    0.3441 H         1 RES1    0.0000
     48 C23        5.5429    9.0990    2.5606 C.3       1 RES1    0.0000
     49 H26        6.1827    8.8859    1.8771 H         1 RES1    0.0000
     50 H27        4.8409    8.4438    2.5554 H         1 RES1    0.0000
     51 H28        5.9761    9.0964    3.4169 H         1 RES1    0.0000
     52 C24        8.8044   10.0022    0.1802 C.2       1 RES1    0.0000
     53 C25       10.7382    8.7653   -0.3802 C.3       1 RES1    0.0000
     54 H29       11.2161    9.4771   -0.8322 H         1 RES1    0.0000
     55 H30       10.2366    8.2570   -1.0375 H         1 RES1    0.0000
     56 C26       11.6866    7.8791    0.3593 C.ar      1 RES1    0.0000
     57 C27       12.5721    8.3988    1.2994 C.ar      1 RES1    0.0000
     58 H31       12.5834    9.3139    1.4613 H         1 RES1    0.0000
     59 C28       13.4270    7.5784    1.9913 C.ar      1 RES1    0.0000
     60 H32       14.0413    7.9472    2.5837 H         1 RES1    0.0000
     61 C29       13.3857    6.2187    1.8158 C.ar      1 RES1    0.0000
     62 H33       13.9422    5.6631    2.3108 H         1 RES1    0.0000
     63 C30       12.5098    5.6867    0.9009 C.ar      1 RES1    0.0000
     64 H34       12.4871    4.7669    0.7673 H         1 RES1    0.0000
     65 C31       11.6710    6.4978    0.1823 C.ar      1 RES1    0.0000
     66 H35       11.0830    6.1218   -0.4316 H         1 RES1    0.0000
     67 N1         5.4738   12.8818    1.9536 N.3       1 RES1    0.0000
     68 N2         6.5612   13.6500    1.4068 N.am      1 RES1    0.0000
     69 N3        -0.7103   14.2984    2.9094 N.pl3     1 RES1    0.0000
     70 N4         7.6098   17.3869    3.5076 N.am      1 RES1    0.0000
     71 H36        7.9181   17.4172    2.7046 H         1 RES1    0.0000
     72 N5         8.1140   10.5097    1.2245 N.am      1 RES1    0.0000
     73 H37        8.3229   10.2834    2.0269 H         1 RES1    0.0000
     74 O1         8.5140   13.2395    0.2739 O.2       1 RES1    0.0000
     75 O2        -1.3778   13.7191    3.7867 O.2       1 RES1    0.0000
     76 O3        -1.1672   15.0645    2.1060 O.2       1 RES1    0.0000
     77 O4         4.7893   15.8992    4.8871 O.2       1 RES1    0.0000
     78 O5         8.1074   17.2600    5.7084 O.2       1 RES1    0.0000
     79 O6         9.7262   17.2649    4.1020 O.3       1 RES1    0.0000
     80 O7         8.5210   10.1313   -0.9799 O.2       1 RES1    0.0000
     81 O8         9.8578    9.3012    0.6343 O.3       1 RES1    0.0000
@<TRIPOS>BOND
     1    1    2 1
     2    3    1 1
     3    4    3 1
     4    5    3 1
     5    6    7 1
     6    8    6 2
     7    9    8 1
     8   10    9 1
     9   11    9 1
    10   12   11 ar
    11   13   12 1
    12   14   12 ar
    13   15   14 1
    14   16   14 ar
    15   17   16 ar
    16   18   17 1
    17   19   11 ar
    18   20   19 1
    19   21    8 1
    20   22   21 1
    21   23   22 1
    22   24   22 1
    23   25   24 1
    24   26   24 1
    25   27   24 1
    26   28   70 1
    27   29   30 1
    28   30   31 1
    29   32   30 1
    30   33   30 1
    31   34   29 1
    32   35   34 1
    33   36   34 1
    34   37   34 1
    35   38   29 1
    36   39   38 1
    37   40   38 1
    38   41   38 1
    39   42    1 1
    40   43   42 1
    41   44   42 1
    42   45   44 1
    43   46   44 1
    44   47   44 1
    45   48   42 1
    46   49   48 1
    47   50   48 1
    48   51   48 1
    49   52   72 1
    50   53   54 1
    51   55   53 1
    52   56   53 1
    53   57   56 ar
    54   58   57 1
    55   59   57 ar
    56   60   59 1
    57   61   59 ar
    58   62   61 1
    59   63   61 ar
    60   64   63 1
    61   65   56 ar
    62   66   65 1
    63   67    1 1
    64   68    5 1
    65   69   16 1
    66   70   22 1
    67   71   70 1
    68   72    3 1
    69   73   72 1
    70   74    5 2
    71   75   69 2
    72   76   69 2
    73   77   21 2
    74   78   28 2
    75   79   28 1
    76   80   52 2
    77   81   52 1
    78    6   68 1
    79    9   67 1
    80   17   19 ar
    81   29   79 1
    82   53   81 1
    83   63   65 ar
    84   67   68 1
@<TRIPOS>SUBSTRUCTURE
     1 RES1 1

@<TRIPOS>CRYSIN
  28.3091   23.6454    5.2375  90.0000  90.0000  90.0000  18 1

