# MOL2 file generated by ConQuest
# Please check atom types

@<TRIPOS>MOLECULE
YADWIK
    48    51     1
SMALL
NO_CHARGES
****
Generated from CSD

@<TRIPOS>ATOM
      1 C1         0.9101    6.2922    2.5186 C.ar      1 RES1    0.0000
      2 C2        -0.2041    6.2973    1.7103 C.ar      1 RES1    0.0000
      3 H1        -0.8952    5.6644    1.8645 H         1 RES1    0.0000
      4 C3        -0.3381    7.2212    0.6597 C.ar      1 RES1    0.0000
      5 H2        -1.0958    7.1942    0.0871 H         1 RES1    0.0000
      6 C4         0.6337    8.1562    0.4742 C.ar      1 RES1    0.0000
      7 H3         0.5167    8.8169   -0.1968 H         1 RES1    0.0000
      8 C5         1.8089    8.1688    1.2529 C.ar      1 RES1    0.0000
      9 C6         2.7849    9.1704    1.0377 C.ar      1 RES1    0.0000
     10 H4         2.6389    9.8328    0.3710 H         1 RES1    0.0000
     11 C7         3.9275    9.1966    1.7719 C.ar      1 RES1    0.0000
     12 H5         4.5583    9.8961    1.6451 H         1 RES1    0.0000
     13 C8         4.1762    8.1899    2.7157 C.ar      1 RES1    0.0000
     14 H6         4.9885    8.2110    3.2063 H         1 RES1    0.0000
     15 C9         3.2817    7.1757    2.9509 C.ar      1 RES1    0.0000
     16 C10        2.0165    7.1715    2.2719 C.ar      1 RES1    0.0000
     17 C11        0.8258    5.4248    3.7312 C.ar      1 RES1    0.0000
     18 C12        0.6195    4.0553    3.6996 C.ar      1 RES1    0.0000
     19 N1         0.5366    3.3305    2.4070 N.pl3     1 RES1    0.0000
     20 O1         1.3382    3.6089    1.5377 O.2       1 RES1    0.0000
     21 O2        -0.3260    2.4681    2.3170 O.2       1 RES1    0.0000
     22 C13        0.8853    5.9648    5.0221 C.ar      1 RES1    0.0000
     23 N2         0.9526    7.4271    5.2205 N.pl3     1 RES1    0.0000
     24 O3         1.7288    7.8389    6.0714 O.2       1 RES1    0.0000
     25 O4         0.2155    8.1351    4.5434 O.2       1 RES1    0.0000
     26 C14        0.5344    3.2351    4.8195 C.ar      1 RES1    0.0000
     27 H7         0.3601    2.3036    4.7450 H         1 RES1    0.0000
     28 C15        0.8888    5.2062    6.1769 C.ar      1 RES1    0.0000
     29 H8         1.0044    5.6079    7.0288 H         1 RES1    0.0000
     30 C16        0.7173    3.8477    6.0456 C.ar      1 RES1    0.0000
     31 N3         0.7074    3.0098    7.2520 N.pl3     1 RES1    0.0000
     32 O5         0.9640    3.5482    8.3159 O.2       1 RES1    0.0000
     33 O6         0.4607    1.8302    7.1220 O.2       1 RES1    0.0000
     34 C17        3.7184    6.0602    3.8521 C.ar      1 RES1    0.0000
     35 C18        4.2039    6.3234    5.1498 C.ar      1 RES1    0.0000
     36 H9         4.2989    7.2221    5.4450 H         1 RES1    0.0000
     37 C19        3.6943    4.7447    3.4334 C.ar      1 RES1    0.0000
     38 H10        3.4384    4.5523    2.5386 H         1 RES1    0.0000
     39 C20        4.5392    5.2923    5.9898 C.ar      1 RES1    0.0000
     40 H11        4.8631    5.4822    6.8643 H         1 RES1    0.0000
     41 C21        4.0302    3.6975    4.2747 C.ar      1 RES1    0.0000
     42 H12        4.0005    2.8006    3.9644 H         1 RES1    0.0000
     43 C22        4.4102    3.9743    5.5740 C.ar      1 RES1    0.0000
     44 O7         4.6915    3.0242    6.5156 O.3       1 RES1    0.0000
     45 C23        4.4066    1.6665    6.1730 C.3       1 RES1    0.0000
     46 H13        4.5250    1.0986    6.9643 H         1 RES1    0.0000
     47 H14        5.0176    1.3737    5.4643 H         1 RES1    0.0000
     48 H15        3.4823    1.5973    5.8546 H         1 RES1    0.0000
@<TRIPOS>BOND
     1    1    2 ar
     2    2    3 1
     3    4    2 ar
     4    5    4 1
     5    6    4 ar
     6    7    6 1
     7    8    6 ar
     8    9    8 ar
     9   10    9 1
    10   11    9 ar
    11   12   11 1
    12   13   11 ar
    13   14   13 1
    14   15   13 ar
    15   16    1 ar
    16   17    1 1
    17   18   17 ar
    18   19   18 1
    19   20   19 2
    20   21   19 2
    21   22   17 ar
    22   23   22 1
    23   24   23 2
    24   25   23 2
    25   26   18 ar
    26   27   26 1
    27   28   22 ar
    28   29   28 1
    29   30   26 ar
    30   31   30 1
    31   32   31 2
    32   33   31 2
    33   34   15 1
    34   35   34 ar
    35   36   35 1
    36   37   34 ar
    37   38   37 1
    38   39   35 ar
    39   40   39 1
    40   41   37 ar
    41   42   41 1
    42   43   39 ar
    43   44   43 1
    44   45   44 1
    45   46   45 1
    46   47   45 1
    47   48   45 1
    48    8   16 ar
    49   15   16 ar
    50   28   30 ar
    51   41   43 ar
@<TRIPOS>SUBSTRUCTURE
     1 RES1 1

@<TRIPOS>CRYSIN
   7.0880    8.4380   32.2570  90.0000  90.0000  90.0000  19 1

