# MOL2 file generated by ConQuest
# Please check atom types

@<TRIPOS>MOLECULE
YAFLAT
    56    59     1
SMALL
NO_CHARGES
****
Generated from CSD

@<TRIPOS>ATOM
      1 C1        -0.9257    0.0527    9.4303 C.2       1 RES1    0.0000
      2 C2        -0.6830   -0.7975    8.2102 C.3       1 RES1    0.0000
      3 H1        -1.4372   -1.4281    8.0961 H         1 RES1    0.0000
      4 H2         0.1411   -1.3302    8.3419 H         1 RES1    0.0000
      5 C3        -0.5390    0.0495    6.9439 C.3       1 RES1    0.0000
      6 H3        -0.3309   -0.5403    6.1771 H         1 RES1    0.0000
      7 H4        -1.3986    0.5037    6.7542 H         1 RES1    0.0000
      8 C4         0.5650    1.0988    7.0884 C.3       1 RES1    0.0000
      9 H5         1.4295    0.6102    7.2054 H         1 RES1    0.0000
     10 C5         0.3361    1.9361    8.3537 C.3       1 RES1    0.0000
     11 H6         1.0984    2.5549    8.4796 H         1 RES1    0.0000
     12 H7        -0.4832    2.4806    8.2426 H         1 RES1    0.0000
     13 C6         0.1916    1.0568    9.5905 C.3       1 RES1    0.0000
     14 H8         1.0427    0.5779    9.7518 H         1 RES1    0.0000
     15 H9         0.0078    1.6283   10.3780 H         1 RES1    0.0000
     16 C7         0.6855    1.9361    5.8349 C.ar      1 RES1    0.0000
     17 C8         1.7326    1.7391    4.9403 C.ar      1 RES1    0.0000
     18 H10        2.3809    1.0697    5.1231 H         1 RES1    0.0000
     19 C9         1.8473    2.4968    3.7929 C.ar      1 RES1    0.0000
     20 H11        2.5650    2.3504    3.1873 H         1 RES1    0.0000
     21 C10        0.9079    3.4664    3.5403 C.ar      1 RES1    0.0000
     22 C11       -0.1640    3.6666    4.3779 C.ar      1 RES1    0.0000
     23 H12       -0.8235    4.3188    4.1715 H         1 RES1    0.0000
     24 C12       -0.2656    2.9057    5.5233 C.ar      1 RES1    0.0000
     25 H13       -0.9983    3.0446    6.1112 H         1 RES1    0.0000
     26 N1         1.0067    4.2919    2.3350 N.pl3     1 RES1    0.0000
     27 O1         0.2521    5.2508    2.2160 O.2       1 RES1    0.0000
     28 O2         1.8591    3.9895    1.4993 O.2       1 RES1    0.0000
     29 C1B       -1.9778   -0.0527   10.2325 C.2       1 RES1    0.0000
     30 C2B       -2.2206    0.7975   11.4526 C.3       1 RES1    0.0000
     31 H1B       -1.4663    1.4281   11.5666 H         1 RES1    0.0000
     32 H2B       -3.0447    1.3302   11.3208 H         1 RES1    0.0000
     33 C3B       -2.3645   -0.0495   12.7189 C.3       1 RES1    0.0000
     34 H3B       -2.5727    0.5403   13.4857 H         1 RES1    0.0000
     35 H4B       -1.5050   -0.5037   12.9086 H         1 RES1    0.0000
     36 C4B       -3.4686   -1.0988   12.5743 C.3       1 RES1    0.0000
     37 H5B       -4.3330   -0.6102   12.4574 H         1 RES1    0.0000
     38 C5B       -3.2396   -1.9361   11.3090 C.3       1 RES1    0.0000
     39 H6B       -4.0020   -2.5549   11.1832 H         1 RES1    0.0000
     40 H7B       -2.4203   -2.4806   11.4201 H         1 RES1    0.0000
     41 C6B       -3.0952   -1.0568   10.0723 C.3       1 RES1    0.0000
     42 H8B       -3.9462   -0.5779    9.9110 H         1 RES1    0.0000
     43 H9B       -2.9114   -1.6283    9.2848 H         1 RES1    0.0000
     44 C7B       -3.5891   -1.9361   13.8278 C.ar      1 RES1    0.0000
     45 C8B       -4.6362   -1.7391   14.7225 C.ar      1 RES1    0.0000
     46 H10B      -5.2844   -1.0697   14.5396 H         1 RES1    0.0000
     47 C9B       -4.7508   -2.4968   15.8698 C.ar      1 RES1    0.0000
     48 H11B      -5.4685   -2.3504   16.4754 H         1 RES1    0.0000
     49 C10B      -3.8115   -3.4664   16.1225 C.ar      1 RES1    0.0000
     50 C11B      -2.7395   -3.6666   15.2849 C.ar      1 RES1    0.0000
     51 H12B      -2.0801   -4.3188   15.4913 H         1 RES1    0.0000
     52 C12B      -2.6379   -2.9057   14.1395 C.ar      1 RES1    0.0000
     53 H13B      -1.9052   -3.0446   13.5516 H         1 RES1    0.0000
     54 N1B       -3.9102   -4.2919   17.3278 N.pl3     1 RES1    0.0000
     55 O1B       -3.1556   -5.2508   17.4468 O.2       1 RES1    0.0000
     56 O2B       -4.7627   -3.9895   18.1635 O.2       1 RES1    0.0000
@<TRIPOS>BOND
     1    1    2 1
     2    2    3 1
     3    4    2 1
     4    5    2 1
     5    6    5 1
     6    7    5 1
     7    8    5 1
     8    9    8 1
     9   10    8 1
    10   11   10 1
    11   12   10 1
    12   13    1 1
    13   14   13 1
    14   15   13 1
    15   16    8 1
    16   17   16 ar
    17   18   17 1
    18   19   17 ar
    19   20   19 1
    20   21   19 ar
    21   22   21 ar
    22   23   22 1
    23   24   16 ar
    24   25   24 1
    25   26   21 1
    26   27   26 2
    27   28   26 2
    28   29    1 2
    29   30   29 1
    30   31   30 1
    31   32   30 1
    32   33   30 1
    33   34   33 1
    34   35   33 1
    35   36   33 1
    36   37   36 1
    37   38   36 1
    38   39   38 1
    39   40   38 1
    40   41   29 1
    41   42   41 1
    42   43   41 1
    43   44   36 1
    44   45   44 ar
    45   46   45 1
    46   47   45 ar
    47   48   47 1
    48   49   47 ar
    49   50   49 ar
    50   51   50 1
    51   52   44 ar
    52   53   52 1
    53   54   49 1
    54   55   54 2
    55   56   54 2
    56   10   13 1
    57   22   24 ar
    58   38   41 1
    59   50   52 ar
@<TRIPOS>SUBSTRUCTURE
     1 RES1 1

@<TRIPOS>CRYSIN
   9.7860   10.7620    9.9380  90.0000  98.4000  90.0000 231 1

