# MOL2 file generated by ConQuest
# Please check atom types

@<TRIPOS>MOLECULE
YAFSOP
    41    42     1
SMALL
NO_CHARGES
****
Generated from CSD

@<TRIPOS>ATOM
      1 O1         2.9498    3.9491   12.6307 O.2       1 RES1    0.0000
      2 O2         4.1435    2.3046   11.6735 O.3       1 RES1    0.0000
      3 O3         0.7233    3.5981    9.7159 O.2       1 RES1    0.0000
      4 O4         2.2652    4.8428    8.8539 O.2       1 RES1    0.0000
      5 O5        -0.2102    0.1138    8.4825 O.2       1 RES1    0.0000
      6 O6         0.5118   -1.6782    9.6450 O.3       1 RES1    0.0000
      7 N1        -0.0402    0.8495   13.0532 N.ar      1 RES1    0.0000
      8 N2         1.8100    3.7410    9.1759 N.pl3     1 RES1    0.0000
      9 C1         1.1938    2.3494   14.4665 C.3       1 RES1    0.0000
     10 H1         0.7110    3.2024   14.4790 H         1 RES1    0.0000
     11 H2         2.1480    2.5128   14.6190 H         1 RES1    0.0000
     12 H3         0.8441    1.7657   15.1721 H         1 RES1    0.0000
     13 C2         1.0060    1.6866   13.1276 C.ar      1 RES1    0.0000
     14 C3         1.8594    1.8987   12.0344 C.ar      1 RES1    0.0000
     15 C4         1.5908    1.2325   10.8312 C.ar      1 RES1    0.0000
     16 C5         0.5044    0.3667   10.7731 C.ar      1 RES1    0.0000
     17 C6        -0.3019    0.1977   11.9078 C.ar      1 RES1    0.0000
     18 C7        -1.4950   -0.7108   11.9151 C.3       1 RES1    0.0000
     19 H4        -1.2420   -1.5798   12.2898 H         1 RES1    0.0000
     20 H5        -1.8188   -0.8314   10.9982 H         1 RES1    0.0000
     21 H6        -2.2045   -0.3135   12.4627 H         1 RES1    0.0000
     22 C8         3.0172    2.8355   12.1653 C.2       1 RES1    0.0000
     23 C9         5.2938    3.1843   11.6662 C.3       1 RES1    0.0000
     24 H7         5.0557    4.0301   11.2316 H         1 RES1    0.0000
     25 H8         6.0273    2.7598   11.1739 H         1 RES1    0.0000
     26 H9         5.5770    3.3595   12.5876 H         1 RES1    0.0000
     27 C10        2.4707    1.3775    9.6221 C.ar      1 RES1    0.0000
     28 C11        3.2316    0.2766    9.2323 C.ar      1 RES1    0.0000
     29 H10        3.1523   -0.5385    9.7135 H         1 RES1    0.0000
     30 C12        4.1018    0.3480    8.1573 C.ar      1 RES1    0.0000
     31 H11        4.6069   -0.4159    7.9045 H         1 RES1    0.0000
     32 C13        4.2388    1.5334    7.4468 C.ar      1 RES1    0.0000
     33 H12        4.8439    1.5822    6.7159 H         1 RES1    0.0000
     34 C14        3.4941    2.6408    7.8035 C.ar      1 RES1    0.0000
     35 H13        3.5792    3.4546    7.3212 H         1 RES1    0.0000
     36 C15        2.6227    2.5435    8.8753 C.ar      1 RES1    0.0000
     37 C16        0.2112   -0.3772    9.5059 C.2       1 RES1    0.0000
     38 C17        0.3403   -2.4837    8.4539 C.3       1 RES1    0.0000
     39 H14       -0.5894   -2.4213    8.1488 H         1 RES1    0.0000
     40 H15        0.5559   -3.4176    8.6567 H         1 RES1    0.0000
     41 H16        0.9377   -2.1563    7.7494 H         1 RES1    0.0000
@<TRIPOS>BOND
     1    1   22 2
     2    2   22 1
     3    3    8 2
     4    4    8 2
     5    5   37 2
     6    6   37 1
     7    7   13 ar
     8    8   36 1
     9    9   10 1
    10   11    9 1
    11   12    9 1
    12   13    9 1
    13   14   13 ar
    14   15   14 ar
    15   16   15 ar
    16   17    7 ar
    17   18   17 1
    18   19   18 1
    19   20   18 1
    20   21   18 1
    21   22   14 1
    22   23    2 1
    23   24   23 1
    24   25   23 1
    25   26   23 1
    26   27   15 1
    27   28   27 ar
    28   29   28 1
    29   30   28 ar
    30   31   30 1
    31   32   30 ar
    32   33   32 1
    33   34   32 ar
    34   35   34 1
    35   36   27 ar
    36   37   16 1
    37   38    6 1
    38   39   38 1
    39   40   38 1
    40   41   38 1
    41   16   17 ar
    42   34   36 ar
@<TRIPOS>SUBSTRUCTURE
     1 RES1 1

@<TRIPOS>CRYSIN
   7.5780    8.1410   14.2350 103.3200  93.7500 105.3900   2 1

