# MOL2 file generated by ConQuest
# Please check atom types

@<TRIPOS>MOLECULE
YAGHUL
    38    39     1
SMALL
NO_CHARGES
****
Generated from CSD

@<TRIPOS>ATOM
      1 O1         2.4596    0.6739   14.3775 O.2       1 RES1    0.0000
      2 O2         2.7790    2.7876   14.7950 O.2       1 RES1    0.0000
      3 O3         6.6890    4.0168   11.9731 O.2       1 RES1    0.0000
      4 O4         6.6024    3.5432    9.8528 O.2       1 RES1    0.0000
      5 O5         1.6717    2.7816    8.4632 O.2       1 RES1    0.0000
      6 O6         1.6673    0.6573    8.8871 O.2       1 RES1    0.0000
      7 O7        -6.3371    1.2502   11.7173 O.2       1 RES1    0.0000
      8 O8        -6.0882    1.5994   13.8313 O.2       1 RES1    0.0000
      9 O9        -1.8916    2.9668   15.5482 O.2       1 RES1    0.0000
     10 O10       -0.0857    2.3942   14.5338 O.2       1 RES1    0.0000
     11 N1         2.7602    1.8118   14.0458 N.pl3     1 RES1    0.0000
     12 N2         6.1468    3.5176   10.9898 N.pl3     1 RES1    0.0000
     13 N3         1.9819    1.8095    9.1407 N.pl3     1 RES1    0.0000
     14 N4        -5.6481    1.5124   12.6983 N.pl3     1 RES1    0.0000
     15 N5        -1.2947    2.5713   14.5620 N.pl3     1 RES1    0.0000
     16 C1         3.1765    2.0422   12.6455 C.ar      1 RES1    0.0000
     17 C2         4.4323    2.5984   12.4865 C.ar      1 RES1    0.0000
     18 H1         4.9874    2.7906   13.2334 H         1 RES1    0.0000
     19 C3         4.8453    2.8615   11.2005 C.ar      1 RES1    0.0000
     20 C4         4.0581    2.5984   10.1051 C.ar      1 RES1    0.0000
     21 H2         4.3611    2.7815    9.2229 H         1 RES1    0.0000
     22 C5         2.8107    2.0568   10.3383 C.ar      1 RES1    0.0000
     23 C6         2.2959    1.7561   11.6020 C.ar      1 RES1    0.0000
     24 C7         0.8532    1.3408   11.8110 C.3       1 RES1    0.0000
     25 H3         0.7567    0.8926   12.6881 H         1 RES1    0.0000
     26 H4         0.5829    0.7018   11.1054 H         1 RES1    0.0000
     27 C8        -0.0539    2.5924   11.7603 C.3       1 RES1    0.0000
     28 H5         0.2778    3.2595   12.4120 H         1 RES1    0.0000
     29 H6         0.0016    2.9963   10.8586 H         1 RES1    0.0000
     30 C9        -1.5040    2.2748   12.0721 C.ar      1 RES1    0.0000
     31 C10       -2.3598    1.9791   11.0127 C.ar      1 RES1    0.0000
     32 H7        -2.0052    1.9605   10.1321 H         1 RES1    0.0000
     33 C11       -3.7073    1.7108   11.1929 C.ar      1 RES1    0.0000
     34 H8        -4.2686    1.5064   10.4542 H         1 RES1    0.0000
     35 C12       -4.2111    1.7505   12.4837 C.ar      1 RES1    0.0000
     36 C13       -3.4260    2.0362   13.5714 C.ar      1 RES1    0.0000
     37 H9        -3.7911    2.0666   14.4479 H         1 RES1    0.0000
     38 C14       -2.0836    2.2783   13.3444 C.ar      1 RES1    0.0000
@<TRIPOS>BOND
     1    1   11 2
     2    2   11 2
     3    3   12 2
     4    4   12 2
     5    5   13 2
     6    6   13 2
     7    7   14 2
     8    8   14 2
     9    9   15 2
    10   10   15 2
    11   11   16 1
    12   12   19 1
    13   13   22 1
    14   14   35 1
    15   15   38 1
    16   16   17 ar
    17   17   18 1
    18   19   17 ar
    19   20   19 ar
    20   21   20 1
    21   22   20 ar
    22   23   16 ar
    23   24   23 1
    24   25   24 1
    25   26   24 1
    26   27   24 1
    27   28   27 1
    28   29   27 1
    29   30   27 1
    30   31   30 ar
    31   32   31 1
    32   33   31 ar
    33   34   33 1
    34   35   33 ar
    35   36   35 ar
    36   37   36 1
    37   38   30 ar
    38   22   23 ar
    39   36   38 ar
@<TRIPOS>SUBSTRUCTURE
     1 RES1 1

@<TRIPOS>CRYSIN
  14.0990    8.2270   15.3560  90.0000 114.7580  90.0000 231 1

