# MOL2 file generated by ConQuest
# Please check atom types

@<TRIPOS>MOLECULE
YAGQUT
    77    80     1
SMALL
NO_CHARGES
****
Generated from CSD

@<TRIPOS>ATOM
      1 O1         3.3982    7.5683   13.8823 O.3       1 RES1    0.0000
      2 C1         3.9777    6.9659   12.7410 C.3       1 RES1    0.0000
      3 H1         3.2929    6.4916   12.1885 H         1 RES1    0.0000
      4 O2         4.9105    6.1044   14.7175 O.3       1 RES1    0.0000
      5 C2         5.0242    5.9763   13.3243 C.3       1 RES1    0.0000
      6 H2         4.8791    5.0373   13.0127 H         1 RES1    0.0000
      7 C3         6.3616    6.5442   12.8660 C.3       1 RES1    0.0000
      8 H3         7.0590    6.4773   13.5798 H         1 RES1    0.0000
      9 O3         4.6814    7.9212   11.9856 O.3       1 RES1    0.0000
     10 C4         6.0142    7.9948   12.5435 C.3       1 RES1    0.0000
     11 H4         5.9896    8.5264   13.3914 H         1 RES1    0.0000
     12 O4         6.3796   10.0544   11.3787 O.3       1 RES1    0.0000
     13 C5         6.8947    8.6976   11.5363 C.3       1 RES1    0.0000
     14 H5         6.8738    8.2157   10.6595 H         1 RES1    0.0000
     15 C6         8.3302    8.8726   12.0091 C.3       1 RES1    0.0000
     16 H6         8.5525    8.2491   12.7446 H         1 RES1    0.0000
     17 H7         8.9773    8.7559   11.2682 H         1 RES1    0.0000
     18 N1         7.2189   10.9255   12.1214 N.2       1 RES1    0.0000
     19 C7         8.2773   10.2944   12.4819 C.2       1 RES1    0.0000
     20 O5        10.4327   11.1187   12.2361 O.3       1 RES1    0.0000
     21 C8         9.3522   11.0460   13.1776 C.3       1 RES1    0.0000
     22 H8         9.0315   11.9688   13.3896 H         1 RES1    0.0000
     23 C9         9.8817   10.3805   14.4530 C.3       1 RES1    0.0000
     24 H9        10.1901    9.4482   14.2627 H         1 RES1    0.0000
     25 C10       11.0331   11.2277   14.9783 C.3       1 RES1    0.0000
     26 H10       10.6909   12.1351   15.2229 H         1 RES1    0.0000
     27 C11       12.1084   11.3673   13.9294 C.3       1 RES1    0.0000
     28 H11       12.5230   10.4819   13.7229 H         1 RES1    0.0000
     29 C12       11.4922   11.9764   12.6903 C.3       1 RES1    0.0000
     30 H12       11.1139   12.8743   12.9185 H         1 RES1    0.0000
     31 C13       12.4761   12.1256   11.5472 C.3       1 RES1    0.0000
     32 H13       13.3575   12.4249   11.8859 H         1 RES1    0.0000
     33 H14       12.5944   11.2631   11.0761 H         1 RES1    0.0000
     34 C14        3.6284    6.7049   14.9983 C.3       1 RES1    0.0000
     35 O6         6.7680    5.8778   11.6490 O.3       1 RES1    0.0000
     36 C15        7.8437    5.0516   11.7138 C.2       1 RES1    0.0000
     37 O7         8.4523    4.8498   12.7410 O.2       1 RES1    0.0000
     38 C16        8.1656    4.4702   10.3823 C.3       1 RES1    0.0000
     39 H15        8.9568    3.8975   10.4584 H         1 RES1    0.0000
     40 H16        8.3455    5.1922    9.7446 H         1 RES1    0.0000
     41 H17        7.4056    3.9376   10.0671 H         1 RES1    0.0000
     42 O8         8.9104   10.3834   15.5084 O.3       1 RES1    0.0000
     43 C17        8.3312    9.2101   15.8551 C.2       1 RES1    0.0000
     44 O9         8.4620    8.1975   15.2211 O.2       1 RES1    0.0000
     45 C18        7.5871    9.3316   17.1432 C.3       1 RES1    0.0000
     46 H18        8.2098    9.2254   17.8932 H         1 RES1    0.0000
     47 H19        6.8989    8.6345   17.1903 H         1 RES1    0.0000
     48 H20        7.1626   10.2132   17.1939 H         1 RES1    0.0000
     49 O10       11.5892   10.6023   16.1439 O.3       1 RES1    0.0000
     50 C19       11.4633   11.2420   17.3280 C.2       1 RES1    0.0000
     51 O11       10.9008   12.2910   17.4675 O.2       1 RES1    0.0000
     52 C20       12.1419   10.4608   18.4131 C.3       1 RES1    0.0000
     53 H21       11.6182    9.6567   18.6124 H         1 RES1    0.0000
     54 H22       12.2115   11.0135   19.2193 H         1 RES1    0.0000
     55 H23       13.0391   10.2017   18.1160 H         1 RES1    0.0000
     56 O12       13.1004   12.3015   14.4097 O.3       1 RES1    0.0000
     57 C21       14.2436   11.7708   14.9584 C.2       1 RES1    0.0000
     58 O13       14.4312   10.5957   15.0218 O.2       1 RES1    0.0000
     59 C22       15.1456   12.8609   15.4041 C.3       1 RES1    0.0000
     60 H24       15.6241   13.2262   14.6305 H         1 RES1    0.0000
     61 H25       15.7906   12.5071   16.0508 H         1 RES1    0.0000
     62 H26       14.6170   13.5704   15.8262 H         1 RES1    0.0000
     63 O14       11.9165   13.1085   10.6631 O.3       1 RES1    0.0000
     64 C23       12.5756   13.3151    9.5200 C.2       1 RES1    0.0000
     65 O15       13.5560   12.7356    9.2066 O.2       1 RES1    0.0000
     66 C24       11.8492   14.3114    8.6721 C.3       1 RES1    0.0000
     67 H27       11.9934   14.1030    7.7265 H         1 RES1    0.0000
     68 H28       12.1867   15.2112    8.8642 H         1 RES1    0.0000
     69 H29       10.8906   14.2732    8.8732 H         1 RES1    0.0000
     70 C25        2.5373    5.6550   15.0743 C.3       1 RES1    0.0000
     71 H30        2.5162    5.1453   14.2374 H         1 RES1    0.0000
     72 H31        1.6716    6.0929   15.2120 H         1 RES1    0.0000
     73 H32        2.7195    5.0487   15.8225 H         1 RES1    0.0000
     74 C26        3.7685    7.5167   16.2465 C.3       1 RES1    0.0000
     75 H33        2.9035    7.9154   16.4747 H         1 RES1    0.0000
     76 H34        4.4281    8.2271   16.1015 H         1 RES1    0.0000
     77 H35        4.0663    6.9391   16.9783 H         1 RES1    0.0000
@<TRIPOS>BOND
     1    1    2 1
     2    2    3 1
     3    4    5 1
     4    5    2 1
     5    6    5 1
     6    7    5 1
     7    8    7 1
     8    9    2 1
     9   10    7 1
    10   11   10 1
    11   12   13 1
    12   13   10 1
    13   14   13 1
    14   15   13 1
    15   16   15 1
    16   17   15 1
    17   18   12 1
    18   19   15 1
    19   20   21 1
    20   21   19 1
    21   22   21 1
    22   23   21 1
    23   24   23 1
    24   25   23 1
    25   26   25 1
    26   27   25 1
    27   28   27 1
    28   29   20 1
    29   30   29 1
    30   31   29 1
    31   32   31 1
    32   33   31 1
    33   34    1 1
    34   35    7 1
    35   36   35 1
    36   37   36 2
    37   38   36 1
    38   39   38 1
    39   40   38 1
    40   41   38 1
    41   42   23 1
    42   43   42 1
    43   44   43 2
    44   45   43 1
    45   46   45 1
    46   47   45 1
    47   48   45 1
    48   49   25 1
    49   50   49 1
    50   51   50 2
    51   52   50 1
    52   53   52 1
    53   54   52 1
    54   55   52 1
    55   56   27 1
    56   57   56 1
    57   58   57 2
    58   59   57 1
    59   60   59 1
    60   61   59 1
    61   62   59 1
    62   63   31 1
    63   64   63 1
    64   65   64 2
    65   66   64 1
    66   67   66 1
    67   68   66 1
    68   69   66 1
    69   70   34 1
    70   71   70 1
    71   72   70 1
    72   73   70 1
    73   74   34 1
    74   75   74 1
    75   76   74 1
    76   77   74 1
    77    4   34 1
    78    9   10 1
    79   18   19 2
    80   27   29 1
@<TRIPOS>SUBSTRUCTURE
     1 RES1 1

@<TRIPOS>CRYSIN
   8.5247    9.5620   18.2770  90.0000  97.6100  90.0000   4 1

