# MOL2 file generated by ConQuest
# Please check atom types

@<TRIPOS>MOLECULE
YAGTIL
    36    37     1
SMALL
NO_CHARGES
****
Generated from CSD

@<TRIPOS>ATOM
      1 N1         0.1961    7.0880    4.9480 N.2       1 RES1    0.0000
      2 N2         1.0753    8.1419    5.1363 N.am      1 RES1    0.0000
      3 N3         1.3380   14.1196    4.8838 N.pl3     1 RES1    0.0000
      4 O1        -2.1158    6.0720    4.2575 O.3       1 RES1    0.0000
      5 H1        -1.5709    6.6714    4.3896 H         1 RES1    0.0000
      6 O2        -2.7844    1.5045    4.7728 O.3       1 RES1    0.0000
      7 O3        -0.0596    9.4101    3.6612 O.2       1 RES1    0.0000
      8 O4         0.1852   14.1911    4.4867 O.2       1 RES1    0.0000
      9 O5         2.0078   15.0916    5.1881 O.2       1 RES1    0.0000
     10 C1        -0.3076    4.7935    5.2422 C.ar      1 RES1    0.0000
     11 C2        -1.6008    4.8902    4.6794 C.ar      1 RES1    0.0000
     12 C3        -2.3747    3.7668    4.5400 C.ar      1 RES1    0.0000
     13 H2        -3.2254    3.8376    4.1707 H         1 RES1    0.0000
     14 C4        -1.9075    2.5319    4.9422 C.ar      1 RES1    0.0000
     15 C5        -0.6390    2.4023    5.4889 C.ar      1 RES1    0.0000
     16 H3        -0.3159    1.5713    5.7509 H         1 RES1    0.0000
     17 C6         0.1305    3.5361    5.6319 C.ar      1 RES1    0.0000
     18 H4         0.9778    3.4549    6.0064 H         1 RES1    0.0000
     19 C7         0.5458    5.9424    5.4035 C.2       1 RES1    0.0000
     20 H5         1.3607    5.8521    5.8429 H         1 RES1    0.0000
     21 C8         0.8550    9.2852    4.4743 C.2       1 RES1    0.0000
     22 C9         1.7465   10.4311    4.8042 C.ar      1 RES1    0.0000
     23 C10        1.2205   11.7022    4.6283 C.ar      1 RES1    0.0000
     24 H6         0.3761   11.8150    4.2546 H         1 RES1    0.0000
     25 C11        1.9565   12.7914    5.0122 C.ar      1 RES1    0.0000
     26 C12        3.2323   12.6725    5.5166 C.ar      1 RES1    0.0000
     27 H7         3.7224   13.4266    5.7560 H         1 RES1    0.0000
     28 C13        3.7640   11.4101    5.6567 C.ar      1 RES1    0.0000
     29 H8         4.6263   11.3114    5.9910 H         1 RES1    0.0000
     30 C14        3.0362   10.2954    5.3086 C.ar      1 RES1    0.0000
     31 H9         3.4072    9.4480    5.4108 H         1 RES1    0.0000
     32 C15       -2.4133    0.2095    5.2392 C.3       1 RES1    0.0000
     33 H10       -1.6558   -0.1041    4.7407 H         1 RES1    0.0000
     34 H11       -3.1485   -0.3962    5.1203 H         1 RES1    0.0000
     35 H12       -2.1860    0.2585    6.1706 H         1 RES1    0.0000
     36 H13        1.6612    8.0412    5.8100 H         1 RES1    0.0000
@<TRIPOS>BOND
     1    1    2 1
     2    2   21 1
     3    3    8 2
     4    4    5 1
     5    6   14 1
     6    7   21 2
     7    9    3 2
     8   10   11 ar
     9   11    4 1
    10   12   11 ar
    11   13   12 1
    12   14   12 ar
    13   15   14 ar
    14   16   15 1
    15   17   10 ar
    16   18   17 1
    17   19    1 2
    18   20   19 1
    19   21   22 1
    20   22   23 ar
    21   23   24 1
    22   25    3 1
    23   26   25 ar
    24   27   26 1
    25   28   26 ar
    26   29   28 1
    27   30   22 ar
    28   31   30 1
    29   32    6 1
    30   33   32 1
    31   34   32 1
    32   35   32 1
    33   36    2 1
    34   10   19 1
    35   15   17 ar
    36   23   25 ar
    37   28   30 ar
@<TRIPOS>SUBSTRUCTURE
     1 RES1 1

@<TRIPOS>CRYSIN
   6.0099   33.5750    7.3190  90.0000  94.2350  90.0000 231 1

