# MOL2 file generated by ConQuest
# Please check atom types

@<TRIPOS>MOLECULE
YAGTOR
    29    31     1
SMALL
NO_CHARGES
****
Generated from CSD

@<TRIPOS>ATOM
      1 C1         5.2947    2.5500   -2.3630 C.ar      1 RES1    0.0000
      2 C2         4.9695    2.9457   -3.6578 C.ar      1 RES1    0.0000
      3 H1         4.1187    2.7987   -4.0024 H         1 RES1    0.0000
      4 C3         5.9351    3.5542   -4.4059 C.ar      1 RES1    0.0000
      5 H2         5.7401    3.8292   -5.2722 H         1 RES1    0.0000
      6 C4         7.2052    3.7678   -3.8877 C.ar      1 RES1    0.0000
      7 H3         7.8422    4.1899   -4.4170 H         1 RES1    0.0000
      8 C5         7.5539    3.3724   -2.6078 C.ar      1 RES1    0.0000
      9 H4         8.4071    3.5087   -2.2648 H         1 RES1    0.0000
     10 C6         6.5656    2.7682   -1.8776 C.ar      1 RES1    0.0000
     11 C7         5.5517    1.7009   -0.2181 C.2       1 RES1    0.0000
     12 C8         4.5562    1.8665   -1.3145 C.2       1 RES1    0.0000
     13 C9         5.3520    1.0584    0.9302 C.2       1 RES1    0.0000
     14 H5         4.5073    0.6821    1.0297 H         1 RES1    0.0000
     15 C10        6.2526    0.8543    2.0533 C.ar      1 RES1    0.0000
     16 C11        5.7613    0.2068    3.1851 C.ar      1 RES1    0.0000
     17 H6         4.8850   -0.1050    3.1856 H         1 RES1    0.0000
     18 C12        6.5402    0.0182    4.3006 C.ar      1 RES1    0.0000
     19 H7         6.2009   -0.4104    5.0532 H         1 RES1    0.0000
     20 C13        7.8309    0.4789    4.2752 C.ar      1 RES1    0.0000
     21 C14        8.3741    1.0984    3.1659 C.ar      1 RES1    0.0000
     22 H8         9.2585    1.3856    3.1708 H         1 RES1    0.0000
     23 C15        7.5850    1.2826    2.0548 C.ar      1 RES1    0.0000
     24 H9         7.9389    1.6946    1.2995 H         1 RES1    0.0000
     25 N1         8.6774    0.3103    5.4564 N.pl3     1 RES1    0.0000
     26 O1         6.7382    2.2949   -0.5887 O.3       1 RES1    0.0000
     27 O2         3.3957    1.4914   -1.2889 O.2       1 RES1    0.0000
     28 O3         9.7569    0.8620    5.4767 O.2       1 RES1    0.0000
     29 O4         8.2708   -0.3816    6.3685 O.2       1 RES1    0.0000
@<TRIPOS>BOND
     1    1    2 ar
     2    2    3 1
     3    4    2 ar
     4    5    4 1
     5    6    4 ar
     6    7    6 1
     7    8    6 ar
     8    9    8 1
     9   10    1 ar
    10   11   12 1
    11   12    1 1
    12   13   11 2
    13   14   13 1
    14   15   13 1
    15   16   15 ar
    16   17   16 1
    17   18   16 ar
    18   19   18 1
    19   20   18 ar
    20   21   20 ar
    21   22   21 1
    22   23   15 ar
    23   24   23 1
    24   25   20 1
    25   26   10 1
    26   27   12 2
    27   28   25 2
    28   29   25 2
    29    8   10 ar
    30   11   26 1
    31   21   23 ar
@<TRIPOS>SUBSTRUCTURE
     1 RES1 1

@<TRIPOS>CRYSIN
   6.6916    7.4708   12.6414 100.4590  93.0190 102.0430   2 1

