# MOL2 file generated by ConQuest
# Please check atom types

@<TRIPOS>MOLECULE
YAGYIO
    66    71     1
SMALL
NO_CHARGES
****
Generated from CSD

@<TRIPOS>ATOM
      1 O1        -0.4959    1.0067   -1.3558 O.2       1 RES1    0.0000
      2 N1         1.3518    3.4269    2.4914 N.2       1 RES1    0.0000
      3 N2         0.3594    2.6032    2.8921 N.2       1 RES1    0.0000
      4 N3         1.7308    2.5625   -1.0320 N.2       1 RES1    0.0000
      5 N4        -0.0828    0.6000   -0.2027 N.2       1 RES1    0.0000
      6 C1        -0.1272    1.7219    2.0116 C.2       1 RES1    0.0000
      7 C2         0.3575    1.6287    0.7105 C.2       1 RES1    0.0000
      8 C3         1.2745    2.5676    0.2353 C.2       1 RES1    0.0000
      9 C4         1.7916    3.4455    1.2416 C.2       1 RES1    0.0000
     10 C5         2.9347    4.3506    0.9633 C.2       1 RES1    0.0000
     11 C6         2.9539    5.1776   -0.1514 C.2       1 RES1    0.0000
     12 C7         4.0793    5.9352   -0.4403 C.2       1 RES1    0.0000
     13 C8         5.1686    5.8810    0.3832 C.2       1 RES1    0.0000
     14 C9         5.1554    5.1064    1.5224 C.2       1 RES1    0.0000
     15 C10        4.0323    4.3387    1.8229 C.2       1 RES1    0.0000
     16 C11       -1.2538    0.8847    2.4996 C.2       1 RES1    0.0000
     17 C12       -1.1517    0.1695    3.6807 C.2       1 RES1    0.0000
     18 C13       -2.1934   -0.6101    4.1256 C.2       1 RES1    0.0000
     19 C14       -3.3743   -0.6661    3.4163 C.2       1 RES1    0.0000
     20 C15       -3.4969    0.0593    2.2573 C.2       1 RES1    0.0000
     21 C16       -2.4446    0.8271    1.7833 C.2       1 RES1    0.0000
     22 H1         1.3448    2.0168   -1.5724 H         1 RES1    0.0000
     23 H2         2.2930    3.2879   -1.3395 H         1 RES1    0.0000
     24 H3         2.1860    5.2030   -0.7222 H         1 RES1    0.0000
     25 H4         4.0944    6.4911   -1.2463 H         1 RES1    0.0000
     26 H5         6.0530    6.3216    0.1281 H         1 RES1    0.0000
     27 H6         5.9875    5.1013    2.1548 H         1 RES1    0.0000
     28 H7         3.9794    3.7625    2.6557 H         1 RES1    0.0000
     29 H8        -0.3190    0.2203    4.2048 H         1 RES1    0.0000
     30 H9        -2.1680   -1.1016    4.9270 H         1 RES1    0.0000
     31 H10       -4.0760   -1.3219    3.8554 H         1 RES1    0.0000
     32 H11       -4.3024    0.0000    1.7122 H         1 RES1    0.0000
     33 H12       -2.5135    1.3389    0.9784 H         1 RES1    0.0000
     34 N4B        0.0828   -0.6000    0.2027 N.2       1 RES1    0.0000
     35 O1B        0.4959   -1.0067    1.3558 O.2       1 RES1    0.0000
     36 C2B       -0.3575   -1.6287   -0.7105 C.2       1 RES1    0.0000
     37 C1B        0.1272   -1.7219   -2.0116 C.2       1 RES1    0.0000
     38 C3B       -1.2745   -2.5676   -0.2353 C.2       1 RES1    0.0000
     39 N2B       -0.3594   -2.6032   -2.8921 N.2       1 RES1    0.0000
     40 C11B       1.2538   -0.8847   -2.4996 C.2       1 RES1    0.0000
     41 N3B       -1.7308   -2.5625    1.0320 N.2       1 RES1    0.0000
     42 C4B       -1.7916   -3.4455   -1.2416 C.2       1 RES1    0.0000
     43 N1B       -1.3518   -3.4269   -2.4914 N.2       1 RES1    0.0000
     44 C12B       1.1517   -0.1695   -3.6807 C.2       1 RES1    0.0000
     45 C16B       2.4446   -0.8271   -1.7833 C.2       1 RES1    0.0000
     46 H1B       -1.3448   -2.0168    1.5724 H         1 RES1    0.0000
     47 H2B       -2.2930   -3.2879    1.3395 H         1 RES1    0.0000
     48 C5B       -2.9347   -4.3506   -0.9633 C.2       1 RES1    0.0000
     49 C13B       2.1934    0.6101   -4.1256 C.2       1 RES1    0.0000
     50 H8B        0.3190   -0.2203   -4.2048 H         1 RES1    0.0000
     51 C15B       3.4969   -0.0593   -2.2573 C.2       1 RES1    0.0000
     52 H12B       2.5135   -1.3389   -0.9784 H         1 RES1    0.0000
     53 C6B       -2.9539   -5.1776    0.1514 C.2       1 RES1    0.0000
     54 C10B      -4.0323   -4.3387   -1.8229 C.2       1 RES1    0.0000
     55 C14B       3.3743    0.6661   -3.4163 C.2       1 RES1    0.0000
     56 H9B        2.1680    1.1016   -4.9270 H         1 RES1    0.0000
     57 H11B       4.3024   -0.0000   -1.7122 H         1 RES1    0.0000
     58 C7B       -4.0793   -5.9352    0.4403 C.2       1 RES1    0.0000
     59 H3B       -2.1860   -5.2030    0.7222 H         1 RES1    0.0000
     60 C9B       -5.1554   -5.1064   -1.5224 C.2       1 RES1    0.0000
     61 H7B       -3.9794   -3.7625   -2.6557 H         1 RES1    0.0000
     62 H10B       4.0760    1.3219   -3.8554 H         1 RES1    0.0000
     63 C8B       -5.1686   -5.8810   -0.3832 C.2       1 RES1    0.0000
     64 H4B       -4.0944   -6.4911    1.2463 H         1 RES1    0.0000
     65 H6B       -5.9875   -5.1013   -2.1548 H         1 RES1    0.0000
     66 H5B       -6.0530   -6.3216   -0.1281 H         1 RES1    0.0000
@<TRIPOS>BOND
     1    1    5 1
     2    2    3 1
     3    3    6 1
     4    4    8 1
     5    5    7 1
     6    6    7 1
     7    7    8 1
     8    8    9 1
     9    9    2 1
    10   10    9 1
    11   11   10 1
    12   12   11 1
    13   13   12 1
    14   14   13 1
    15   15   10 1
    16   16    6 1
    17   17   16 1
    18   18   17 1
    19   19   18 1
    20   20   19 1
    21   21   16 1
    22   22    4 1
    23   23    4 1
    24   24   11 1
    25   25   12 1
    26   26   13 1
    27   27   14 1
    28   28   15 1
    29   29   17 1
    30   30   18 1
    31   31   19 1
    32   32   20 1
    33   33   21 1
    34   34    5 1
    35   35   34 1
    36   36   34 1
    37   37   36 1
    38   38   36 1
    39   39   37 1
    40   40   37 1
    41   41   38 1
    42   42   38 1
    43   43   39 1
    44   44   40 1
    45   45   40 1
    46   46   41 1
    47   47   41 1
    48   48   42 1
    49   49   44 1
    50   50   44 1
    51   51   45 1
    52   52   45 1
    53   53   48 1
    54   54   48 1
    55   55   49 1
    56   56   49 1
    57   57   51 1
    58   58   53 1
    59   59   53 1
    60   60   54 1
    61   61   54 1
    62   62   55 1
    63   63   58 1
    64   64   58 1
    65   65   60 1
    66   66   63 1
    67   14   15 1
    68   20   21 1
    69   42   43 1
    70   51   55 1
    71   60   63 1
@<TRIPOS>SUBSTRUCTURE
     1 RES1 1

@<TRIPOS>CRYSIN
   6.8770   16.9480   11.7799  90.0000  98.5920  90.0000 231 1

