# MOL2 file generated by ConQuest
# Please check atom types

@<TRIPOS>MOLECULE
YAHDIW
    29    30     1
SMALL
NO_CHARGES
****
Generated from CSD

@<TRIPOS>ATOM
      1 H1         4.4492    3.9880    0.4222 H         1 RES1    0.0000
      2 C1         1.0198    5.4622    2.5529 C.ar      1 RES1    0.0000
      3 C2         1.9198    4.4593    2.2724 C.ar      1 RES1    0.0000
      4 H2         1.8808    3.6457    2.7202 H         1 RES1    0.0000
      5 C3         2.8942    4.6944    1.2973 C.ar      1 RES1    0.0000
      6 N1         0.0068    5.2213    3.5785 N.pl3     1 RES1    0.0000
      7 C4         2.8947    5.9395    0.6595 C.ar      1 RES1    0.0000
      8 H3         3.5346    6.1147    0.0072 H         1 RES1    0.0000
      9 C5         1.0131    6.6904    1.9290 C.ar      1 RES1    0.0000
     10 H4         0.3879    7.3453    2.1435 H         1 RES1    0.0000
     11 N2         3.8473    3.7611    0.9773 N.3       1 RES1    0.0000
     12 O1        -0.7739    6.1149    3.8491 O.2       1 RES1    0.0000
     13 O2        -0.0289    4.1268    4.1297 O.2       1 RES1    0.0000
     14 C6         1.9854    6.9003    0.9667 C.ar      1 RES1    0.0000
     15 H5         2.0165    7.7164    0.5217 H         1 RES1    0.0000
     16 C7         2.8627    1.4873    1.2023 C.ar      1 RES1    0.0000
     17 C8         3.9389    2.4707    1.6006 C.3       1 RES1    0.0000
     18 H6         3.9053    2.5901    2.5624 H         1 RES1    0.0000
     19 H7         4.8029    2.0863    1.3845 H         1 RES1    0.0000
     20 C9         0.9217   -0.3830    0.5167 C.ar      1 RES1    0.0000
     21 H8         0.2703   -1.0057    0.2878 H         1 RES1    0.0000
     22 C10        2.1967    1.5677   -0.0117 C.ar      1 RES1    0.0000
     23 H9         2.3982    2.2536   -0.6073 H         1 RES1    0.0000
     24 C11        1.5708   -0.4724    1.7001 C.ar      1 RES1    0.0000
     25 H10        1.3695   -1.1652    2.2862 H         1 RES1    0.0000
     26 C12        2.5238    0.4526    2.0407 C.ar      1 RES1    0.0000
     27 H11        2.9527    0.3788    2.8624 H         1 RES1    0.0000
     28 C13        1.2349    0.6340   -0.3372 C.ar      1 RES1    0.0000
     29 H12        0.7924    0.6980   -1.1528 H         1 RES1    0.0000
@<TRIPOS>BOND
     1    1   11 1
     2    2    3 ar
     3    3    4 1
     4    5    3 ar
     5    6    2 1
     6    7    5 ar
     7    8    7 1
     8    9    2 ar
     9   10    9 1
    10   11    5 1
    11   12    6 2
    12   13    6 2
    13   14    7 ar
    14   15   14 1
    15   16   17 1
    16   17   11 1
    17   18   17 1
    18   19   17 1
    19   20   21 1
    20   22   16 ar
    21   23   22 1
    22   24   20 ar
    23   25   24 1
    24   26   16 ar
    25   27   26 1
    26   28   20 ar
    27   29   28 1
    28    9   14 ar
    29   22   28 ar
    30   24   26 ar
@<TRIPOS>SUBSTRUCTURE
     1 RES1 1

@<TRIPOS>CRYSIN
   5.3359   19.2285    5.6017  90.0000  97.3340  90.0000   4 1

