# MOL2 file generated by ConQuest
# Please check atom types

@<TRIPOS>MOLECULE
YAHDUG
    86    89     2
SMALL
NO_CHARGES
****
Generated from CSD

@<TRIPOS>ATOM
      1 O1        -4.3366    2.9944    0.4081 O.2       1 RES1    0.0000
      2 O2         8.0281   -1.5117    9.2142 O.2       1 RES1    0.0000
      3 O3        -2.5217    3.9255    6.4561 O.2       1 RES1    0.0000
      4 O4        -1.1330    4.0151    4.7056 O.3       1 RES1    0.0000
      5 O5         2.6581    0.8920    6.5546 O.2       1 RES1    0.0000
      6 O6         4.1130    2.0329    7.7974 O.3       1 RES1    0.0000
      7 N1        -3.5693    3.1933    1.4070 N.3       1 RES1    0.0000
      8 N2         7.0919   -0.6826    8.9243 N.3       1 RES1    0.0000
      9 C1         2.0517    3.0693    7.4189 C.3       1 RES1    0.0000
     10 C2         0.7745    2.9500    6.5896 C.3       1 RES1    0.0000
     11 C3        -0.1536    4.1524    6.8478 C.3       1 RES1    0.0000
     12 C4        -0.4979    4.2039    8.3368 C.3       1 RES1    0.0000
     13 C5         0.7754    4.3302    9.1672 C.3       1 RES1    0.0000
     14 C6         1.6827    3.1301    8.9145 C.3       1 RES1    0.0000
     15 C7         2.7728    4.3794    7.0414 C.3       1 RES1    0.0000
     16 C8         0.5923    5.4414    6.4637 C.3       1 RES1    0.0000
     17 C9         1.5084    5.6099    8.7897 C.3       1 RES1    0.0000
     18 C10        1.8625    5.5748    7.3106 C.3       1 RES1    0.0000
     19 C11       -1.4192    4.0144    6.0196 C.2       1 RES1    0.0000
     20 C12       -2.2510    3.9466    3.7702 C.3       1 RES1    0.0000
     21 C13       -2.6927    2.5219    3.5732 C.3       1 RES1    0.0000
     22 C14       -3.8666    2.4119    2.6126 C.3       1 RES1    0.0000
     23 C15       -2.7751    4.4589    1.3632 C.3       1 RES1    0.0000
     24 C16       -1.7318    4.4449    2.4660 C.3       1 RES1    0.0000
     25 C17       -4.0270    0.9498    2.1531 C.3       1 RES1    0.0000
     26 C18       -5.1707    2.8330    3.2494 C.3       1 RES1    0.0000
     27 C19       -2.0631    4.4519    0.0175 C.3       1 RES1    0.0000
     28 C20       -3.7047    5.6497    1.4726 C.3       1 RES1    0.0000
     29 C21        2.9482    1.8668    7.1847 C.2       1 RES1    0.0000
     30 C22        5.0725    0.9334    7.7602 C.3       1 RES1    0.0000
     31 C23        4.6916   -0.1076    8.7777 C.3       1 RES1    0.0000
     32 C24        5.7131   -1.2446    8.8674 C.3       1 RES1    0.0000
     33 C25        7.5315    0.5498    8.2153 C.3       1 RES1    0.0000
     34 C26        6.3826    1.5557    8.1595 C.3       1 RES1    0.0000
     35 C27        5.6100   -2.1850    7.6771 C.3       1 RES1    0.0000
     36 C28        5.4727   -2.0259   10.1573 C.3       1 RES1    0.0000
     37 C29        8.6683    1.1486    9.0381 C.3       1 RES1    0.0000
     38 C30        8.0179    0.1918    6.8149 C.3       1 RES1    0.0000
     39 H1         0.9843    2.9149    5.6235 H         1 RES1    0.0000
     40 H2         0.3269    2.1803    6.8051 H         1 RES1    0.0000
     41 H3        -1.1187    4.9127    8.5118 H         1 RES1    0.0000
     42 H4        -1.0368    3.4389    8.5884 H         1 RES1    0.0000
     43 H5         0.5152    4.3583   10.1311 H         1 RES1    0.0000
     44 H6         2.4965    3.1535    9.4418 H         1 RES1    0.0000
     45 H7         1.2154    2.3277    9.1464 H         1 RES1    0.0000
     46 H8         3.6275    4.4683    7.5709 H         1 RES1    0.0000
     47 H9         3.0798    4.3583    6.1158 H         1 RES1    0.0000
     48 H10        0.8240    5.4040    5.4594 H         1 RES1    0.0000
     49 H11        0.0158    6.1526    6.6300 H         1 RES1    0.0000
     50 H12        0.9412    6.3632    9.0042 H         1 RES1    0.0000
     51 H13        2.3505    5.7315    9.3433 H         1 RES1    0.0000
     52 H14        2.3511    6.3398    7.0786 H         1 RES1    0.0000
     53 H15       -2.9825    4.4753    4.1684 H         1 RES1    0.0000
     54 H16       -2.9824   -2.2224    4.3872 Du        2 SUP2    0.0000
     55 H17       -1.8822    1.9651    3.1947 H         1 RES1    0.0000
     56 H18       -1.4264    5.2637    2.5601 H         1 RES1    0.0000
     57 H19       -0.9101    3.9068    2.1772 H         1 RES1    0.0000
     58 H20       -3.1101    0.6550    1.6411 H         1 RES1    0.0000
     59 H21       -4.2483    0.5381    2.9868 H         1 RES1    0.0000
     60 H22       -4.8339    0.9358    1.4660 H         1 RES1    0.0000
     61 H23       -5.1861    3.6963    3.5338 H         1 RES1    0.0000
     62 H24       -5.5480    2.4330    4.0262 H         1 RES1    0.0000
     63 H25       -5.8333    3.0178    2.3851 H         1 RES1    0.0000
     64 H26       -1.5161    5.1233   -0.1203 H         1 RES1    0.0000
     65 H27       -2.7188    4.5384   -0.6564 H         1 RES1    0.0000
     66 H28       -1.2881    3.7898   -0.0547 H         1 RES1    0.0000
     67 H29       -3.2870    6.4100    1.3457 H         1 RES1    0.0000
     68 H30       -4.4577    5.5444    0.8205 H         1 RES1    0.0000
     69 H31       -4.3161    5.5912    2.4288 H         1 RES1    0.0000
     70 H32        5.0911    0.5895    6.7942 H         1 RES1    0.0000
     71 H33        3.8105   -0.5147    8.5775 H         1 RES1    0.0000
     72 H34        4.6145    0.3275    9.6825 H         1 RES1    0.0000
     73 H35        6.2361    1.9417    9.1136 H         1 RES1    0.0000
     74 H36        6.6928    2.2692    7.5272 H         1 RES1    0.0000
     75 H37        4.7268   -2.6201    7.6585 H         1 RES1    0.0000
     76 H38        5.6788   -1.7078    6.7394 H         1 RES1    0.0000
     77 H39        6.3782   -2.7839    7.6913 H         1 RES1    0.0000
     78 H40        6.1378   -2.7137   10.2186 H         1 RES1    0.0000
     79 H41        5.5871   -1.4036   10.9625 H         1 RES1    0.0000
     80 H42        4.5208   -2.3862   10.1529 H         1 RES1    0.0000
     81 H43        8.9024    1.9183    8.6541 H         1 RES1    0.0000
     82 H44        8.3840    1.2633   10.0654 H         1 RES1    0.0000
     83 H45        9.4569    0.5615    8.9932 H         1 RES1    0.0000
     84 H46        8.5363    0.9358    6.4222 H         1 RES1    0.0000
     85 H47        8.7536   -0.5848    6.8489 H         1 RES1    0.0000
     86 H48        7.3098   -0.0468    6.2143 H         1 RES1    0.0000
@<TRIPOS>BOND
     1    1    7 1
     2    2    8 1
     3    3   19 2
     4    4   19 1
     5    5   29 2
     6    6   29 1
     7    7   22 1
     8    8   32 1
     9    9   10 1
    10   10   11 1
    11   11   12 1
    12   12   13 1
    13   13   14 1
    14   14    9 1
    15   15    9 1
    16   16   11 1
    17   17   13 1
    18   18   15 1
    19   19   11 1
    20   20    4 1
    21   21   20 1
    22   22   21 1
    23   23    7 1
    24   24   20 1
    25   25   22 1
    26   26   22 1
    27   27   23 1
    28   28   23 1
    29   29    9 1
    30   30    6 1
    31   31   30 1
    32   32   31 1
    33   33    8 1
    34   34   30 1
    35   35   32 1
    36   36   32 1
    37   37   33 1
    38   38   33 1
    39   39   10 1
    40   40   10 1
    41   41   12 1
    42   42   12 1
    43   43   13 1
    44   44   14 1
    45   45   14 1
    46   46   15 1
    47   47   15 1
    48   48   16 1
    49   49   16 1
    50   50   17 1
    51   51   17 1
    52   52   18 1
    53   53   20 1
    54   55   21 1
    55   56   24 1
    56   57   24 1
    57   58   25 1
    58   59   25 1
    59   60   25 1
    60   61   26 1
    61   62   26 1
    62   63   26 1
    63   64   27 1
    64   65   27 1
    65   66   27 1
    66   67   28 1
    67   68   28 1
    68   69   28 1
    69   70   30 1
    70   71   31 1
    71   72   31 1
    72   73   34 1
    73   74   34 1
    74   75   35 1
    75   76   35 1
    76   77   35 1
    77   78   36 1
    78   79   36 1
    79   80   36 1
    80   81   37 1
    81   82   37 1
    82   83   37 1
    83   84   38 1
    84   85   38 1
    85   86   38 1
    86   16   18 1
    87   17   18 1
    88   23   24 1
    89   33   34 1
@<TRIPOS>SUBSTRUCTURE
     1 RES1 1
     2 SUP2 54

@<TRIPOS>CRYSIN
  11.8720   23.3940   11.5050  90.0000 108.0200  90.0000  14 1

