# MOL2 file generated by ConQuest
# Please check atom types

@<TRIPOS>MOLECULE
YAHJUN
    26    26     1
SMALL
NO_CHARGES
****
Generated from CSD

@<TRIPOS>ATOM
      1 C1         7.3454    1.4402    0.6646 C.ar      1 RES1    0.0000
      2 C2         7.5837    0.0685    0.6517 C.ar      1 RES1    0.0000
      3 C3         7.0056   -0.8183   -0.2628 C.ar      1 RES1    0.0000
      4 C4         6.1532   -0.2842   -1.2266 C.ar      1 RES1    0.0000
      5 H1         5.7616   -0.8469   -1.8547 H         1 RES1    0.0000
      6 C5         5.8862    1.0572   -1.2601 C.ar      1 RES1    0.0000
      7 H2         5.3263    1.4096   -1.9148 H         1 RES1    0.0000
      8 C6         6.4545    1.8822   -0.3136 C.ar      1 RES1    0.0000
      9 C7         8.0914    2.4009    1.5520 C.3       1 RES1    0.0000
     10 H3         7.7686    3.2922    1.4021 H         1 RES1    0.0000
     11 H4         9.0290    2.3611    1.3499 H         1 RES1    0.0000
     12 H5         7.9519    2.1611    2.4719 H         1 RES1    0.0000
     13 N1         8.5880   -0.4589    1.6091 N.pl3     1 RES1    0.0000
     14 O1         8.4369   -0.1808    2.7884 O.2       1 RES1    0.0000
     15 O2         9.5055   -1.1129    1.1556 O.2       1 RES1    0.0000
     16 N2         6.0610    3.3024   -0.3560 N.pl3     1 RES1    0.0000
     17 O3         6.1376    3.8913   -1.4021 O.2       1 RES1    0.0000
     18 O4         5.6085    3.8003    0.6409 O.2       1 RES1    0.0000
     19 N3         7.2487   -2.2032   -0.2813 N.am      1 RES1    0.0000
     20 H6         7.4849   -2.5544   -1.0304 H         1 RES1    0.0000
     21 C8         7.1417   -3.0297    0.7928 C.2       1 RES1    0.0000
     22 O5         6.8569   -2.5924    1.9012 O.2       1 RES1    0.0000
     23 C9         7.3809   -4.4801    0.5157 C.3       1 RES1    0.0000
     24 H7         7.5915   -4.5984   -0.4131 H         1 RES1    0.0000
     25 H8         6.5912   -4.9826    0.7316 H         1 RES1    0.0000
     26 H9         8.1140   -4.7916    1.0521 H         1 RES1    0.0000
@<TRIPOS>BOND
     1    1    2 ar
     2    2    3 ar
     3    3    4 ar
     4    4    5 1
     5    6    4 ar
     6    7    6 1
     7    8    1 ar
     8    9    1 1
     9   10    9 1
    10   11    9 1
    11   12    9 1
    12   13    2 1
    13   14   13 2
    14   15   13 2
    15   16    8 1
    16   17   16 2
    17   18   16 2
    18   19    3 1
    19   20   19 1
    20   21   19 1
    21   22   21 2
    22   23   21 1
    23   24   23 1
    24   25   23 1
    25   26   23 1
    26    6    8 ar
@<TRIPOS>SUBSTRUCTURE
     1 RES1 1

@<TRIPOS>CRYSIN
   9.6860   11.3680    9.9760  90.0000  98.7400  90.0000  14 1

