# MOL2 file generated by ConQuest
# Please check atom types

@<TRIPOS>MOLECULE
YAHRUW
    36    37     1
SMALL
NO_CHARGES
****
Generated from CSD

@<TRIPOS>ATOM
      1 O1        11.2271    5.1828   10.9800 O.2       1 RES1    0.0000
      2 O2         9.3312    6.1004   10.4849 O.2       1 RES1    0.0000
      3 O3        14.0096    3.1993    7.7629 O.2       1 RES1    0.0000
      4 O4        13.6187    3.4525    5.6464 O.2       1 RES1    0.0000
      5 O5         7.4127    6.3890    4.2414 O.2       1 RES1    0.0000
      6 O6         8.6978    8.1365    4.1822 O.2       1 RES1    0.0000
      7 N1         8.7623    6.6535    8.0062 N.pl3     1 RES1    0.0000
      8 H1         8.5755    6.8146    8.8471 H         1 RES1    0.0000
      9 N2         8.0418    7.2352    7.0003 N.2       1 RES1    0.0000
     10 N3        10.4044    5.5673   10.1565 N.pl3     1 RES1    0.0000
     11 N4        13.3408    3.6480    6.8320 N.pl3     1 RES1    0.0000
     12 N5         7.6317    7.5770    4.4262 N.pl3     1 RES1    0.0000
     13 C1         9.8775    5.9409    7.7223 C.ar      1 RES1    0.0000
     14 C2        10.6979    5.3875    8.7439 C.ar      1 RES1    0.0000
     15 C3        11.8313    4.6515    8.4478 C.ar      1 RES1    0.0000
     16 H2        12.3618    4.3055    9.1288 H         1 RES1    0.0000
     17 C4        12.1614    4.4407    7.1304 C.ar      1 RES1    0.0000
     18 C5        11.3921    4.9686    6.0847 C.ar      1 RES1    0.0000
     19 H3        11.6374    4.8205    5.2001 H         1 RES1    0.0000
     20 C6        10.2737    5.7054    6.3782 C.ar      1 RES1    0.0000
     21 H4         9.7645    6.0577    5.6845 H         1 RES1    0.0000
     22 C7         6.9198    7.7707    7.3476 C.2       1 RES1    0.0000
     23 C8         6.1628    8.4586    6.2771 C.ar      1 RES1    0.0000
     24 C9         6.5116    8.4120    4.9181 C.ar      1 RES1    0.0000
     25 C10        5.8279    9.1005    3.9335 C.ar      1 RES1    0.0000
     26 H5         6.0969    9.0428    3.0457 H         1 RES1    0.0000
     27 C11        4.7320    9.8800    4.2885 C.ar      1 RES1    0.0000
     28 H6         4.2644   10.3537    3.6400 H         1 RES1    0.0000
     29 C12        4.3437    9.9444    5.6164 C.ar      1 RES1    0.0000
     30 H7         3.6025   10.4526    5.8563 H         1 RES1    0.0000
     31 C13        5.0524    9.2565    6.5908 C.ar      1 RES1    0.0000
     32 H8         4.7839    9.3263    7.4785 H         1 RES1    0.0000
     33 C14        6.3904    7.7441    8.7565 C.3       1 RES1    0.0000
     34 H9         6.6029    6.9005    9.1626 H         1 RES1    0.0000
     35 H10        5.4377    7.8611    8.7429 H         1 RES1    0.0000
     36 H11        6.7931    8.4533    9.2625 H         1 RES1    0.0000
@<TRIPOS>BOND
     1    1   10 2
     2    2   10 2
     3    3   11 2
     4    4   11 2
     5    5   12 2
     6    6   12 2
     7    7    8 1
     8    9    7 1
     9   10   14 1
    10   11   17 1
    11   12   24 1
    12   13    7 1
    13   14   13 ar
    14   15   14 ar
    15   16   15 1
    16   17   15 ar
    17   18   17 ar
    18   19   18 1
    19   20   13 ar
    20   21   20 1
    21   22    9 2
    22   23   22 1
    23   24   23 ar
    24   25   24 ar
    25   26   25 1
    26   27   25 ar
    27   28   27 1
    28   29   27 ar
    29   30   29 1
    30   31   23 ar
    31   32   31 1
    32   33   22 1
    33   34   33 1
    34   35   33 1
    35   36   33 1
    36   18   20 ar
    37   29   31 ar
@<TRIPOS>SUBSTRUCTURE
     1 RES1 1

@<TRIPOS>CRYSIN
  11.9313    8.6700   15.2363  90.0000 112.4550  90.0000  14 1

