# MOL2 file generated by ConQuest
# Please check atom types

@<TRIPOS>MOLECULE
YAHREG
    30    32     1
SMALL
NO_CHARGES
****
Generated from CSD

@<TRIPOS>ATOM
      1 O1         2.8288    5.9832   14.5416 O.3       1 RES1    0.0000
      2 O2         4.8676    2.4810    9.9181 O.2       1 RES1    0.0000
      3 O3         2.8535    1.7462   10.1409 O.2       1 RES1    0.0000
      4 N1         2.0648    4.2888   13.1903 N.ar      1 RES1    0.0000
      5 N2         3.7813    2.4668   10.4668 N.pl3     1 RES1    0.0000
      6 C1         3.0457    5.0709   13.5630 C.ar      1 RES1    0.0000
      7 C2         4.3176    5.0638   13.0205 C.ar      1 RES1    0.0000
      8 H1         4.9758    5.6390   13.3369 H         1 RES1    0.0000
      9 C3         4.5785    4.1933   12.0121 C.ar      1 RES1    0.0000
     10 H2         5.4218    4.1496   11.6223 H         1 RES1    0.0000
     11 C4         3.5638    3.3827   11.5872 C.ar      1 RES1    0.0000
     12 C5         2.3506    3.4451   12.1928 C.ar      1 RES1    0.0000
     13 H3         1.6813    2.8708   11.8976 H         1 RES1    0.0000
     14 C6         1.5489    5.2160   16.4263 C.ar      1 RES1    0.0000
     15 H4         2.2616    4.6785   16.6864 H         1 RES1    0.0000
     16 C7         1.6372    5.9707   15.2624 C.ar      1 RES1    0.0000
     17 C8         0.5727    6.7742   14.8722 C.ar      1 RES1    0.0000
     18 H5         0.6318    7.2790   14.0934 H         1 RES1    0.0000
     19 C9        -0.5811    6.8229   15.6461 C.ar      1 RES1    0.0000
     20 H6        -1.2941    7.3602   15.3857 H         1 RES1    0.0000
     21 C10       -0.6699    6.0681   16.8098 C.ar      1 RES1    0.0000
     22 C11        0.3952    5.2647   17.2000 C.ar      1 RES1    0.0000
     23 C12        0.3068    4.5098   18.3639 C.ar      1 RES1    0.0000
     24 H7         1.0192    3.9722   18.6238 H         1 RES1    0.0000
     25 C13       -0.8470    4.5581   19.1376 C.ar      1 RES1    0.0000
     26 H8        -0.9060    4.0533   19.9161 H         1 RES1    0.0000
     27 C14       -1.9121    5.3616   18.7476 C.ar      1 RES1    0.0000
     28 H9        -2.6841    5.3946   19.2647 H         1 RES1    0.0000
     29 C15       -1.8236    6.1170   17.5837 C.ar      1 RES1    0.0000
     30 H10       -2.5364    6.6539   17.3231 H         1 RES1    0.0000
@<TRIPOS>BOND
     1    1    6 1
     2    2    5 2
     3    3    5 2
     4    4    6 ar
     5    5   11 1
     6    6    7 ar
     7    7    8 1
     8    9    7 ar
     9   10    9 1
    10   11    9 ar
    11   12    4 ar
    12   13   12 1
    13   14   15 1
    14   16    1 1
    15   17   16 ar
    16   18   17 1
    17   19   17 ar
    18   20   19 1
    19   21   19 ar
    20   22   14 ar
    21   23   22 ar
    22   24   23 1
    23   25   23 ar
    24   26   25 1
    25   27   25 ar
    26   28   27 1
    27   29   21 ar
    28   30   29 1
    29   11   12 ar
    30   14   16 ar
    31   21   22 ar
    32   27   29 ar
@<TRIPOS>SUBSTRUCTURE
     1 RES1 1

@<TRIPOS>CRYSIN
   6.7389    8.9182   21.0720  90.0000  94.2890  90.0000  14 1

