# MOL2 file generated by ConQuest
# Please check atom types

@<TRIPOS>MOLECULE
YAHYUB
    51    55     1
SMALL
NO_CHARGES
****
Generated from CSD

@<TRIPOS>ATOM
      1 N1        -1.2510   -5.4397   -1.0398 N.2       1 RES1    0.0000
      2 O1        -2.3933   -5.5729   -1.9243 O.3       1 RES1    0.0000
      3 C1        -3.3001   -4.4397   -1.6926 C.3       1 RES1    0.0000
      4 N2        -2.5156   -3.5793   -0.8181 N.3       1 RES1    0.0000
      5 C2        -3.2182   -2.7983    0.2130 C.3       1 RES1    0.0000
      6 N3        -2.2061   -2.0301    0.9346 N.3       1 RES1    0.0000
      7 C3        -1.2626   -2.9580    1.5886 C.3       1 RES1    0.0000
      8 C4        -0.4601   -3.7043    0.5224 C.3       1 RES1    0.0000
      9 C5        -1.4066   -4.3074   -0.4673 C.2       1 RES1    0.0000
     10 C6        -3.6438   -3.8193   -3.0143 C.ar      1 RES1    0.0000
     11 C7        -4.9528   -3.8914   -3.4753 C.ar      1 RES1    0.0000
     12 C8        -5.2883   -3.3029   -4.6793 C.ar      1 RES1    0.0000
     13 C9        -4.3556   -2.6368   -5.4210 C.ar      1 RES1    0.0000
     14 C10       -3.0389   -2.5638   -4.9825 C.ar      1 RES1    0.0000
     15 C11       -2.6948   -3.1642   -3.7773 C.ar      1 RES1    0.0000
     16 C12       -4.2604   -1.9325   -0.4698 C.ar      1 RES1    0.0000
     17 C13       -5.6081   -2.2153   -0.2759 C.ar      1 RES1    0.0000
     18 C14       -6.5641   -1.5055   -0.9572 C.ar      1 RES1    0.0000
     19 C15       -6.1934   -0.5566   -1.8629 C.ar      1 RES1    0.0000
     20 C16       -4.8702   -0.2372   -2.0484 C.ar      1 RES1    0.0000
     21 C17       -3.8988   -0.9462   -1.3643 C.ar      1 RES1    0.0000
     22 C18       -2.8663   -1.1606    1.9557 C.3       1 RES1    0.0000
     23 C19       -1.8311   -0.2117    2.5244 C.ar      1 RES1    0.0000
     24 C20       -1.1763    0.7153    1.7314 C.ar      1 RES1    0.0000
     25 C21       -0.2774    1.6058    2.3127 C.ar      1 RES1    0.0000
     26 C22       -0.0535    1.5556    3.6808 C.ar      1 RES1    0.0000
     27 C23       -0.6630    0.6478    4.4099 C.ar      1 RES1    0.0000
     28 C24       -1.5671   -0.2418    3.8950 C.ar      1 RES1    0.0000
     29 H1        -4.1308   -4.6505   -1.2541 H         1 RES1    0.0000
     30 H2        -3.7186   -3.3695    0.8482 H         1 RES1    0.0000
     31 H3        -5.6281   -4.3950   -2.9617 H         1 RES1    0.0000
     32 H4        -6.2186   -3.3065   -4.9862 H         1 RES1    0.0000
     33 H5        -4.5803   -2.2719   -6.3004 H         1 RES1    0.0000
     34 H6        -2.3398   -2.1168   -5.4911 H         1 RES1    0.0000
     35 H7        -1.7742   -3.1359   -3.4465 H         1 RES1    0.0000
     36 H8        -5.8694   -2.8850    0.3821 H         1 RES1    0.0000
     37 H9        -7.5186   -1.7053   -0.8394 H         1 RES1    0.0000
     38 H10       -6.8454   -0.0484   -2.3967 H         1 RES1    0.0000
     39 H11       -4.5950    0.5055   -2.6673 H         1 RES1    0.0000
     40 H12       -2.9390   -0.7810   -1.5009 H         1 RES1    0.0000
     41 H13       -3.6615   -0.5931    1.4909 H         1 RES1    0.0000
     42 H14       -3.2769   -1.7701    2.7437 H         1 RES1    0.0000
     43 H15       -1.3455    0.7336    0.7905 H         1 RES1    0.0000
     44 H16        0.1621    2.2965    1.7489 H         1 RES1    0.0000
     45 H17        0.6235    2.1569    4.0704 H         1 RES1    0.0000
     46 H18       -0.4569    0.6560    5.3420 H         1 RES1    0.0000
     47 H19       -2.0572   -0.8513    4.5127 H         1 RES1    0.0000
     48 H20       -0.6517   -2.4571    2.1636 H         1 RES1    0.0000
     49 H21       -1.7231   -3.5793    2.1511 H         1 RES1    0.0000
     50 H22        0.1406   -3.1067    0.0689 H         1 RES1    0.0000
     51 H23        0.0736   -4.4060    0.9146 H         1 RES1    0.0000
@<TRIPOS>BOND
     1    1    2 1
     2    2    3 1
     3    3    4 1
     4    4    5 1
     5    5    6 1
     6    6    7 1
     7    7    8 1
     8    8    9 1
     9    9    1 2
    10   10    3 1
    11   11   10 ar
    12   12   11 ar
    13   13   12 ar
    14   14   13 ar
    15   15   10 ar
    16   16    5 1
    17   17   16 ar
    18   18   17 ar
    19   19   18 ar
    20   20   19 ar
    21   21   16 ar
    22   22    6 1
    23   23   22 1
    24   24   23 ar
    25   25   24 ar
    26   26   25 ar
    27   27   26 ar
    28   28   23 ar
    29   29    3 1
    30   30    5 1
    31   31   11 1
    32   32   12 1
    33   33   13 1
    34   34   14 1
    35   35   15 1
    36   36   17 1
    37   37   18 1
    38   38   19 1
    39   39   20 1
    40   40   21 1
    41   41   22 1
    42   42   22 1
    43   43   24 1
    44   44   25 1
    45   45   26 1
    46   46   27 1
    47   47   28 1
    48   48    7 1
    49   49    7 1
    50   50    8 1
    51   51    8 1
    52    4    9 1
    53   14   15 ar
    54   20   21 ar
    55   27   28 ar
@<TRIPOS>SUBSTRUCTURE
     1 RES1 1

@<TRIPOS>CRYSIN
  17.6300    9.1240   12.7420  90.0000 100.5100  90.0000   9 1

