# MOL2 file generated by ConQuest
# Please check atom types

@<TRIPOS>MOLECULE
YAJGOH
    46    44     2
SMALL
NO_CHARGES
****
Generated from CSD

@<TRIPOS>ATOM
      1 N1         4.9189    5.2990   10.3368 N.pl3     1 RES1    0.0000
      2 H1         5.7277    5.5349   10.0895 H         1 RES1    0.0000
      3 O1         5.0353    3.9868   10.8865 O.3       1 RES1    0.0000
      4 O2         3.7952    2.1339   10.8643 O.2       1 RES1    0.0000
      5 O3        -0.3860    4.4791    7.1668 O.2       1 RES1    0.0000
      6 O4         1.0079    4.4677    5.4221 O.3       1 RES1    0.0000
      7 O5         1.1507    6.4051    9.0827 O.3       1 RES1    0.0000
      8 H2         0.8242    7.1565    9.0365 H         1 RES1    0.0000
      9 C1         3.9466    3.2632   10.4349 C.2       1 RES1    0.0000
     10 C2         3.2298    4.0805    9.5180 C.2       1 RES1    0.0000
     11 C3         2.0406    3.7366    8.6762 C.3       1 RES1    0.0000
     12 H3         1.2342    3.8274    9.2257 H         1 RES1    0.0000
     13 C4         1.9751    4.7788    7.5341 C.3       1 RES1    0.0000
     14 H4         2.7379    4.6066    6.9436 H         1 RES1    0.0000
     15 C5         2.1086    6.2350    8.0326 C.3       1 RES1    0.0000
     16 C6         3.5159    6.4162    8.6061 C.3       1 RES1    0.0000
     17 H5         4.1558    6.4928    7.8814 H         1 RES1    0.0000
     18 H6         3.5519    7.2330    9.1276 H         1 RES1    0.0000
     19 C7         3.8716    5.2594    9.4669 C.2       1 RES1    0.0000
     20 C8         2.0792    2.3389    8.1107 C.ar      1 RES1    0.0000
     21 C9         3.2097    1.8741    7.4560 C.ar      1 RES1    0.0000
     22 H7         3.9638    2.4168    7.4050 H         1 RES1    0.0000
     23 C10        3.2344    0.6220    6.8795 C.ar      1 RES1    0.0000
     24 H8         3.9944    0.3332    6.4271 H         1 RES1    0.0000
     25 C11        2.1395   -0.1961    6.9716 C.ar      1 RES1    0.0000
     26 H9         2.1582   -1.0438    6.5902 H         1 RES1    0.0000
     27 C12        1.0199    0.2351    7.6262 C.ar      1 RES1    0.0000
     28 H10        0.2783   -0.3224    7.6943 H         1 RES1    0.0000
     29 C13        0.9889    1.4979    8.1847 C.ar      1 RES1    0.0000
     30 H11        0.2189    1.7854    8.6191 H         1 RES1    0.0000
     31 C14        0.7256    4.5583    6.7193 C.2       1 RES1    0.0000
     32 C15       -0.1027    4.2426    4.5083 C.3       1 RES1    0.0000
     33 H12        0.0626    4.6348    3.6364 H         1 RES1    0.0000
     34 H13       -0.9380    4.5838    4.8646 H         1 RES1    0.0000
     35 C16       -0.0883    2.7231    4.4542 C.3       1 RES1    0.0000
     36 H14       -0.4161    2.3725    5.2890 H         1 RES1    0.0000
     37 H15        0.8101    2.4168    4.3141 H         1 RES1    0.0000
     38 H16       -0.6480    2.4209    3.7395 H         1 RES1    0.0000
     39 C17        1.8656    7.2330    6.9225 C.3       1 RES1    0.0000
     40 H17        0.9506    7.1779    6.6363 H         1 RES1    0.0000
     41 H18        2.4449    7.0355    6.1818 H         1 RES1    0.0000
     42 H19        2.0472    8.1197    7.2438 H         1 RES1    0.0000
     43 C18       -0.5705    2.8145    4.2740 Du        2 SUP2    0.0000
     44 H20        0.0506    2.3604    3.7055 Du        2 SUP2    0.0000
     45 H21       -1.4386    2.8239    3.8657 Du        2 SUP2    0.0000
     46 H22       -0.6246    2.3550    5.1198 Du        2 SUP2    0.0000
@<TRIPOS>BOND
     1    1    2 1
     2    3    1 1
     3    4    9 2
     4    5   31 2
     5    6   31 1
     6    7    8 1
     7    9    3 1
     8   10    9 1
     9   11   10 1
    10   12   11 1
    11   13   11 1
    12   14   13 1
    13   15    7 1
    14   16   15 1
    15   17   16 1
    16   18   16 1
    17   19    1 1
    18   20   11 1
    19   21   20 ar
    20   22   21 1
    21   23   21 ar
    22   24   23 1
    23   25   23 ar
    24   26   25 1
    25   27   25 ar
    26   28   27 1
    27   29   20 ar
    28   30   29 1
    29   31   13 1
    30   32    6 1
    31   33   32 1
    32   34   32 1
    33   35   32 1
    34   36   35 1
    35   37   35 1
    36   38   35 1
    37   39   15 1
    38   40   39 1
    39   41   39 1
    40   42   39 1
    41   10   19 2
    42   13   15 1
    43   16   19 1
    44   27   29 ar
@<TRIPOS>SUBSTRUCTURE
     1 RES1 1
     2 SUP2 43

@<TRIPOS>CRYSIN
   6.0712   13.4343   10.0821  90.0000  96.8820  90.0000   4 1

