# MOL2 file generated by ConQuest
# Please check atom types

@<TRIPOS>MOLECULE
YAJMAY
    31    32     1
SMALL
NO_CHARGES
****
Generated from CSD

@<TRIPOS>ATOM
      1 O1         5.7340    1.5037    7.4041 O.2       1 RES1    0.0000
      2 O2         7.7498    2.2026    7.7812 O.2       1 RES1    0.0000
      3 O3         7.3981    1.5093   -1.9501 O.2       1 RES1    0.0000
      4 O4        10.1900    1.0681   -1.1574 O.2       1 RES1    0.0000
      5 N1         6.8607    1.8244    7.0288 N.pl3     1 RES1    0.0000
      6 N2         9.3221    1.3292    0.9716 N.am      1 RES1    0.0000
      7 C1         7.1622    1.7186    5.5943 C.ar      1 RES1    0.0000
      8 C2         6.4159    0.8498    4.8209 C.ar      1 RES1    0.0000
      9 C3         6.7113    0.7631    3.4723 C.ar      1 RES1    0.0000
     10 C4         7.7382    1.5363    2.9111 C.ar      1 RES1    0.0000
     11 C5         8.4675    2.4074    3.7266 C.ar      1 RES1    0.0000
     12 C6         8.1938    2.4964    5.0805 C.ar      1 RES1    0.0000
     13 C7         7.9928    1.4361    1.4661 C.2       1 RES1    0.0000
     14 C8         7.0732    1.5025    0.4700 C.2       1 RES1    0.0000
     15 C9         7.7690    1.4395   -0.7892 C.2       1 RES1    0.0000
     16 C10        9.2641    1.2583   -0.4034 C.2       1 RES1    0.0000
     17 C11       10.4695    0.7867    1.7221 C.3       1 RES1    0.0000
     18 C12       10.2588   -0.6730    2.1220 C.3       1 RES1    0.0000
     19 C13       11.5090   -1.2459    2.7603 C.3       1 RES1    0.0000
     20 H1         5.7185    0.2442    5.3348 H         1 RES1    0.0000
     21 H2         6.2595    0.1261    2.7884 H         1 RES1    0.0000
     22 H3         9.2074    3.0197    3.3899 H         1 RES1    0.0000
     23 H4         8.6686    3.1503    5.6119 H         1 RES1    0.0000
     24 H5         6.0637    1.6736    0.6664 H         1 RES1    0.0000
     25 H6        10.6344    1.3731    2.5587 H         1 RES1    0.0000
     26 H7        11.2558    0.8903    1.0294 H         1 RES1    0.0000
     27 H8         9.9456   -1.1413    1.3328 H         1 RES1    0.0000
     28 H9         9.5292   -0.6911    2.7253 H         1 RES1    0.0000
     29 H10       11.3778   -2.1542    3.1654 H         1 RES1    0.0000
     30 H11       11.8317   -0.6438    3.5039 H         1 RES1    0.0000
     31 H12       12.0414   -1.3360    2.1641 H         1 RES1    0.0000
@<TRIPOS>BOND
     1    1    5 2
     2    2    5 2
     3    3   15 2
     4    4   16 2
     5    5    7 1
     6    6   13 1
     7    7    8 ar
     8    8    9 ar
     9    9   10 ar
    10   10   11 ar
    11   11   12 ar
    12   12    7 ar
    13   13   10 1
    14   14   13 2
    15   15   14 1
    16   16    6 1
    17   17    6 1
    18   18   17 1
    19   19   18 1
    20   20    8 1
    21   21    9 1
    22   22   11 1
    23   23   12 1
    24   24   14 1
    25   25   17 1
    26   26   17 1
    27   27   18 1
    28   28   18 1
    29   29   19 1
    30   30   19 1
    31   31   19 1
    32   15   16 1
@<TRIPOS>SUBSTRUCTURE
     1 RES1 1

@<TRIPOS>CRYSIN
  12.3260   11.2550   18.5520  90.0000 109.0400  90.0000  15 1

