# MOL2 file generated by ConQuest
# Please check atom types

@<TRIPOS>MOLECULE
YAKJEZ
    40    44     1
SMALL
NO_CHARGES
****
Generated from CSD

@<TRIPOS>ATOM
      1 C1         5.0027   -0.5888    1.2221 C.2       1 RES1    0.0000
      2 C2         5.9004   -0.9528    0.1678 C.2       1 RES1    0.0000
      3 C3         3.1408    0.7445    2.1792 C.3       1 RES1    0.0000
      4 C4         2.0804   -0.2827    2.4582 C.ar      1 RES1    0.0000
      5 C5         1.9935   -0.8795    3.6962 C.ar      1 RES1    0.0000
      6 C6         0.9925   -1.7806    3.9752 C.ar      1 RES1    0.0000
      7 C7         0.0656   -2.0938    3.0163 C.ar      1 RES1    0.0000
      8 C8         0.1450   -1.5134    1.7819 C.ar      1 RES1    0.0000
      9 C9         1.1449   -0.6133    1.4975 C.ar      1 RES1    0.0000
     10 N1         4.0342    0.3720    1.0755 N.3       1 RES1    0.0000
     11 N2         6.7013   -1.8812    0.5651 N.2       1 RES1    0.0000
     12 N3         5.2544   -1.2891    2.2781 N.2       1 RES1    0.0000
     13 O1         6.3231   -2.1182    1.8984 O.3       1 RES1    0.0000
     14 H1         3.6691    0.8611    2.9721 H         1 RES1    0.0000
     15 H2         2.7103    1.5736    1.9567 H         1 RES1    0.0000
     16 H3         2.6384   -0.6641    4.3743 H         1 RES1    0.0000
     17 H4         0.9435   -2.1902    4.8423 H         1 RES1    0.0000
     18 H5        -0.6371   -2.7188    3.2105 H         1 RES1    0.0000
     19 H6        -0.5028   -1.7349    1.1090 H         1 RES1    0.0000
     20 H7         1.1938   -0.2135    0.6252 H         1 RES1    0.0000
     21 N1B        5.8528   -0.3720   -1.0755 N.3       1 RES1    0.0000
     22 C2B        3.9866    0.9528   -0.1678 C.2       1 RES1    0.0000
     23 C1B        4.8843    0.5888   -1.2221 C.2       1 RES1    0.0000
     24 C3B        6.7462   -0.7445   -2.1792 C.3       1 RES1    0.0000
     25 N2B        3.1857    1.8812   -0.5651 N.2       1 RES1    0.0000
     26 N3B        4.6326    1.2891   -2.2781 N.2       1 RES1    0.0000
     27 C4B        7.8066    0.2827   -2.4582 C.ar      1 RES1    0.0000
     28 H1B        6.2179   -0.8611   -2.9721 H         1 RES1    0.0000
     29 H2B        7.1767   -1.5736   -1.9567 H         1 RES1    0.0000
     30 O1B        3.5639    2.1182   -1.8984 O.3       1 RES1    0.0000
     31 C5B        7.8935    0.8795   -3.6962 C.ar      1 RES1    0.0000
     32 C9B        8.7421    0.6133   -1.4975 C.ar      1 RES1    0.0000
     33 C6B        8.8945    1.7806   -3.9752 C.ar      1 RES1    0.0000
     34 H3B        7.2486    0.6641   -4.3743 H         1 RES1    0.0000
     35 C8B        9.7420    1.5134   -1.7819 C.ar      1 RES1    0.0000
     36 H7B        8.6932    0.2135   -0.6252 H         1 RES1    0.0000
     37 C7B        9.8214    2.0938   -3.0163 C.ar      1 RES1    0.0000
     38 H4B        8.9435    2.1902   -4.8423 H         1 RES1    0.0000
     39 H6B       10.3898    1.7349   -1.1090 H         1 RES1    0.0000
     40 H5B       10.5241    2.7188   -3.2105 H         1 RES1    0.0000
@<TRIPOS>BOND
     1    1    2 1
     2    2   11 2
     3    3    4 1
     4    4    5 ar
     5    5    6 ar
     6    6    7 ar
     7    7    8 ar
     8    8    9 ar
     9    9    4 ar
    10   10    1 1
    11   11   13 1
    12   12    1 2
    13   13   12 1
    14   14    3 1
    15   15    3 1
    16   16    5 1
    17   17    6 1
    18   18    7 1
    19   19    8 1
    20   20    9 1
    21   21    2 1
    22   22   10 1
    23   23   21 1
    24   24   21 1
    25   25   22 2
    26   26   23 2
    27   27   24 1
    28   28   24 1
    29   29   24 1
    30   30   25 1
    31   31   27 ar
    32   32   27 ar
    33   33   31 ar
    34   34   31 1
    35   35   32 ar
    36   36   32 1
    37   37   33 ar
    38   38   33 1
    39   39   35 1
    40   40   37 1
    41    3   10 1
    42   22   23 1
    43   26   30 1
    44   35   37 ar
@<TRIPOS>SUBSTRUCTURE
     1 RES1 1

@<TRIPOS>CRYSIN
   9.8870    4.7030   17.9180  90.0000  99.7400  90.0000  14 1

