# MOL2 file generated by ConQuest
# Please check atom types

@<TRIPOS>MOLECULE
YAKMUU
    49    51     1
SMALL
NO_CHARGES
****
Generated from CSD

@<TRIPOS>ATOM
      1 C1         8.3478    4.1909    1.8417 C.3       1 RES1    0.0000
      2 H1         9.2547    3.9884    1.5658 H         1 RES1    0.0000
      3 H2         8.1397    5.0939    1.5545 H         1 RES1    0.0000
      4 C2         7.3976    3.2262    1.1867 C.ar      1 RES1    0.0000
      5 C3         7.8464    2.1911    0.3915 C.ar      1 RES1    0.0000
      6 H3         8.7598    2.0886    0.2482 H         1 RES1    0.0000
      7 C4         6.9640    1.3032   -0.1973 C.ar      1 RES1    0.0000
      8 H4         7.2882    0.6072   -0.7219 H         1 RES1    0.0000
      9 C5         5.6063    1.4481   -0.0089 C.ar      1 RES1    0.0000
     10 H5         4.9999    0.8555   -0.3929 H         1 RES1    0.0000
     11 C6         5.1813    2.4961    0.7653 C.ar      1 RES1    0.0000
     12 C7         6.0303    3.3747    1.3725 C.ar      1 RES1    0.0000
     13 H6         5.6981    4.0632    1.9034 H         1 RES1    0.0000
     14 C8         8.8987    2.9048    3.8146 C.3       1 RES1    0.0000
     15 H7         9.8543    3.0614    3.8819 H         1 RES1    0.0000
     16 H8         8.7598    2.1770    3.1884 H         1 RES1    0.0000
     17 C9         8.3604    2.5012    5.1804 C.ar      1 RES1    0.0000
     18 C10        9.1944    1.9927    6.1650 C.ar      1 RES1    0.0000
     19 H9        10.1123    1.9542    6.0165 H         1 RES1    0.0000
     20 C11        8.6776    1.5443    7.3575 C.ar      1 RES1    0.0000
     21 H10        9.2485    1.1906    8.0007 H         1 RES1    0.0000
     22 C12        7.3303    1.6120    7.6120 C.ar      1 RES1    0.0000
     23 H11        6.9815    1.3113    8.4206 H         1 RES1    0.0000
     24 C13        6.5194    2.1287    6.6533 C.ar      1 RES1    0.0000
     25 C14        7.0087    2.5879    5.4395 C.ar      1 RES1    0.0000
     26 H12        6.4314    2.9509    4.8067 H         1 RES1    0.0000
     27 C15        8.8045    5.3101    3.9412 C.3       1 RES1    0.0000
     28 H13        9.6543    5.5310    3.5288 H         1 RES1    0.0000
     29 H14        8.9656    5.1296    4.8804 H         1 RES1    0.0000
     30 C16        7.8654    6.4821    3.8117 C.ar      1 RES1    0.0000
     31 C17        8.3339    7.7449    3.5007 C.ar      1 RES1    0.0000
     32 H15        9.2380    7.8679    3.3217 H         1 RES1    0.0000
     33 C18        7.4730    8.8266    3.4516 C.ar      1 RES1    0.0000
     34 H16        7.8060    9.6690    3.2437 H         1 RES1    0.0000
     35 C19        6.1332    8.6715    3.7069 C.ar      1 RES1    0.0000
     36 H17        5.5529    9.3986    3.6777 H         1 RES1    0.0000
     37 C20        5.6744    7.4111    4.0072 C.ar      1 RES1    0.0000
     38 C21        6.5284    6.3226    4.0655 C.ar      1 RES1    0.0000
     39 H18        6.1936    5.4817    4.2777 H         1 RES1    0.0000
     40 N1         8.2521    4.1081    3.3018 N.3       1 RES1    0.0000
     41 N2         4.2478    7.2264    4.2545 N.pl3     1 RES1    0.0000
     42 N3         3.7396    2.6720    0.9683 N.pl3     1 RES1    0.0000
     43 N4         5.0647    2.1995    6.8780 N.pl3     1 RES1    0.0000
     44 O1         3.8558    6.0979    4.5183 O.2       1 RES1    0.0000
     45 O2         3.5061    8.1730    4.1794 O.2       1 RES1    0.0000
     46 O3         2.9755    1.8881    0.4456 O.2       1 RES1    0.0000
     47 O4         3.3645    3.5873    1.6782 O.2       1 RES1    0.0000
     48 O5         4.6367    1.7180    7.9094 O.2       1 RES1    0.0000
     49 O6         4.3683    2.7395    6.0513 O.2       1 RES1    0.0000
@<TRIPOS>BOND
     1    1    2 1
     2    3    1 1
     3    4    1 1
     4    5    4 ar
     5    6    5 1
     6    7    5 ar
     7    8    7 1
     8    9    7 ar
     9   10    9 1
    10   11    9 ar
    11   12    4 ar
    12   13   12 1
    13   14   15 1
    14   16   14 1
    15   17   14 1
    16   18   17 ar
    17   19   18 1
    18   20   18 ar
    19   21   20 1
    20   22   20 ar
    21   23   22 1
    22   24   22 ar
    23   25   17 ar
    24   26   25 1
    25   27   28 1
    26   29   27 1
    27   30   27 1
    28   31   30 ar
    29   32   31 1
    30   33   31 ar
    31   34   33 1
    32   35   33 ar
    33   36   35 1
    34   37   35 ar
    35   38   30 ar
    36   39   38 1
    37   40    1 1
    38   41   37 1
    39   42   11 1
    40   43   24 1
    41   44   41 2
    42   45   41 2
    43   46   42 2
    44   47   42 2
    45   48   43 2
    46   49   43 2
    47   11   12 ar
    48   14   40 1
    49   24   25 ar
    50   27   40 1
    51   37   38 ar
@<TRIPOS>SUBSTRUCTURE
     1 RES1 1

@<TRIPOS>CRYSIN
   8.4264   17.0080   14.4970  90.0000 101.9430  90.0000 231 1

