# MOL2 file generated by ConQuest
# Please check atom types

@<TRIPOS>MOLECULE
YALBOD
    38    39     1
SMALL
NO_CHARGES
****
Generated from CSD

@<TRIPOS>ATOM
      1 N1        -8.1384   12.6824   13.3566 N.pl3     1 RES1    0.0000
      2 O1        -9.1412   12.5266   12.6800 O.2       1 RES1    0.0000
      3 O2        -7.8336   13.7323   13.8766 O.2       1 RES1    0.0000
      4 O3        -5.3011   12.4498   12.4563 O.3       1 RES1    0.0000
      5 O4        -1.9300    7.7884   14.2015 O.3       1 RES1    0.0000
      6 O5        -0.1624    8.9628   14.8863 O.2       1 RES1    0.0000
      7 O6        -4.0617    8.0073   16.0559 O.3       1 RES1    0.0000
      8 O7        -5.1795    6.1395   15.5329 O.2       1 RES1    0.0000
      9 C1        -7.2421   11.5001   13.4998 C.3       1 RES1    0.0000
     10 C2        -5.8064   11.8682   13.6631 C.3       1 RES1    0.0000
     11 C3        -4.1275   11.7541   12.0255 C.3       1 RES1    0.0000
     12 C4        -3.6181   10.9976   13.2370 C.3       1 RES1    0.0000
     13 C5        -2.8098    9.7385   13.0023 C.3       1 RES1    0.0000
     14 C6        -2.7628    8.9649   14.2954 C.3       1 RES1    0.0000
     15 C7        -4.1392    8.4805   14.6850 C.3       1 RES1    0.0000
     16 C8        -5.1616    9.5710   14.5739 C.2       1 RES1    0.0000
     17 C9        -4.9049   10.7009   13.9495 C.2       1 RES1    0.0000
     18 C10       -0.6349    7.9161   14.5520 C.2       1 RES1    0.0000
     19 C11        0.0562    6.6047   14.4880 C.3       1 RES1    0.0000
     20 C12       -4.6036    6.8043   16.3438 C.2       1 RES1    0.0000
     21 C13       -4.3972    6.4575   17.7767 C.3       1 RES1    0.0000
     22 H1        -3.2850    9.1442   12.3161 H         1 RES1    0.0000
     23 H2        -4.4106    7.7037   14.1527 H         1 RES1    0.0000
     24 H3        -4.3441   11.0755   11.3311 H         1 RES1    0.0000
     25 H4        -2.4451    9.5070   14.9805 H         1 RES1    0.0000
     26 H5        -3.1367   11.6196   13.7714 H         1 RES1    0.0000
     27 H6        -5.7455   12.5266   14.3561 H         1 RES1    0.0000
     28 H7        -7.4067   10.9581   12.8055 H         1 RES1    0.0000
     29 H8        -1.9237    9.9124   12.6974 H         1 RES1    0.0000
     30 H9        -4.5411    5.5697   17.8752 H         1 RES1    0.0000
     31 H10       -5.9778    9.3896   15.0266 H         1 RES1    0.0000
     32 H11       -3.4871   12.4519   11.6806 H         1 RES1    0.0000
     33 H12       -7.5902   11.0328   14.3307 H         1 RES1    0.0000
     34 H13        0.9056    6.7328   14.6167 H         1 RES1    0.0000
     35 H14       -3.6117    6.7755   18.0961 H         1 RES1    0.0000
     36 H15       -0.1793    6.1886   13.7428 H         1 RES1    0.0000
     37 H16       -5.0900    6.9035   18.3662 H         1 RES1    0.0000
     38 H17       -0.3151    6.0606   15.1727 H         1 RES1    0.0000
@<TRIPOS>BOND
     1    1    2 2
     2    3    1 2
     3    4   10 1
     4    5   14 1
     5    6   18 2
     6    7   15 1
     7    8   20 2
     8    9    1 1
     9   10    9 1
    10   11    4 1
    11   12   11 1
    12   13   12 1
    13   14   13 1
    14   15   14 1
    15   16   15 1
    16   17   10 1
    17   18    5 1
    18   19   18 1
    19   20    7 1
    20   21   20 1
    21   22   13 1
    22   23   15 1
    23   24   11 1
    24   25   14 1
    25   26   12 1
    26   27   10 1
    27   28    9 1
    28   29   13 1
    29   30   21 1
    30   31   16 1
    31   32   11 1
    32   33    9 1
    33   34   19 1
    34   35   21 1
    35   36   19 1
    36   37   21 1
    37   38   19 1
    38   12   17 1
    39   16   17 2
@<TRIPOS>SUBSTRUCTURE
     1 RES1 1

@<TRIPOS>CRYSIN
   8.5280   10.6700   16.3100  90.0000 103.0670  90.0000 231 1

