# MOL2 file generated by ConQuest
# Please check atom types

@<TRIPOS>MOLECULE
YALFID
    44    46     1
SMALL
NO_CHARGES
****
Generated from CSD

@<TRIPOS>ATOM
      1 O1         1.5292    7.1723    2.2029 O.3       1 RES1    0.0000
      2 C1         0.5300    7.4053    1.3132 C.ar      1 RES1    0.0000
      3 C2         0.8703    8.0343    0.1069 C.ar      1 RES1    0.0000
      4 N1         2.2367    8.4853   -0.1274 N.pl3     1 RES1    0.0000
      5 O2         2.8321    9.0794    0.7665 O.2       1 RES1    0.0000
      6 O3         2.7239    8.2704   -1.2382 O.2       1 RES1    0.0000
      7 C3        -0.0533    8.2561   -0.9027 C.ar      1 RES1    0.0000
      8 H1         0.2152    8.6621   -1.7187 H         1 RES1    0.0000
      9 C4        -1.3710    7.8794   -0.7085 C.ar      1 RES1    0.0000
     10 H2        -2.0208    8.0379   -1.3831 H         1 RES1    0.0000
     11 C5        -1.7309    7.2678    0.4815 C.ar      1 RES1    0.0000
     12 H3        -2.6356    7.0097    0.6147 H         1 RES1    0.0000
     13 C6        -0.8016    7.0220    1.4842 C.ar      1 RES1    0.0000
     14 H4        -1.0722    6.5928    2.2877 H         1 RES1    0.0000
     15 C7         1.1892    6.4530    3.4058 C.3       1 RES1    0.0000
     16 H5         0.7367    5.6024    3.1786 H         1 RES1    0.0000
     17 H6         0.5771    6.9944    3.9655 H         1 RES1    0.0000
     18 C8         2.4652    6.1776    4.1518 C.ar      1 RES1    0.0000
     19 C9         2.5847    6.5296    5.4970 C.ar      1 RES1    0.0000
     20 H7         1.8661    6.9697    5.9351 H         1 RES1    0.0000
     21 C10        3.5323    5.5375    3.5260 C.ar      1 RES1    0.0000
     22 H8         3.4644    5.2962    2.6096 H         1 RES1    0.0000
     23 O1B        5.7522    4.6048    7.5236 O.3       1 RES1    0.0000
     24 C1B        6.7514    4.3718    8.4133 C.ar      1 RES1    0.0000
     25 C2B        6.4111    3.7428    9.6196 C.ar      1 RES1    0.0000
     26 N1B        5.0447    3.2918    9.8539 N.pl3     1 RES1    0.0000
     27 O2B        4.4494    2.6977    8.9600 O.2       1 RES1    0.0000
     28 O3B        4.5576    3.5067   10.9647 O.2       1 RES1    0.0000
     29 C3B        7.3347    3.5210   10.6292 C.ar      1 RES1    0.0000
     30 H1B        7.0662    3.1150   11.4452 H         1 RES1    0.0000
     31 C4B        8.6525    3.8977   10.4350 C.ar      1 RES1    0.0000
     32 H2B        9.3023    3.7392   11.1096 H         1 RES1    0.0000
     33 C5B        9.0123    4.5093    9.2450 C.ar      1 RES1    0.0000
     34 H3B        9.9170    4.7674    9.1118 H         1 RES1    0.0000
     35 C6B        8.0830    4.7551    8.2423 C.ar      1 RES1    0.0000
     36 H4B        8.3537    5.1843    7.4388 H         1 RES1    0.0000
     37 C7B        6.0923    5.3241    6.3207 C.3       1 RES1    0.0000
     38 H5B        6.5447    6.1747    6.5479 H         1 RES1    0.0000
     39 H6B        6.7044    4.7827    5.7610 H         1 RES1    0.0000
     40 C8B        4.8162    5.5995    5.5747 C.ar      1 RES1    0.0000
     41 C9B        4.6968    5.2475    4.2295 C.ar      1 RES1    0.0000
     42 H7B        5.4154    4.8074    3.7914 H         1 RES1    0.0000
     43 C10B       3.7492    6.2396    6.2006 C.ar      1 RES1    0.0000
     44 H8B        3.8170    6.4809    7.1169 H         1 RES1    0.0000
@<TRIPOS>BOND
     1    1    2 1
     2    2    3 ar
     3    3    4 1
     4    4    5 2
     5    6    4 2
     6    7    3 ar
     7    8    7 1
     8    9    7 ar
     9   10    9 1
    10   11    9 ar
    11   12   11 1
    12   13    2 ar
    13   14   13 1
    14   15    1 1
    15   16   15 1
    16   17   15 1
    17   18   15 1
    18   19   18 ar
    19   20   19 1
    20   21   18 ar
    21   22   21 1
    22   23   24 1
    23   24   25 ar
    24   25   26 1
    25   26   27 2
    26   28   26 2
    27   29   25 ar
    28   30   29 1
    29   31   29 ar
    30   32   31 1
    31   33   31 ar
    32   34   33 1
    33   35   24 ar
    34   36   35 1
    35   37   23 1
    36   38   37 1
    37   39   37 1
    38   40   37 1
    39   41   21 ar
    40   42   41 1
    41   43   19 ar
    42   44   43 1
    43   11   13 ar
    44   33   35 ar
    45   40   41 ar
    46   40   43 ar
@<TRIPOS>SUBSTRUCTURE
     1 RES1 1

@<TRIPOS>CRYSIN
   7.4203   11.7771    9.7275  90.0000  90.8180  90.0000 231 1

