# MOL2 file generated by ConQuest
# Please check atom types

@<TRIPOS>MOLECULE
YALVIR
    47    50     1
SMALL
NO_CHARGES
****
Generated from CSD

@<TRIPOS>ATOM
      1 O1         2.9624    2.7274    2.8022 O.3       1 RES1    0.0000
      2 H1         2.4549    2.4436    2.2240 H         1 RES1    0.0000
      3 O2         6.4032    4.1766    4.9773 O.3       1 RES1    0.0000
      4 N1         5.8066    4.9875    5.9617 N.2       1 RES1    0.0000
      5 C1         4.2052    2.0044    2.7478 C.3       1 RES1    0.0000
      6 H2         4.6574    2.2397    1.9110 H         1 RES1    0.0000
      7 C2         5.0441    2.5283    3.9042 C.3       1 RES1    0.0000
      8 H3         4.5552    2.3746    4.7276 H         1 RES1    0.0000
      9 H4         5.8590    2.0028    3.9486 H         1 RES1    0.0000
     10 C3         5.4292    3.9963    3.8465 C.3       1 RES1    0.0000
     11 C4         4.3112    4.9750    4.2005 C.3       1 RES1    0.0000
     12 H5         4.2974    5.7262    3.5857 H         1 RES1    0.0000
     13 H6         3.4449    4.5374    4.1850 H         1 RES1    0.0000
     14 C5         4.6689    5.4220    5.5955 C.2       1 RES1    0.0000
     15 C6         3.8402    6.2642    6.4345 C.ar      1 RES1    0.0000
     16 C7         2.7058    6.8539    5.9317 C.ar      1 RES1    0.0000
     17 H7         2.4826    6.7002    5.0417 H         1 RES1    0.0000
     18 C8         1.8817    7.6632    6.6897 C.ar      1 RES1    0.0000
     19 H8         1.1286    8.0522    6.3079 H         1 RES1    0.0000
     20 C9         2.1868    7.8922    8.0170 C.ar      1 RES1    0.0000
     21 H9         1.6317    8.4082    8.5541 H         1 RES1    0.0000
     22 C10        3.3240    7.3370    8.5164 C.ar      1 RES1    0.0000
     23 H10        3.5514    7.5032    9.4020 H         1 RES1    0.0000
     24 C11        4.1523    6.5387    7.7595 C.ar      1 RES1    0.0000
     25 H11        4.9235    6.1826    8.1380 H         1 RES1    0.0000
     26 C12        6.1522    4.3366    2.5747 C.ar      1 RES1    0.0000
     27 C13        7.5160    4.2488    2.4604 C.ar      1 RES1    0.0000
     28 H12        8.0132    3.9837    3.1995 H         1 RES1    0.0000
     29 C14        8.1753    4.5405    1.2862 C.ar      1 RES1    0.0000
     30 H13        9.1033    4.4950    1.2429 H         1 RES1    0.0000
     31 C15        7.4370    4.9013    0.1698 C.ar      1 RES1    0.0000
     32 H14        7.8670    5.0973   -0.6315 H         1 RES1    0.0000
     33 C16        6.1017    4.9703    0.2497 C.ar      1 RES1    0.0000
     34 H15        5.6097    5.2024   -0.5049 H         1 RES1    0.0000
     35 C17        5.4407    4.6974    1.4438 C.ar      1 RES1    0.0000
     36 H16        4.5125    4.7585    1.4827 H         1 RES1    0.0000
     37 C18        4.0238    0.5050    2.7811 C.ar      1 RES1    0.0000
     38 C19        3.1295   -0.0863    3.6711 C.ar      1 RES1    0.0000
     39 H17        2.6281    0.4376    4.2526 H         1 RES1    0.0000
     40 C20        2.9959   -1.4743    3.6778 C.ar      1 RES1    0.0000
     41 H18        2.4288   -1.8789    4.2937 H         1 RES1    0.0000
     42 C21        3.6847   -2.2444    2.7933 C.ar      1 RES1    0.0000
     43 H19        3.5556   -3.1650    2.7711 H         1 RES1    0.0000
     44 C22        4.5504   -1.6609    1.9554 C.ar      1 RES1    0.0000
     45 H20        5.0496   -2.1942    1.3794 H         1 RES1    0.0000
     46 C23        4.7228   -0.3074    1.9232 C.ar      1 RES1    0.0000
     47 H21        5.3199    0.0674    1.3162 H         1 RES1    0.0000
@<TRIPOS>BOND
     1    1    2 1
     2    3    4 1
     3    4   14 2
     4    5    1 1
     5    6    5 1
     6    7    5 1
     7    8    7 1
     8    9    7 1
     9   10    3 1
    10   11   10 1
    11   12   11 1
    12   13   11 1
    13   14   11 1
    14   15   14 1
    15   16   15 ar
    16   17   16 1
    17   18   16 ar
    18   19   18 1
    19   20   18 ar
    20   21   20 1
    21   22   20 ar
    22   23   22 1
    23   24   15 ar
    24   25   24 1
    25   26   10 1
    26   27   26 ar
    27   28   27 1
    28   29   27 ar
    29   30   29 1
    30   31   29 ar
    31   32   31 1
    32   33   31 ar
    33   34   33 1
    34   35   26 ar
    35   36   35 1
    36   37    5 1
    37   38   37 ar
    38   39   38 1
    39   40   38 ar
    40   41   40 1
    41   42   40 ar
    42   43   42 1
    43   44   42 ar
    44   45   44 1
    45   46   37 ar
    46   47   46 1
    47    7   10 1
    48   22   24 ar
    49   33   35 ar
    50   44   46 ar
@<TRIPOS>SUBSTRUCTURE
     1 RES1 1

@<TRIPOS>CRYSIN
  10.9350   15.6840   11.3020  90.0000 100.9100  90.0000 231 1

