# MOL2 file generated by ConQuest
# Please check atom types

@<TRIPOS>MOLECULE
YAMLOP
    53    55     1
SMALL
NO_CHARGES
****
Generated from CSD

@<TRIPOS>ATOM
      1 O1         7.9395    4.1330    4.6978 O.2       1 RES1    0.0000
      2 O2         4.0475    6.1633    3.3410 O.2       1 RES1    0.0000
      3 O3         2.9263    5.1614    4.8775 O.2       1 RES1    0.0000
      4 N1         8.0355    4.3761    2.4699 N.am      1 RES1    0.0000
      5 H1         8.4434    4.1340    1.7524 H         1 RES1    0.0000
      6 N2         5.0018    3.6604    2.4471 N.pl3     1 RES1    0.0000
      7 N3         4.3611    1.6900    3.2430 N.2       1 RES1    0.0000
      8 N4         3.6705    5.1467    3.9168 N.pl3     1 RES1    0.0000
      9 N5        10.1767    2.6051    2.3310 N.pl3     1 RES1    0.0000
     10 N6         9.2744    1.8248    1.6537 N.2       1 RES1    0.0000
     11 N7         9.9289    2.2090    4.6989 N.3       1 RES1    0.0000
     12 N8        11.1045    2.2397    5.4095 N.2       1 RES1    0.0000
     13 C1         8.4717    3.9109    3.6321 C.2       1 RES1    0.0000
     14 C2         6.9033    5.2757    2.3490 C.3       1 RES1    0.0000
     15 H2         7.1800    6.0697    1.8651 H         1 RES1    0.0000
     16 H3         6.6244    5.5527    3.2357 H         1 RES1    0.0000
     17 C3         5.7212    4.6469    1.6335 C.3       1 RES1    0.0000
     18 H4         5.1041    5.3473    1.3706 H         1 RES1    0.0000
     19 H5         6.0379    4.2155    0.8240 H         1 RES1    0.0000
     20 C4         5.0925    2.3087    2.3459 C.2       1 RES1    0.0000
     21 C5         3.7594    2.6679    3.9606 C.2       1 RES1    0.0000
     22 H6         3.1767    2.5277    4.6710 H         1 RES1    0.0000
     23 C6         4.1361    3.8843    3.4902 C.2       1 RES1    0.0000
     24 C7         5.8965    1.6030    1.3216 C.3       1 RES1    0.0000
     25 H7         5.5260    1.7710    0.4517 H         1 RES1    0.0000
     26 H8         5.8834    0.6588    1.4979 H         1 RES1    0.0000
     27 H9         6.8021    1.9210    1.3498 H         1 RES1    0.0000
     28 C8         9.8203    3.1572    3.6133 C.3       1 RES1    0.0000
     29 H10       10.4995    3.8388    3.7979 H         1 RES1    0.0000
     30 C9         9.9257    1.4251    0.5820 C.2       1 RES1    0.0000
     31 C10       11.2359    1.9171    0.5706 C.2       1 RES1    0.0000
     32 H11       11.8803    1.7677   -0.0834 H         1 RES1    0.0000
     33 C11       11.3788    2.6550    1.7013 C.2       1 RES1    0.0000
     34 C12        9.2335    0.5672   -0.4454 C.3       1 RES1    0.0000
     35 H12        9.7013   -0.2674   -0.5330 H         1 RES1    0.0000
     36 H13        9.2291    1.0225   -1.2913 H         1 RES1    0.0000
     37 H14        8.3306    0.3995   -0.1679 H         1 RES1    0.0000
     38 C13       12.5562    3.3904    2.2479 C.3       1 RES1    0.0000
     39 H15       12.3968    4.3362    2.1947 H         1 RES1    0.0000
     40 H16       13.3376    3.1702    1.7357 H         1 RES1    0.0000
     41 H17       12.6939    3.1408    3.1647 H         1 RES1    0.0000
     42 C14       10.9859    1.2456    6.2794 C.2       1 RES1    0.0000
     43 C15        9.7616    0.5954    6.1323 C.2       1 RES1    0.0000
     44 H18        9.4504   -0.1190    6.6393 H         1 RES1    0.0000
     45 C16        9.1071    1.2055    5.1070 C.2       1 RES1    0.0000
     46 C17       12.1068    0.9356    7.2349 C.3       1 RES1    0.0000
     47 H19       12.9135    1.3601    6.9314 H         1 RES1    0.0000
     48 H20       12.2406   -0.0147    7.2735 H         1 RES1    0.0000
     49 H21       11.8823    1.2638    8.1080 H         1 RES1    0.0000
     50 C18        7.7895    0.8778    4.4780 C.3       1 RES1    0.0000
     51 H22        7.2566    1.6732    4.4196 H         1 RES1    0.0000
     52 H23        7.3330    0.2250    5.0131 H         1 RES1    0.0000
     53 H24        7.9352    0.5251    3.5966 H         1 RES1    0.0000
@<TRIPOS>BOND
     1    1   13 2
     2    2    8 2
     3    3    8 2
     4    4    5 1
     5    6   17 1
     6    7   20 2
     7    8   23 1
     8    9   10 1
     9   10   30 2
    10   11   12 1
    11   12   42 2
    12   13    4 1
    13   14    4 1
    14   15   14 1
    15   16   14 1
    16   17   14 1
    17   18   17 1
    18   19   17 1
    19   20    6 1
    20   21    7 1
    21   22   21 1
    22   23    6 1
    23   24   20 1
    24   25   24 1
    25   26   24 1
    26   27   24 1
    27   28    9 1
    28   29   28 1
    29   30   31 1
    30   31   32 1
    31   33    9 1
    32   34   30 1
    33   35   34 1
    34   36   34 1
    35   37   34 1
    36   38   33 1
    37   39   38 1
    38   40   38 1
    39   41   38 1
    40   42   43 1
    41   43   44 1
    42   45   11 1
    43   46   42 1
    44   47   46 1
    45   48   46 1
    46   49   46 1
    47   50   45 1
    48   51   50 1
    49   52   50 1
    50   53   50 1
    51   11   28 1
    52   13   28 1
    53   21   23 2
    54   31   33 2
    55   43   45 2
@<TRIPOS>SUBSTRUCTURE
     1 RES1 1

@<TRIPOS>CRYSIN
  11.7813   16.3076   10.4320  90.0000  90.8180  90.0000  14 1

