# MOL2 file generated by ConQuest
# Please check atom types

@<TRIPOS>MOLECULE
YANLAB
    28    29     1
SMALL
NO_CHARGES
****
Generated from CSD

@<TRIPOS>ATOM
      1 C1        -0.2151   10.2139   13.1006 C.ar      1 RES1    0.0000
      2 H1         0.1321   10.9012   12.5446 H         1 RES1    0.0000
      3 C2        -0.4033   10.4423   14.4589 C.ar      1 RES1    0.0000
      4 H2        -0.1777   11.2859   14.8326 H         1 RES1    0.0000
      5 C3        -0.9190    9.4417   15.2691 C.ar      1 RES1    0.0000
      6 H3        -1.0388    9.5987   16.1986 H         1 RES1    0.0000
      7 C4        -1.2599    8.2155   14.7268 C.ar      1 RES1    0.0000
      8 H4        -1.6234    7.5382   15.2854 H         1 RES1    0.0000
      9 C5        -1.0756    7.9671   13.3764 C.ar      1 RES1    0.0000
     10 H5        -1.3113    7.1235   13.0083 H         1 RES1    0.0000
     11 C6        -0.5394    8.9681   12.5575 C.ar      1 RES1    0.0000
     12 C7        -0.2826    8.6992   11.1719 C.1       1 RES1    0.0000
     13 C8        -0.0287    8.4432   10.0285 C.1       1 RES1    0.0000
     14 C9         0.3745    8.0918    8.6727 C.2       1 RES1    0.0000
     15 C10        1.0112    6.7508    8.4907 C.ar      1 RES1    0.0000
     16 C11        1.1275    5.8552    9.5544 C.ar      1 RES1    0.0000
     17 H6         0.7893    6.0915   10.4101 H         1 RES1    0.0000
     18 C12        1.7344    4.6219    9.3693 C.ar      1 RES1    0.0000
     19 H7         1.8229    4.0068   10.0879 H         1 RES1    0.0000
     20 C13        2.2072    4.3162    8.1040 C.ar      1 RES1    0.0000
     21 C14        2.1036    5.1808    7.0217 C.ar      1 RES1    0.0000
     22 H8         2.4361    4.9346    6.1662 H         1 RES1    0.0000
     23 C15        1.5030    6.4091    7.2235 C.ar      1 RES1    0.0000
     24 H9         1.4235    7.0222    6.5025 H         1 RES1    0.0000
     25 N1         2.8743    3.0188    7.9011 N.pl3     1 RES1    0.0000
     26 O1         0.2144    8.8717    7.7449 O.2       1 RES1    0.0000
     27 O2         3.1182    2.3348    8.8924 O.2       1 RES1    0.0000
     28 O3         3.1612    2.6928    6.7527 O.2       1 RES1    0.0000
@<TRIPOS>BOND
     1    1    2 1
     2    3    1 ar
     3    4    3 1
     4    5    3 ar
     5    6    5 1
     6    7    5 ar
     7    8    7 1
     8    9    7 ar
     9   10    9 1
    10   11    1 ar
    11   12   11 1
    12   13   12 3
    13   14   13 1
    14   15   14 1
    15   16   15 ar
    16   17   16 1
    17   18   16 ar
    18   19   18 1
    19   20   18 ar
    20   21   20 ar
    21   22   21 1
    22   23   15 ar
    23   24   23 1
    24   25   20 1
    25   26   14 2
    26   27   25 2
    27   28   25 2
    28    9   11 ar
    29   21   23 ar
@<TRIPOS>SUBSTRUCTURE
     1 RES1 1

@<TRIPOS>CRYSIN
   7.6488    7.1371   10.9816  90.0000  97.6170  90.0000   4 1

