# MOL2 file generated by ConQuest
# Please check atom types

@<TRIPOS>MOLECULE
YANREM01
    13    13     1
SMALL
USER_CHARGES
****
Generated from CSD

@<TRIPOS>ATOM
      1 O1         4.8199    1.9041    8.0557 O.2       1 RES1    0.0000
      2 O2         4.5116    2.7083    6.0561 O.2       1 RES1    0.0000
      3 N1         5.8628    0.5140    4.1390 N.2       1 RES1    0.0000
      4 N2         6.2819    0.9617    3.0257 N.2       1 RES1    0.0000
      5 N3         7.0537    2.0677    3.2497 N.pl3     1 RES1    1.0000
      6 H1         7.3278    2.5922    2.5943 H         1 RES1    0.0000
      7 N4         6.3632    1.3370    5.1132 N.pl3     1 RES1    0.0000
      8 N5         7.7086    3.2964    5.1851 N.3       1 RES1    0.0000
      9 N6         6.1140    1.1518    6.4615 N.2       1 RES1   -1.0000
     10 N7         5.0963    1.9665    6.8489 N.pl3     1 RES1    0.0000
     11 C1         7.0977    2.3203    4.5581 C.2       1 RES1    0.0000
     12 H2         7.7247    3.2997    5.9917 H         1 RES1    0.0000
     13 H3         8.2138    3.8137    4.7151 H         1 RES1    0.0000
@<TRIPOS>BOND
     1    1   10 2
     2    2   10 2
     3    3    4 2
     4    4    5 1
     5    5    6 1
     6    7    3 1
     7    8   11 1
     8    9    7 1
     9   10    9 1
    10   11    5 2
    11   12    8 1
    12   13    8 1
    13    7   11 1
@<TRIPOS>SUBSTRUCTURE
     1 RES1 1

@<TRIPOS>CRYSIN
   9.2290    5.5271   10.2950  90.0000  90.0000  90.0000  33 1

