# MOL2 file generated by ConQuest
# Please check atom types

@<TRIPOS>MOLECULE
YAPDEA01
    50    53     1
SMALL
NO_CHARGES
****
Generated from CSD

@<TRIPOS>ATOM
      1 O1         1.3043    1.1938   19.4806 O.3       1 RES1    0.0000
      2 C1        -0.1113    1.2970   19.1704 C.3       1 RES1    0.0000
      3 H1        -0.4215    2.2277   19.3671 H         1 RES1    0.0000
      4 C2        -0.9052    0.3123   20.0344 C.3       1 RES1    0.0000
      5 H2        -0.6119   -0.6245   19.8414 H         1 RES1    0.0000
      6 O2        -2.2960    0.4534   19.7540 O.3       1 RES1    0.0000
      7 C3        -0.6532    0.6434   21.5030 C.3       1 RES1    0.0000
      8 H3        -0.9257    1.5909   21.6666 H         1 RES1    0.0000
      9 C4         0.8480    0.5176   21.7632 C.3       1 RES1    0.0000
     10 O3        -1.3867   -0.1946   22.3798 O.3       1 RES1    0.0000
     11 H4        -1.8429    0.2783   22.9033 H         1 RES1    0.0000
     12 O4         1.1753   -0.8185   21.5924 O.3       1 RES1    0.0000
     13 O5         1.1579    0.8676   23.1260 O.3       1 RES1    0.0000
     14 C5         1.1151    2.2039   23.4360 C.ar      1 RES1    0.0000
     15 C6         1.0438    2.6399   24.7670 C.ar      1 RES1    0.0000
     16 N1         0.9858    3.9622   25.0521 N.ar      1 RES1    0.0000
     17 C7         0.9352    4.8461   24.0426 C.ar      1 RES1    0.0000
     18 C8         1.0477    4.4877   22.7066 C.ar      1 RES1    0.0000
     19 H5         1.0413    5.1445   22.0217 H         1 RES1    0.0000
     20 C9         1.1675    3.1567   22.4089 C.ar      1 RES1    0.0000
     21 O6         1.3118    2.8055   21.0927 O.3       1 RES1    0.0000
     22 C10        1.6275    1.4303   20.8099 C.3       1 RES1    0.0000
     23 H6         2.6081    1.2838   20.9415 H         1 RES1    0.0000
     24 C11       -0.2411    1.0344   17.6827 C.3       1 RES1    0.0000
     25 H7         0.2860    1.6946   17.1868 H         1 RES1    0.0000
     26 H8        -1.1832    1.1041   17.4202 H         1 RES1    0.0000
     27 H9         0.0884    0.1345   17.4798 H         1 RES1    0.0000
     28 C12        0.7032    6.2452   24.4322 C.2       1 RES1    0.0000
     29 H10        0.8929    6.5465   25.3121 H         1 RES1    0.0000
     30 N2         0.2381    7.0451   23.5472 N.2       1 RES1    0.0000
     31 O7        -0.0055    8.2933   24.1097 O.3       1 RES1    0.0000
     32 H11       -0.2974    8.8142   23.5191 H         1 RES1    0.0000
     33 C13       -2.8627   -0.7039   19.1389 C.3       1 RES1    0.0000
     34 H12       -2.4434   -0.8473   18.2645 H         1 RES1    0.0000
     35 H13       -3.8270   -0.5721   19.0219 H         1 RES1    0.0000
     36 H14       -2.7066   -1.4862   19.7073 H         1 RES1    0.0000
     37 C14        2.4498   -1.2498   22.1014 C.3       1 RES1    0.0000
     38 H15        3.1366   -0.5936   21.8603 H         1 RES1    0.0000
     39 H16        2.6787   -2.1199   21.7138 H         1 RES1    0.0000
     40 H17        2.4020   -1.3300   23.0771 H         1 RES1    0.0000
     41 N3         0.8385    2.3386   27.1435 N.ar      1 RES1    0.0000
     42 C15        0.9977    1.7222   25.9547 C.ar      1 RES1    0.0000
     43 C16        1.1047    0.3368   25.8671 C.ar      1 RES1    0.0000
     44 H18        1.2324   -0.0811   25.0240 H         1 RES1    0.0000
     45 C17        1.0227   -0.4322   27.0240 C.ar      1 RES1    0.0000
     46 H19        1.0783   -1.3793   26.9759 H         1 RES1    0.0000
     47 C18        0.8608    0.1923   28.2389 C.ar      1 RES1    0.0000
     48 H20        0.8009   -0.3071   29.0444 H         1 RES1    0.0000
     49 C19        0.7874    1.5781   28.2453 C.ar      1 RES1    0.0000
     50 H21        0.6946    2.0151   29.0842 H         1 RES1    0.0000
@<TRIPOS>BOND
     1    1    2 1
     2    2    3 1
     3    4    2 1
     4    5    4 1
     5    6    4 1
     6    7    4 1
     7    8    7 1
     8    9    7 1
     9   10    7 1
    10   11   10 1
    11   12    9 1
    12   13    9 1
    13   14   13 1
    14   15   14 ar
    15   16   15 ar
    16   17   16 ar
    17   18   17 ar
    18   19   18 1
    19   20   14 ar
    20   21   20 1
    21   22    1 1
    22   23   22 1
    23   24    2 1
    24   25   24 1
    25   26   24 1
    26   27   24 1
    27   28   17 1
    28   29   28 1
    29   30   28 2
    30   31   30 1
    31   32   31 1
    32   33    6 1
    33   34   33 1
    34   35   33 1
    35   36   33 1
    36   37   12 1
    37   38   37 1
    38   39   37 1
    39   40   37 1
    40   41   42 ar
    41   42   15 1
    42   43   42 ar
    43   44   43 1
    44   45   43 ar
    45   46   45 1
    46   47   45 ar
    47   48   47 1
    48   49   41 ar
    49   50   49 1
    50    9   22 1
    51   18   20 ar
    52   21   22 1
    53   47   49 ar
@<TRIPOS>SUBSTRUCTURE
     1 RES1 1

@<TRIPOS>CRYSIN
   7.1319   10.2706   24.8328  90.0000  90.0000  90.0000  19 1

