# MOL2 file generated by ConQuest
# Please check atom types

@<TRIPOS>MOLECULE
YAPVAM
    43    46     1
SMALL
NO_CHARGES
****
Generated from CSD

@<TRIPOS>ATOM
      1 C1         6.9078   -0.7280    8.9837 C.2       1 RES1    0.0000
      2 C2         6.2386    0.4670    8.4268 C.3       1 RES1    0.0000
      3 C3         5.0578   -0.1749    7.7420 C.3       1 RES1    0.0000
      4 C4         8.2640   -0.7904    9.5414 C.ar      1 RES1    0.0000
      5 C5         8.6820   -1.9160   10.2509 C.ar      1 RES1    0.0000
      6 C6         9.9894   -1.9929   10.7307 C.ar      1 RES1    0.0000
      7 C7        10.8794   -0.9437   10.4995 C.ar      1 RES1    0.0000
      8 C8        10.8334    0.1824    9.7901 C.ar      1 RES1    0.0000
      9 C9         9.1539    0.2588    9.3102 C.ar      1 RES1    0.0000
     10 C10        4.3393   -1.0335    5.6287 C.3       1 RES1    0.0000
     11 C11        4.9544   -1.2544    4.2503 C.3       1 RES1    0.0000
     12 C12        3.0578   -0.2297    5.5747 C.ar      1 RES1    0.0000
     13 C13        1.9120   -0.7286    6.1785 C.ar      1 RES1    0.0000
     14 C14        0.7034   -0.0251    6.1356 C.ar      1 RES1    0.0000
     15 C15       -0.4866   -0.5310    6.7322 C.ar      1 RES1    0.0000
     16 C16       -1.6295    0.1702    6.6528 C.ar      1 RES1    0.0000
     17 C17       -1.6789    1.4246    6.0132 C.ar      1 RES1    0.0000
     18 C18       -0.5799    1.9288    5.4524 C.ar      1 RES1    0.0000
     19 C19        0.6557    1.2346    5.4770 C.ar      1 RES1    0.0000
     20 C20        1.8303    1.7446    4.8939 C.ar      1 RES1    0.0000
     21 C21        2.9951    1.0008    4.9439 C.ar      1 RES1    0.0000
     22 O1         4.9154   -1.4334    8.3974 O.3       1 RES1    0.0000
     23 O2         5.3603   -0.3462    6.3866 O.3       1 RES1    0.0000
     24 N1         6.1639   -1.7755    8.9885 N.2       1 RES1    0.0000
     25 H1         4.3575    0.4500    7.8929 H         1 RES1    0.0000
     26 H2         8.0757   -2.6306   10.4082 H         1 RES1    0.0000
     27 H3        10.2739   -2.7594   11.2145 H         1 RES1    0.0000
     28 H4        11.7701   -0.9956   10.8261 H         1 RES1    0.0000
     29 H5        11.0681    0.8965    9.6328 H         1 RES1    0.0000
     30 H6         8.8699    1.0253    8.8272 H         1 RES1    0.0000
     31 H7         4.1512   -1.8647    6.0498 H         1 RES1    0.0000
     32 H8         1.9559   -1.6164    6.5153 H         1 RES1    0.0000
     33 H9        -0.5663   -1.3051    7.2772 H         1 RES1    0.0000
     34 H10       -2.4068   -0.1655    7.0826 H         1 RES1    0.0000
     35 H11       -2.5033    1.8991    6.0267 H         1 RES1    0.0000
     36 H12       -0.6911    2.8084    5.1107 H         1 RES1    0.0000
     37 H13        1.8936    2.5432    4.3830 H         1 RES1    0.0000
     38 H14        3.7783    1.3582    4.5403 H         1 RES1    0.0000
     39 H15        5.8944    0.8652    9.2459 H         1 RES1    0.0000
     40 H16        6.5898    1.2391    7.9096 H         1 RES1    0.0000
     41 H17        4.3927   -1.7021    3.6291 H         1 RES1    0.0000
     42 H18        5.7633   -1.7423    4.3544 H         1 RES1    0.0000
     43 H19        5.1516   -0.3818    3.9286 H         1 RES1    0.0000
@<TRIPOS>BOND
     1    1    2 1
     2    2    3 1
     3    3   22 1
     4    4    1 1
     5    5    4 ar
     6    6    5 ar
     7    7    6 ar
     8    8    7 ar
     9    9    4 ar
    10   10   11 1
    11   11   41 1
    12   12   10 1
    13   13   12 ar
    14   14   13 ar
    15   15   14 ar
    16   16   15 ar
    17   17   16 ar
    18   18   17 ar
    19   19   14 ar
    20   20   19 ar
    21   21   12 ar
    22   22   24 1
    23   23    3 1
    24   24    1 2
    25   25    3 1
    26   26    5 1
    27   27    6 1
    28   28    7 1
    29   29    8 1
    30   30    9 1
    31   31   10 1
    32   32   13 1
    33   33   15 1
    34   34   16 1
    35   35   17 1
    36   36   18 1
    37   37   20 1
    38   38   21 1
    39   39    2 1
    40   40    2 1
    41   42   11 1
    42   43   11 1
    43    8    9 ar
    44   10   23 1
    45   18   19 ar
    46   20   21 ar
@<TRIPOS>SUBSTRUCTURE
     1 RES1 1

@<TRIPOS>CRYSIN
  18.5700    5.8290    7.9450  90.0000  89.4000  90.0000   4 1

