# MOL2 file generated by ConQuest
# Please check atom types

@<TRIPOS>MOLECULE
YAPZEU
    52    56     1
SMALL
NO_CHARGES
****
Generated from CSD

@<TRIPOS>ATOM
      1 O1         6.0859   12.3546    7.3997 O.3       1 RES1    0.0000
      2 O2         1.2478    4.2097   12.9129 O.3       1 RES1    0.0000
      3 N1         6.0733   13.3981    8.3679 N.2       1 RES1    0.0000
      4 C1         4.4200   10.4811   10.0268 C.3       1 RES1    0.0000
      5 C2         5.0716   11.5499    9.2157 C.2       1 RES1    0.0000
      6 C3         5.4706   11.2837    7.9597 C.2       1 RES1    0.0000
      7 C4         5.2536   10.0372    7.2689 C.2       1 RES1    0.0000
      8 C5         4.3883    9.1736    7.8158 C.2       1 RES1    0.0000
      9 C6         3.9887    7.9355    7.0596 C.3       1 RES1    0.0000
     10 C7         3.9181    6.7048    7.9492 C.3       1 RES1    0.0000
     11 C8         2.9948    6.9436    9.1450 C.3       1 RES1    0.0000
     12 C9         3.4907    8.1533    9.9666 C.3       1 RES1    0.0000
     13 C10        3.6464    9.4660    9.1372 C.3       1 RES1    0.0000
     14 C11        2.6558    8.3489   11.2435 C.3       1 RES1    0.0000
     15 C12        2.6129    7.0751   12.1175 C.3       1 RES1    0.0000
     16 C13        2.0893    5.8843   11.3063 C.3       1 RES1    0.0000
     17 C14        2.9684    5.7265   10.0530 C.3       1 RES1    0.0000
     18 C15        2.5107    4.3749    9.4695 C.3       1 RES1    0.0000
     19 C16        2.2001    3.5197   10.7124 C.3       1 RES1    0.0000
     20 C17        2.2707    4.4800   11.9395 C.3       1 RES1    0.0000
     21 C18        3.5943    4.3727   12.5858 C.1       1 RES1    0.0000
     22 C19        4.6613    4.2907   13.0516 C.1       1 RES1    0.0000
     23 C20        0.5909    6.0747   10.9688 C.3       1 RES1    0.0000
     24 C21        2.2819   10.0740    8.7473 C.3       1 RES1    0.0000
     25 C22        5.4725   12.8879    9.4224 C.2       1 RES1    0.0000
     26 H1         3.8581   10.8346   10.6757 H         1 RES1    0.0000
     27 H2         5.1705   10.0141   10.6234 H         1 RES1    0.0000
     28 H3         1.3850    3.4502   13.3185 H         1 RES1    0.0000
     29 H4         5.7047    9.8984    6.3322 H         1 RES1    0.0000
     30 H5         3.0799    8.0996    6.7508 H         1 RES1    0.0000
     31 H6         4.5769    7.8577    6.2537 H         1 RES1    0.0000
     32 H7         3.5811    5.9012    7.4050 H         1 RES1    0.0000
     33 H8         4.8078    6.5113    8.2423 H         1 RES1    0.0000
     34 H9         2.0576    7.1214    8.7918 H         1 RES1    0.0000
     35 H10        4.4846    7.8787   10.2571 H         1 RES1    0.0000
     36 H11        1.6817    8.6782   11.0159 H         1 RES1    0.0000
     37 H12        3.1062    9.0674   11.8009 H         1 RES1    0.0000
     38 H13        2.1170    7.2581   12.9522 H         1 RES1    0.0000
     39 H14        3.6207    6.8794   12.4550 H         1 RES1    0.0000
     40 H15        4.0032    5.6066   10.3879 H         1 RES1    0.0000
     41 H16        1.6488    4.4495    8.8441 H         1 RES1    0.0000
     42 H17        3.0997    4.0498    8.8964 H         1 RES1    0.0000
     43 H18        1.2333    3.1031   10.6496 H         1 RES1    0.0000
     44 H19        2.7831    2.7455   10.8066 H         1 RES1    0.0000
     45 H20        5.4409    4.2918   13.3970 H         1 RES1    0.0000
     46 H21        0.0791    6.3114   11.7747 H         1 RES1    0.0000
     47 H22        0.4485    6.8268   10.3617 H         1 RES1    0.0000
     48 H23        0.1187    5.3542   10.4926 H         1 RES1    0.0000
     49 H24        1.7015   10.3086    9.4983 H         1 RES1    0.0000
     50 H25        2.3478   10.9292    8.2161 H         1 RES1    0.0000
     51 H26        1.7609    9.4566    8.1638 H         1 RES1    0.0000
     52 H27        5.4277   13.4222   10.3356 H         1 RES1    0.0000
@<TRIPOS>BOND
     1    1    3 1
     2    2   20 1
     3    3   25 2
     4    4    5 1
     5    5    6 2
     6    6    1 1
     7    7    6 1
     8    8    7 2
     9    9    8 1
    10   10    9 1
    11   11   10 1
    12   12   11 1
    13   13    4 1
    14   14   12 1
    15   15   14 1
    16   16   15 1
    17   17   11 1
    18   18   17 1
    19   19   18 1
    20   20   16 1
    21   21   20 1
    22   22   21 3
    23   23   16 1
    24   24   13 1
    25   25    5 1
    26   26    4 1
    27   27    4 1
    28   28    2 1
    29   29    7 1
    30   30    9 1
    31   31    9 1
    32   32   10 1
    33   33   10 1
    34   34   11 1
    35   35   12 1
    36   36   14 1
    37   37   14 1
    38   38   15 1
    39   39   15 1
    40   40   17 1
    41   41   18 1
    42   42   18 1
    43   43   19 1
    44   44   19 1
    45   45   22 1
    46   46   23 1
    47   47   23 1
    48   48   23 1
    49   49   24 1
    50   50   24 1
    51   51   24 1
    52   52   25 1
    53    8   13 1
    54   12   13 1
    55   16   17 1
    56   19   20 1
@<TRIPOS>SUBSTRUCTURE
     1 RES1 1

@<TRIPOS>CRYSIN
   6.5950   10.5190   26.1660  90.0000  90.0000  90.0000  19 1

