# MOL2 file generated by ConQuest
# Please check atom types

@<TRIPOS>MOLECULE
YARHEF
    76    81     1
SMALL
NO_CHARGES
****
Generated from CSD

@<TRIPOS>ATOM
      1 O1         6.4546   14.5413    1.2541 O.3       1 RES1    0.0000
      2 O2         8.1388   16.4260    0.7864 O.3       1 RES1    0.0000
      3 O3         6.1670   19.4102    4.6518 O.2       1 RES1    0.0000
      4 N1         3.5696   20.1863    2.1196 N.2       1 RES1    0.0000
      5 N2         7.0649   19.7876    3.9845 N.pl3     1 RES1    0.0000
      6 C1         4.7968   19.8413    2.1107 C.2       1 RES1    0.0000
      7 C2         2.5816   19.1170    1.9224 C.3       1 RES1    0.0000
      8 H1         2.4734   18.9587    0.9712 H         1 RES1    0.0000
      9 H2         1.7250   19.4080    2.2734 H         1 RES1    0.0000
     10 C3         2.9742   17.8222    2.5972 C.3       1 RES1    0.0000
     11 H3         2.9696   17.9370    3.5596 H         1 RES1    0.0000
     12 H4         2.3374   17.1263    2.3704 H         1 RES1    0.0000
     13 C4         4.3451   17.4260    2.1388 C.ar      1 RES1    0.0000
     14 C5         4.7335   16.1058    1.9449 C.ar      1 RES1    0.0000
     15 H5         4.1307   15.4209    2.1244 H         1 RES1    0.0000
     16 C6         5.9930   15.7960    1.4921 C.ar      1 RES1    0.0000
     17 C7         6.9124   16.8300    1.2237 C.ar      1 RES1    0.0000
     18 C8         6.5362   18.1406    1.4248 C.ar      1 RES1    0.0000
     19 H6         7.1397   18.8259    1.2493 H         1 RES1    0.0000
     20 C9         5.2540   18.4490    1.8904 C.ar      1 RES1    0.0000
     21 C10        5.5812   13.4539    1.5386 C.3       1 RES1    0.0000
     22 H7         6.0238   12.6274    1.3366 H         1 RES1    0.0000
     23 H8         4.7882   13.5319    1.0033 H         1 RES1    0.0000
     24 H9         5.3420   13.4694    2.4681 H         1 RES1    0.0000
     25 C11        9.0832   17.4276    0.4712 C.3       1 RES1    0.0000
     26 H10        9.9056   17.0169    0.1947 H         1 RES1    0.0000
     27 H11        9.2420   17.9722    1.2453 H         1 RES1    0.0000
     28 H12        8.7432   17.9742   -0.2404 H         1 RES1    0.0000
     29 C12        5.7841   20.9507    2.2502 C.ar      1 RES1    0.0000
     30 C13        6.8941   20.9220    3.1044 C.ar      1 RES1    0.0000
     31 C14        7.7442   22.0052    3.2054 C.ar      1 RES1    0.0000
     32 H13        8.4778   21.9691    3.7759 H         1 RES1    0.0000
     33 C15        7.5037   23.1416    2.4593 C.ar      1 RES1    0.0000
     34 H14        8.0625   23.8815    2.5435 H         1 RES1    0.0000
     35 C16        6.4397   23.1783    1.5923 C.ar      1 RES1    0.0000
     36 H15        6.2916   23.9362    1.0746 H         1 RES1    0.0000
     37 C17        5.5933   22.1015    1.4849 C.ar      1 RES1    0.0000
     38 H16        4.8782   22.1410    0.8911 H         1 RES1    0.0000
     39 O1B        8.8470   24.5287    6.7594 O.3       1 RES1    0.0000
     40 O2B        7.1628   22.6440    7.2270 O.3       1 RES1    0.0000
     41 O3B        9.1347   19.6598    3.3617 O.2       1 RES1    0.0000
     42 N1B       11.7320   18.8837    5.8939 N.2       1 RES1    0.0000
     43 N2B        8.2368   19.2824    4.0290 N.pl3     1 RES1    0.0000
     44 C1B       10.5049   19.2287    5.9027 C.2       1 RES1    0.0000
     45 C2B       12.7200   19.9530    6.0910 C.3       1 RES1    0.0000
     46 H1B       12.8283   20.1113    7.0422 H         1 RES1    0.0000
     47 H2B       13.5767   19.6620    5.7400 H         1 RES1    0.0000
     48 C3B       12.3275   21.2478    5.4163 C.3       1 RES1    0.0000
     49 H3B       12.3321   21.1330    4.4539 H         1 RES1    0.0000
     50 H4B       12.9643   21.9437    5.6431 H         1 RES1    0.0000
     51 C4B       10.9566   21.6440    5.8747 C.ar      1 RES1    0.0000
     52 C5B       10.5682   22.9642    6.0686 C.ar      1 RES1    0.0000
     53 H5B       11.1710   23.6491    5.8891 H         1 RES1    0.0000
     54 C6B        9.3087   23.2740    6.5214 C.ar      1 RES1    0.0000
     55 C7B        8.3893   22.2400    6.7898 C.ar      1 RES1    0.0000
     56 C8B        8.7655   20.9294    6.5887 C.ar      1 RES1    0.0000
     57 H6B        8.1619   20.2441    6.7642 H         1 RES1    0.0000
     58 C9B       10.0477   20.6210    6.1231 C.ar      1 RES1    0.0000
     59 C10B       9.7204   25.6161    6.4749 C.3       1 RES1    0.0000
     60 H7B        9.2778   26.4426    6.6768 H         1 RES1    0.0000
     61 H8B       10.5135   25.5381    7.0102 H         1 RES1    0.0000
     62 H9B        9.9596   25.6006    5.5453 H         1 RES1    0.0000
     63 C11B       6.2185   21.6424    7.5423 C.3       1 RES1    0.0000
     64 H10B       5.3961   22.0531    7.8187 H         1 RES1    0.0000
     65 H11B       6.0596   21.0978    6.7682 H         1 RES1    0.0000
     66 H12B       6.5584   21.0958    8.2539 H         1 RES1    0.0000
     67 C12B       9.5176   18.1193    5.7633 C.ar      1 RES1    0.0000
     68 C13B       8.4076   18.1480    4.9091 C.ar      1 RES1    0.0000
     69 C14B       7.5574   17.0648    4.8081 C.ar      1 RES1    0.0000
     70 H13B       6.8239   17.1009    4.2375 H         1 RES1    0.0000
     71 C15B       7.7979   15.9284    5.5541 C.ar      1 RES1    0.0000
     72 H14B       7.2391   15.1885    5.4700 H         1 RES1    0.0000
     73 C16B       8.8620   15.8917    6.4212 C.ar      1 RES1    0.0000
     74 H15B       9.0101   15.1338    6.9389 H         1 RES1    0.0000
     75 C17B       9.7084   16.9685    6.5286 C.ar      1 RES1    0.0000
     76 H16B      10.4234   16.9290    7.1224 H         1 RES1    0.0000
@<TRIPOS>BOND
     1    1   16 1
     2    2   17 1
     3    3    5 1
     4    4    6 2
     5    5   30 1
     6    6   20 1
     7    7    4 1
     8    8    7 1
     9    9    7 1
    10   10    7 1
    11   11   10 1
    12   12   10 1
    13   13   10 1
    14   14   13 ar
    15   15   14 1
    16   16   14 ar
    17   17   16 ar
    18   18   17 ar
    19   19   18 1
    20   20   13 ar
    21   21    1 1
    22   22   21 1
    23   23   21 1
    24   24   21 1
    25   25    2 1
    26   26   25 1
    27   27   25 1
    28   28   25 1
    29   29    6 1
    30   30   29 ar
    31   31   30 ar
    32   32   31 1
    33   33   31 ar
    34   34   33 1
    35   35   33 ar
    36   36   35 1
    37   37   29 ar
    38   38   37 1
    39   39   54 1
    40   40   55 1
    41   41   43 1
    42   42   44 2
    43   43    5 2
    44   44   58 1
    45   45   42 1
    46   46   45 1
    47   47   45 1
    48   48   45 1
    49   49   48 1
    50   50   48 1
    51   51   48 1
    52   52   51 ar
    53   53   52 1
    54   54   52 ar
    55   55   54 ar
    56   56   55 ar
    57   57   56 1
    58   58   51 ar
    59   59   39 1
    60   60   59 1
    61   61   59 1
    62   62   59 1
    63   63   40 1
    64   64   63 1
    65   65   63 1
    66   66   63 1
    67   67   44 1
    68   68   43 1
    69   69   68 ar
    70   70   69 1
    71   71   69 ar
    72   72   71 1
    73   73   71 ar
    74   74   73 1
    75   75   67 ar
    76   76   75 1
    77   18   20 ar
    78   35   37 ar
    79   56   58 ar
    80   67   68 ar
    81   73   75 ar
@<TRIPOS>SUBSTRUCTURE
     1 RES1 1

@<TRIPOS>CRYSIN
   9.3901   19.5350    8.7359  90.0000 113.4650  90.0000  14 1

