# MOL2 file generated by ConQuest
# Please check atom types

@<TRIPOS>MOLECULE
YARPAJ
    29    33     1
SMALL
USER_CHARGES
****
Generated from CSD

@<TRIPOS>ATOM
      1 O1         2.8158    0.3188   15.1300 O.3       1 RES1    0.0000
      2 O2         0.7052   -0.5132   15.3289 O.2       1 RES1   -1.0000
      3 O3         6.0938    1.9595   21.7522 O.3       1 RES1    0.0000
      4 O4        -0.4031   -0.0785   19.7605 O.3       1 RES1    0.0000
      5 O5        -0.4747   -0.8575   22.5016 O.2       1 RES1    0.0000
      6 O6         3.8841   -1.5764   19.4349 O.2       1 RES1    0.0000
      7 N1         3.3240    0.7012   17.1467 N.pl3     1 RES1    1.0000
      8 N2         3.8138    0.8186   15.9359 N.2       1 RES1    0.0000
      9 N3         0.0549    0.2559   18.4592 N.2       1 RES1    0.0000
     10 C1         1.6849   -0.0742   15.8768 C.2       1 RES1    0.0000
     11 C2         2.0745    0.1852   17.2108 C.2       1 RES1    0.0000
     12 C3         4.1343    1.1424   18.2620 C.ar      1 RES1    0.0000
     13 C4         5.4162    0.6708   18.3873 C.ar      1 RES1    0.0000
     14 C5         6.1302    0.9444   19.5378 C.ar      1 RES1    0.0000
     15 C6         5.5303    1.6895   20.5404 C.ar      1 RES1    0.0000
     16 C7         4.2647    2.2232   20.3556 C.ar      1 RES1    0.0000
     17 C8         3.5523    1.9496   19.2186 C.ar      1 RES1    0.0000
     18 C9         7.2388    1.1918   22.1462 C.3       1 RES1    0.0000
     19 C10        1.3316   -0.0664   18.4332 C.2       1 RES1    0.0000
     20 C11        0.6477   -0.5556   20.4466 C.2       1 RES1    0.0000
     21 C12        1.7517   -0.6093   19.6876 C.2       1 RES1    0.0000
     22 C13        0.5588   -0.9402   21.8768 C.2       1 RES1    0.0000
     23 C14        2.9813   -1.2378   20.1767 C.2       1 RES1    0.0000
     24 C15        1.8607   -1.3629   22.4447 C.ar      1 RES1    0.0000
     25 C16        3.0172   -1.4824   21.6555 C.ar      1 RES1    0.0000
     26 C17        4.2185   -1.8422   22.2415 C.ar      1 RES1    0.0000
     27 C18        4.2758   -2.0854   23.6040 C.ar      1 RES1    0.0000
     28 C19        3.1382   -1.9793   24.3758 C.ar      1 RES1    0.0000
     29 C20        1.9359   -1.6273   23.8086 C.ar      1 RES1    0.0000
@<TRIPOS>BOND
     1    1    8 1
     2    2   10 1
     3    3   15 1
     4    4    9 1
     5    5   22 2
     6    6   23 2
     7    7    8 2
     8    9   19 2
     9   10    1 1
    10   11    7 1
    11   12    7 1
    12   13   12 ar
    13   14   13 ar
    14   15   14 ar
    15   16   15 ar
    16   17   12 ar
    17   18    3 1
    18   19   11 1
    19   20    4 1
    20   21   19 1
    21   22   20 1
    22   23   21 1
    23   24   22 1
    24   25   23 1
    25   26   25 ar
    26   27   26 ar
    27   28   27 ar
    28   29   24 ar
    29   10   11 2
    30   16   17 ar
    31   20   21 2
    32   24   25 ar
    33   28   29 ar
@<TRIPOS>SUBSTRUCTURE
     1 RES1 1

@<TRIPOS>CRYSIN
  10.0710    7.0690   23.9520  90.0000  96.0000  90.0000 231 1

