# MOL2 file generated by ConQuest
# Please check atom types

@<TRIPOS>MOLECULE
YAVNER
    86    88     1
SMALL
NO_CHARGES
****
Generated from CSD

@<TRIPOS>ATOM
      1 C1         2.1285    0.8684   20.1219 C.ar      1 RES1    0.0000
      2 C2         2.9247    1.8723   20.7371 C.ar      1 RES1    0.0000
      3 C3         2.8981    3.3031   20.3511 C.2       1 RES1    0.0000
      4 C4         3.7042    4.3278   21.0856 C.3       1 RES1    0.0000
      5 H1         4.4651    4.6032   20.5316 H         1 RES1    0.0000
      6 H2         4.0325    3.9451   21.9259 H         1 RES1    0.0000
      7 H3         3.1427    5.1076   21.2807 H         1 RES1    0.0000
      8 C5         2.1912   -0.4473   20.6329 C.ar      1 RES1    0.0000
      9 H4         1.6440   -1.1241   20.2498 H         1 RES1    0.0000
     10 C6         3.7754    1.4795   21.7916 C.ar      1 RES1    0.0000
     11 H5         4.3317    2.1329   22.1966 H         1 RES1    0.0000
     12 C7         3.0306   -0.7650   21.6726 C.ar      1 RES1    0.0000
     13 H6         3.0592   -1.6585   21.9963 H         1 RES1    0.0000
     14 C8         3.8286    0.1921   22.2514 C.ar      1 RES1    0.0000
     15 H7         4.4127   -0.0384   22.9641 H         1 RES1    0.0000
     16 C9         1.1435    6.0773   13.0239 C.3       1 RES1    0.0000
     17 H8         0.7155    6.9449   13.2341 H         1 RES1    0.0000
     18 H9         0.4232    5.4166   12.8633 H         1 RES1    0.0000
     19 C10        2.0217    5.1599   16.7182 C.3       1 RES1    0.0000
     20 H10        2.3279    4.2240   16.6196 H         1 RES1    0.0000
     21 H11        2.8237    5.7406   16.7383 H         1 RES1    0.0000
     22 C11        1.2828    5.2962   18.0250 C.3       1 RES1    0.0000
     23 H12        0.9142    6.2116   18.0954 H         1 RES1    0.0000
     24 H13        0.5223    4.6616   18.0324 H         1 RES1    0.0000
     25 C12        1.9586    5.6320   14.2190 C.3       1 RES1    0.0000
     26 H14        2.7040    6.2718   14.3503 H         1 RES1    0.0000
     27 H15        2.3544    4.7468   14.0203 H         1 RES1    0.0000
     28 C13        1.9630    6.2262   11.7557 C.3       1 RES1    0.0000
     29 H16        2.7296    6.8229   11.9437 H         1 RES1    0.0000
     30 H17        2.3282    5.3398   11.5099 H         1 RES1    0.0000
     31 C14        1.1734    5.5338   15.5146 C.3       1 RES1    0.0000
     32 H18        0.4599    4.8571   15.4034 H         1 RES1    0.0000
     33 H19        0.7368    6.4054   15.6889 H         1 RES1    0.0000
     34 C15        1.2015    6.7787   10.5706 C.3       1 RES1    0.0000
     35 H20        0.8254    7.6614   10.8165 H         1 RES1    0.0000
     36 H21        0.4435    6.1749   10.3678 H         1 RES1    0.0000
     37 N1         1.6366    3.1083    8.4552 N.2       1 RES1    0.0000
     38 O1         0.8066    1.9796    8.6561 O.3       1 RES1    0.0000
     39 C16        3.2543    4.1510    7.0613 C.ar      1 RES1    0.0000
     40 N2         1.3327    1.1481   19.0488 N.3       1 RES1    0.0000
     41 C17        0.0154    2.2151    9.8320 C.3       1 RES1    0.0000
     42 H22       -0.7693    1.6118    9.8227 H         1 RES1    0.0000
     43 H23       -0.3185    3.1467    9.8190 H         1 RES1    0.0000
     44 C18       -0.0718    2.0176   12.3394 C.3       1 RES1    0.0000
     45 H24       -0.8210    1.3813   12.2218 H         1 RES1    0.0000
     46 H25       -0.4581    2.9246   12.4406 H         1 RES1    0.0000
     47 C19       -0.3042    0.7944   17.3045 C.3       1 RES1    0.0000
     48 H26       -0.7229    1.6418   17.5985 H         1 RES1    0.0000
     49 H27       -1.0297    0.1787   17.0312 H         1 RES1    0.0000
     50 C20        0.8001    1.9893   11.1076 C.3       1 RES1    0.0000
     51 H28        1.2561    1.1107   11.0538 H         1 RES1    0.0000
     52 H29        1.4961    2.6874   11.1873 H         1 RES1    0.0000
     53 C21       -0.1858    1.5251   14.8579 C.3       1 RES1    0.0000
     54 H30       -0.6113    2.4001   15.0437 H         1 RES1    0.0000
     55 H31       -0.9060    0.8719   14.6729 H         1 RES1    0.0000
     56 C22        3.1832    5.4256    7.7017 C.ar      1 RES1    0.0000
     57 C23        2.0528    6.9350    9.3258 C.3       1 RES1    0.0000
     58 H32        1.5561    7.4509    8.6435 H         1 RES1    0.0000
     59 H33        2.8808    7.4309    9.5483 H         1 RES1    0.0000
     60 N3         2.3886    5.6267    8.8037 N.3       1 RES1    0.0000
     61 C24        0.6945    1.6552   13.6205 C.3       1 RES1    0.0000
     62 H34        1.1673    0.7967   13.4752 H         1 RES1    0.0000
     63 H35        1.3790    2.3500   13.7903 H         1 RES1    0.0000
     64 C25        4.1502    4.0096    6.0034 C.ar      1 RES1    0.0000
     65 H36        4.2219    3.1618    5.5807 H         1 RES1    0.0000
     66 C26        3.9700    6.4754    7.1970 C.ar      1 RES1    0.0000
     67 H37        3.9017    7.3357    7.5941 H         1 RES1    0.0000
     68 C27        2.3729    3.0063    7.4110 C.2       1 RES1    0.0000
     69 C28        4.9427    5.0523    5.5417 C.ar      1 RES1    0.0000
     70 H38        5.5479    4.9172    4.8205 H         1 RES1    0.0000
     71 C29        4.8344    6.2885    6.1473 C.ar      1 RES1    0.0000
     72 H39        5.3616    7.0150    5.8365 H         1 RES1    0.0000
     73 C30        0.4401    0.1876   18.4688 C.3       1 RES1    0.0000
     74 H40       -0.2074   -0.1186   19.1522 H         1 RES1    0.0000
     75 H41        0.9553   -0.5996   18.1585 H         1 RES1    0.0000
     76 C31        0.5897    1.0773   16.0923 C.3       1 RES1    0.0000
     77 H42        1.2430    1.7805   16.3341 H         1 RES1    0.0000
     78 H43        1.0973    0.2555   15.8706 H         1 RES1    0.0000
     79 O2         2.1148    5.0421   19.1563 O.3       1 RES1    0.0000
     80 N4         2.1293    3.6338   19.3758 N.2       1 RES1    0.0000
     81 C32        2.3791    1.7938    6.5362 C.3       1 RES1    0.0000
     82 H44        3.2292    1.3195    6.6449 H         1 RES1    0.0000
     83 H45        2.2723    2.0661    5.5992 H         1 RES1    0.0000
     84 H46        1.6401    1.2042    6.7932 H         1 RES1    0.0000
     85 H47        1.2488    1.9792   18.8445 H         1 RES1    0.0000
     86 H48        1.8173    4.9957    9.0181 H         1 RES1    0.0000
@<TRIPOS>BOND
     1    1    2 ar
     2    2    3 1
     3    3    4 1
     4    4    5 1
     5    6    4 1
     6    7    4 1
     7    8    1 ar
     8    9    8 1
     9   10    2 ar
    10   11   10 1
    11   12    8 ar
    12   13   12 1
    13   14   10 ar
    14   15   14 1
    15   16   17 1
    16   18   16 1
    17   19   20 1
    18   21   19 1
    19   22   19 1
    20   23   22 1
    21   24   22 1
    22   25   16 1
    23   26   25 1
    24   27   25 1
    25   28   16 1
    26   29   28 1
    27   30   28 1
    28   31   19 1
    29   32   31 1
    30   33   31 1
    31   34   28 1
    32   35   34 1
    33   36   34 1
    34   37   38 1
    35   38   41 1
    36   39   56 ar
    37   40    1 1
    38   41   42 1
    39   43   41 1
    40   44   45 1
    41   46   44 1
    42   47   48 1
    43   49   47 1
    44   50   41 1
    45   51   50 1
    46   52   50 1
    47   53   54 1
    48   55   53 1
    49   56   60 1
    50   57   34 1
    51   58   57 1
    52   59   57 1
    53   60   57 1
    54   61   44 1
    55   62   61 1
    56   63   61 1
    57   64   39 ar
    58   65   64 1
    59   66   56 ar
    60   67   66 1
    61   68   37 2
    62   69   64 ar
    63   70   69 1
    64   71   66 ar
    65   72   71 1
    66   73   40 1
    67   74   73 1
    68   75   73 1
    69   76   47 1
    70   77   76 1
    71   78   76 1
    72   79   22 1
    73   80    3 2
    74   81   68 1
    75   82   81 1
    76   83   81 1
    77   84   81 1
    78   85   40 1
    79   86   60 1
    80   12   14 ar
    81   25   31 1
    82   39   68 1
    83   44   50 1
    84   47   73 1
    85   53   61 1
    86   53   76 1
    87   69   71 ar
    88   79   80 1
@<TRIPOS>SUBSTRUCTURE
     1 RES1 1

@<TRIPOS>CRYSIN
   4.7534   16.7024   37.1570  90.0000  93.6700  90.0000   9 1

