# MOL2 file generated by ConQuest
# Please check atom types

@<TRIPOS>MOLECULE
YAVNAN
    33    35     1
SMALL
NO_CHARGES
****
Generated from CSD

@<TRIPOS>ATOM
      1 C1         7.4607    4.7631    6.8413 C.3       1 RES1    0.0000
      2 H1         8.0959    5.0971    7.5229 H         1 RES1    0.0000
      3 H2         7.9690    4.5734    6.0141 H         1 RES1    0.0000
      4 C2         6.8127    3.4997    7.3333 C.ar      1 RES1    0.0000
      5 C3         7.2352    2.8830    8.5005 C.ar      1 RES1    0.0000
      6 H3         7.9634    3.2511    8.9872 H         1 RES1    0.0000
      7 C4         6.6111    1.7375    8.9679 C.ar      1 RES1    0.0000
      8 H4         6.9238    1.3146    9.7581 H         1 RES1    0.0000
      9 C5         5.5324    1.2121    8.2824 C.ar      1 RES1    0.0000
     10 H5         5.0982    0.4305    8.6037 H         1 RES1    0.0000
     11 C6         5.0869    1.8297    7.1241 C.ar      1 RES1    0.0000
     12 H6         4.3432    1.4709    6.6552 H         1 RES1    0.0000
     13 C7         5.7197    2.9692    6.6457 C.ar      1 RES1    0.0000
     14 C8         4.2833    4.4581    5.1996 C.ar      1 RES1    0.0000
     15 C9         3.6320    4.3932    3.9565 C.ar      1 RES1    0.0000
     16 H7         3.9107    3.7423    3.3237 H         1 RES1    0.0000
     17 C10        2.5981    5.2474    3.6286 C.ar      1 RES1    0.0000
     18 C11        1.9226    5.0697    2.3636 C.1       1 RES1    0.0000
     19 C12        2.1652    6.2263    4.5267 C.ar      1 RES1    0.0000
     20 H8         1.4564    6.8192    4.3057 H         1 RES1    0.0000
     21 C13        2.8022    6.3007    5.7429 C.ar      1 RES1    0.0000
     22 H9         2.5114    6.9575    6.3647 H         1 RES1    0.0000
     23 C14        3.8622    5.4533    6.1150 C.ar      1 RES1    0.0000
     24 C15        4.4236    5.7027    7.4770 C.2       1 RES1    0.0000
     25 C16        3.4767    5.8419    8.6316 C.3       1 RES1    0.0000
     26 H10        3.9846    5.8761    9.4695 H         1 RES1    0.0000
     27 H11        2.8687    5.0732    8.6502 H         1 RES1    0.0000
     28 H12        2.9570    6.6671    8.5301 H         1 RES1    0.0000
     29 N1         1.3612    4.8904    1.3837 N.1       1 RES1    0.0000
     30 N2         5.6583    5.8735    7.7660 N.2       1 RES1    0.0000
     31 N3         5.2994    3.5281    5.3904 N.pl3     1 RES1    0.0000
     32 H13        5.7266    3.2545    4.6718 H         1 RES1    0.0000
     33 O1         6.4648    5.7706    6.5752 O.3       1 RES1    0.0000
@<TRIPOS>BOND
     1    1    2 1
     2    3    1 1
     3    4    1 1
     4    5    4 ar
     5    6    5 1
     6    7    5 ar
     7    8    7 1
     8    9    7 ar
     9   10    9 1
    10   11    9 ar
    11   12   11 1
    12   13    4 ar
    13   14   15 ar
    14   15   16 1
    15   17   15 ar
    16   18   17 1
    17   19   17 ar
    18   20   19 1
    19   21   19 ar
    20   22   21 1
    21   23   14 ar
    22   24   23 1
    23   25   24 1
    24   26   25 1
    25   27   25 1
    26   28   25 1
    27   29   18 3
    28   30   24 2
    29   31   13 1
    30   32   31 1
    31   33    1 1
    32   11   13 ar
    33   14   31 1
    34   21   23 ar
    35   30   33 1
@<TRIPOS>SUBSTRUCTURE
     1 RES1 1

@<TRIPOS>CRYSIN
   7.9947    8.5421   19.4070  90.0000  93.5840  90.0000 231 1

