# MOL2 file generated by ConQuest
# Please check atom types

@<TRIPOS>MOLECULE
YAWCEG01
    20    20     1
SMALL
NO_CHARGES
****
Generated from CSD

@<TRIPOS>ATOM
      1 O1         3.3846    3.7291    2.4991 O.2       1 RES1    0.0000
      2 O2         3.8228    2.6703    0.6834 O.2       1 RES1    0.0000
      3 N1        10.4788    0.1935    0.9862 N.1       1 RES1    0.0000
      4 N2        12.1317    0.0724    4.9863 N.1       1 RES1    0.0000
      5 N3         4.1047    3.0391    1.8133 N.pl3     1 RES1    0.0000
      6 C1         9.1037    1.4253    3.9845 C.2       1 RES1    0.0000
      7 H1         9.1604    1.6018    4.8965 H         1 RES1    0.0000
      8 C2        10.1815    0.8286    3.4602 C.2       1 RES1    0.0000
      9 C3        10.3478    0.4760    2.0682 C.1       1 RES1    0.0000
     10 C4        11.2730    0.4296    4.3100 C.1       1 RES1    0.0000
     11 C5         7.8537    1.8437    3.3621 C.ar      1 RES1    0.0000
     12 C6         7.5329    1.6157    2.0168 C.ar      1 RES1    0.0000
     13 H2         8.1511    1.2082    1.4554 H         1 RES1    0.0000
     14 C7         6.3045    1.9927    1.5249 C.ar      1 RES1    0.0000
     15 H3         6.0835    1.8309    0.6368 H         1 RES1    0.0000
     16 C8         5.4067    2.6123    2.3651 C.ar      1 RES1    0.0000
     17 C9         5.6903    2.8669    3.6924 C.ar      1 RES1    0.0000
     18 H4         5.0722    3.2907    4.2430 H         1 RES1    0.0000
     19 C10        6.9168    2.4753    4.1760 C.ar      1 RES1    0.0000
     20 H5         7.1241    2.6355    5.0677 H         1 RES1    0.0000
@<TRIPOS>BOND
     1    1    5 2
     2    2    5 2
     3    3    9 3
     4    4   10 3
     5    5   16 1
     6    6    7 1
     7    8    6 2
     8    9    8 1
     9   10    8 1
    10   11    6 1
    11   12   11 ar
    12   13   12 1
    13   14   12 ar
    14   15   14 1
    15   16   14 ar
    16   17   16 ar
    17   18   17 1
    18   19   11 ar
    19   20   19 1
    20   17   19 ar
@<TRIPOS>SUBSTRUCTURE
     1 RES1 1

@<TRIPOS>CRYSIN
  19.5610    3.8700   11.9690  90.0000  90.0000  90.0000  33 1

