# MOL2 file generated by ConQuest
# Please check atom types

@<TRIPOS>MOLECULE
YAWHUB
    33    34     1
SMALL
NO_CHARGES
****
Generated from CSD

@<TRIPOS>ATOM
      1 O1        -2.2928    0.1880    2.2081 O.2       1 RES1    0.0000
      2 O2        -2.8605    2.2294    2.1466 O.2       1 RES1    0.0000
      3 N1        -2.0978    1.3563    2.4766 N.pl3     1 RES1    0.0000
      4 C1         1.4192    2.4400    4.5223 C.ar      1 RES1    0.0000
      5 C2         1.1571    1.1095    4.2196 C.ar      1 RES1    0.0000
      6 H1         1.7654    0.4545    4.4749 H         1 RES1    0.0000
      7 C3         0.0089    0.7437    3.5471 C.ar      1 RES1    0.0000
      8 H2        -0.1624   -0.1475    3.3445 H         1 RES1    0.0000
      9 C4        -0.8735    1.7303    3.1835 C.ar      1 RES1    0.0000
     10 C5        -0.6434    3.0597    3.4528 C.ar      1 RES1    0.0000
     11 H3        -1.2498    3.7133    3.1885 H         1 RES1    0.0000
     12 C6         0.5072    3.3948    4.1242 C.ar      1 RES1    0.0000
     13 H4         0.6755    4.2896    4.3150 H         1 RES1    0.0000
     14 C7         2.6793    2.8588    5.2248 C.3       1 RES1    0.0000
     15 H5         3.4106    2.8609    4.5881 H         1 RES1    0.0000
     16 H6         2.5706    3.7648    5.5546 H         1 RES1    0.0000
     17 N2         3.0183    1.9997    6.3214 N.3       1 RES1    0.0000
     18 C8         4.1894    2.2338    7.0589 C.ar      1 RES1    0.0000
     19 C9         5.2059    3.0545    6.5824 C.ar      1 RES1    0.0000
     20 H7         5.0938    3.5024    5.7751 H         1 RES1    0.0000
     21 C10        6.3753    3.2108    7.2911 C.ar      1 RES1    0.0000
     22 H8         7.0429    3.7631    6.9532 H         1 RES1    0.0000
     23 C11        6.5774    2.5633    8.4912 C.ar      1 RES1    0.0000
     24 C12        5.5718    1.7601    8.9824 C.ar      1 RES1    0.0000
     25 H9         5.6845    1.3241    9.7971 H         1 RES1    0.0000
     26 C13        4.3952    1.5965    8.2721 C.ar      1 RES1    0.0000
     27 H10        3.7284    1.0462    8.6160 H         1 RES1    0.0000
     28 O3         7.7871    2.8039    9.1051 O.3       1 RES1    0.0000
     29 C14        8.1050    2.0616   10.2669 C.3       1 RES1    0.0000
     30 H11        7.4727    2.2657   10.9602 H         1 RES1    0.0000
     31 H12        8.9890    2.2932   10.5619 H         1 RES1    0.0000
     32 H13        8.0691    1.1234   10.0673 H         1 RES1    0.0000
     33 H14        2.3409    1.6568    6.7843 H         1 RES1    0.0000
@<TRIPOS>BOND
     1    1    3 2
     2    2    3 2
     3    3    9 1
     4    4    5 ar
     5    5    6 1
     6    7    5 ar
     7    8    7 1
     8    9    7 ar
     9   10    9 ar
    10   11   10 1
    11   12    4 ar
    12   13   12 1
    13   14    4 1
    14   15   14 1
    15   16   14 1
    16   17   14 1
    17   18   17 1
    18   19   18 ar
    19   20   19 1
    20   21   19 ar
    21   22   21 1
    22   23   21 ar
    23   24   23 ar
    24   25   24 1
    25   26   18 ar
    26   27   26 1
    27   28   23 1
    28   29   28 1
    29   30   29 1
    30   31   29 1
    31   32   29 1
    32   33   17 1
    33   10   12 ar
    34   24   26 ar
@<TRIPOS>SUBSTRUCTURE
     1 RES1 1

@<TRIPOS>CRYSIN
   7.4993   17.1516   10.0048  90.0000  96.8610  90.0000 231 1

