# MOL2 file generated by ConQuest
# Please check atom types

@<TRIPOS>MOLECULE
YAWNER
    27    28     1
SMALL
NO_CHARGES
****
Generated from CSD

@<TRIPOS>ATOM
      1 O1         5.4891    3.1518    2.4853 O.2       1 RES1    0.0000
      2 O2         4.1751    2.7297    0.8293 O.2       1 RES1    0.0000
      3 N1         9.6229    0.7186   -1.5910 N.pl3     1 RES1    0.0000
      4 N2        10.7196    0.2663   -0.8944 N.2       1 RES1    0.0000
      5 N3         5.2793    2.7065    1.3659 N.pl3     1 RES1    0.0000
      6 C1         9.8139    0.6614   -2.9482 C.2       1 RES1    0.0000
      7 C2        11.5800   -0.1047   -1.8314 C.2       1 RES1    0.0000
      8 C3        11.0585    0.1268   -3.1253 C.2       1 RES1    0.0000
      9 H1        11.4891   -0.0533   -3.9533 H         1 RES1    0.0000
     10 C4        12.9229   -0.6660   -1.4780 C.3       1 RES1    0.0000
     11 H2        13.2367   -0.2605   -0.6437 H         1 RES1    0.0000
     12 H3        13.5597   -0.4681   -2.1977 H         1 RES1    0.0000
     13 H4        12.8517   -1.6366   -1.3634 H         1 RES1    0.0000
     14 C5         8.8633    1.1944   -3.9720 C.3       1 RES1    0.0000
     15 H5         8.1777    0.5203   -4.1637 H         1 RES1    0.0000
     16 H6         9.3521    1.4058   -4.7938 H         1 RES1    0.0000
     17 H7         8.4344    2.0065   -3.6283 H         1 RES1    0.0000
     18 C6         8.5189    1.2044   -0.8608 C.ar      1 RES1    0.0000
     19 C7         8.7440    1.7974    0.3824 C.ar      1 RES1    0.0000
     20 H8         9.6302    1.8832    0.7147 H         1 RES1    0.0000
     21 C8         7.6763    2.2608    1.1318 C.ar      1 RES1    0.0000
     22 H9         7.8162    2.6508    1.9860 H         1 RES1    0.0000
     23 C9         6.3940    2.1441    0.6076 C.ar      1 RES1    0.0000
     24 C10        6.1554    1.5631   -0.6201 C.ar      1 RES1    0.0000
     25 H10        5.2686    1.5028   -0.9575 H         1 RES1    0.0000
     26 C11        7.2169    1.0688   -1.3547 C.ar      1 RES1    0.0000
     27 H11        7.0633    0.6405   -2.1890 H         1 RES1    0.0000
@<TRIPOS>BOND
     1    1    5 2
     2    2    5 2
     3    3    4 1
     4    4    7 2
     5    5   23 1
     6    6    3 1
     7    7    8 1
     8    8    6 2
     9    9    8 1
    10   10    7 1
    11   11   10 1
    12   12   10 1
    13   13   10 1
    14   14    6 1
    15   15   14 1
    16   16   14 1
    17   17   14 1
    18   18    3 1
    19   19   18 ar
    20   20   19 1
    21   21   19 ar
    22   22   21 1
    23   23   21 ar
    24   24   23 ar
    25   25   24 1
    26   26   18 ar
    27   27   26 1
    28   24   26 ar
@<TRIPOS>SUBSTRUCTURE
     1 RES1 1

@<TRIPOS>CRYSIN
  21.3909    3.8653   12.4514  90.0000  90.0000  90.0000  29 1

