# MOL2 file generated by ConQuest
# Please check atom types

@<TRIPOS>MOLECULE
YAWQAR
    22    22     1
SMALL
NO_CHARGES
****
Generated from CSD

@<TRIPOS>ATOM
      1 O1         6.2178    3.6676    2.7415 O.2       1 RES1    0.0000
      2 O2         4.9821    4.9055    4.0192 O.2       1 RES1    0.0000
      3 O3         0.9235    2.9724    5.4866 O.2       1 RES1    0.0000
      4 O4        -0.0429    1.4044    4.3321 O.2       1 RES1    0.0000
      5 O5         1.2192    0.9699   -0.2483 O.2       1 RES1    0.0000
      6 O6         3.2917    1.1683   -0.8065 O.2       1 RES1    0.0000
      7 O7         5.9359    4.3133   -0.7464 O.2       1 RES1    0.0000
      8 O8         4.7586    5.1326    0.8907 O.2       1 RES1    0.0000
      9 N1         5.1376    4.0218    3.2009 N.pl3     1 RES1    0.0000
     10 N2         0.8365    2.2398    4.5061 N.pl3     1 RES1    0.0000
     11 N3         2.3604    1.3259   -0.0168 N.pl3     1 RES1    0.0000
     12 N4         4.7654    2.9181    0.5046 N.3       1 RES1    0.0000
     13 N5         5.1807    4.2132    0.1997 N.pl3     1 RES1    0.0000
     14 C1         3.9311    3.2793    2.7737 C.ar      1 RES1    0.0000
     15 C2         2.9672    3.1471    3.7517 C.ar      1 RES1    0.0000
     16 H1         3.0666    3.5555    4.5805 H         1 RES1    0.0000
     17 C3         1.8551    2.3922    3.4625 C.ar      1 RES1    0.0000
     18 C4         1.6638    1.7838    2.2442 C.ar      1 RES1    0.0000
     19 H2         0.9063    1.2703    2.0786 H         1 RES1    0.0000
     20 C5         2.6307    1.9582    1.2731 C.ar      1 RES1    0.0000
     21 C6         3.8041    2.7222    1.4915 C.ar      1 RES1    0.0000
     22 H3         4.7679    2.3789   -0.1189 H         1 RES1    0.0000
@<TRIPOS>BOND
     1    1    9 2
     2    2    9 2
     3    3   10 2
     4    4   10 2
     5    5   11 2
     6    6   11 2
     7    7   13 2
     8    8   13 2
     9    9   14 1
    10   10   17 1
    11   11   20 1
    12   12   13 1
    13   14   15 ar
    14   15   16 1
    15   17   15 ar
    16   18   17 ar
    17   19   18 1
    18   20   18 ar
    19   21   12 1
    20   22   12 1
    21   14   21 ar
    22   20   21 ar
@<TRIPOS>SUBSTRUCTURE
     1 RES1 1

@<TRIPOS>CRYSIN
   7.0940    9.1850   15.1090  90.0000 100.4700  90.0000 231 1

