# MOL2 file generated by ConQuest
# Please check atom types

@<TRIPOS>MOLECULE
YAWWEY
    43    44     2
SMALL
NO_CHARGES
****
Generated from CSD

@<TRIPOS>ATOM
      1 O1         5.9648    1.2963   -1.3535 O.2       1 RES1    0.0000
      2 O2         5.0534   -2.5431   -1.3760 O.2       1 RES1    0.0000
      3 O3        11.5357   -2.0695    2.4868 O.2       1 RES1    0.0000
      4 O4        12.6370   -0.6149    3.5606 O.2       1 RES1    0.0000
      5 N1         7.8309    0.5169    0.2990 N.3       1 RES1    0.0000
      6 N2         7.5828   -0.7099   -0.1270 N.2       1 RES1    0.0000
      7 N3        11.6755   -0.9504    2.9096 N.pl3     1 RES1    0.0000
      8 C1        10.6500    0.0517    2.5977 C.ar      1 RES1    0.0000
      9 C2        10.6423    1.2310    3.3018 C.ar      1 RES1    0.0000
     10 C3         9.6880    2.1623    2.9932 C.ar      1 RES1    0.0000
     11 C4         8.7630    1.9229    1.9933 C.ar      1 RES1    0.0000
     12 C5         8.7845    0.7257    1.3037 C.ar      1 RES1    0.0000
     13 C6         9.7356   -0.2331    1.5930 C.ar      1 RES1    0.0000
     14 C7         6.6859   -0.9177   -1.0626 C.2       1 RES1    0.0000
     15 C8         5.9597    0.1508   -1.7875 C.2       1 RES1    0.0000
     16 C9         6.2479   -2.3417   -1.2121 C.2       1 RES1    0.0000
     17 C10        7.2020   -3.4766   -1.1526 C.ar      1 RES1    0.0000
     18 C11        8.5817   -3.3321   -1.1912 C.ar      1 RES1    0.0000
     19 C12        9.3940   -4.4449   -1.1654 C.ar      1 RES1    0.0000
     20 C13        8.8586   -5.6949   -1.1076 C.ar      1 RES1    0.0000
     21 C14        7.5077   -5.8541   -1.0899 C.ar      1 RES1    0.0000
     22 C15        6.6739   -4.7582   -1.1140 C.ar      1 RES1    0.0000
     23 C16        5.2570   -0.1403   -3.0719 C.ar      1 RES1    0.0000
     24 C17        5.7332   -1.0759   -3.9770 C.ar      1 RES1    0.0000
     25 C18        5.0611   -1.2710   -5.1697 C.ar      1 RES1    0.0000
     26 C19        3.9256   -0.5538   -5.4478 C.ar      1 RES1    0.0000
     27 C20        3.4635    0.3681   -4.5637 C.ar      1 RES1    0.0000
     28 C21        4.1267    0.5970   -3.3838 C.ar      1 RES1    0.0000
     29 H1         7.2621    1.1603    0.0804 H         1 RES1    0.0000
     30 H2        11.2952    1.3818    3.9705 H         1 RES1    0.0000
     31 H3         9.6342    3.0378    3.4883 H         1 RES1    0.0000
     32 H4         8.0690    2.5948    1.8004 H         1 RES1    0.0000
     33 H5         9.7869   -1.0653    1.1574 H         1 RES1    0.0000
     34 H6        10.0419   -2.4788   -1.2056 Du        2 SUP2    0.0000
     35 H7        10.3417   -4.3458   -1.1253 H         1 RES1    0.0000
     36 H8         9.4317   -6.4765   -1.0770 H         1 RES1    0.0000
     37 H9         7.1038   -6.6452   -1.0288 H         1 RES1    0.0000
     38 H10        5.6613   -4.8310   -1.0610 H         1 RES1    0.0000
     39 H11        6.5337   -1.5611   -3.7776 H         1 RES1    0.0000
     40 H12        5.4130   -1.9092   -5.7066 H         1 RES1    0.0000
     41 H13        3.4911   -0.7595   -6.2532 H         1 RES1    0.0000
     42 H14        2.7039    0.8227   -4.7904 H         1 RES1    0.0000
     43 H15        3.8386    1.2763   -2.7810 H         1 RES1    0.0000
@<TRIPOS>BOND
     1    1   15 2
     2    2   16 2
     3    3    7 2
     4    4    7 2
     5    5    6 1
     6    6   14 2
     7    7    8 1
     8    8    9 ar
     9    9   10 ar
    10   10   11 ar
    11   11   12 ar
    12   12    5 1
    13   13    8 ar
    14   14   15 1
    15   15   23 1
    16   16   14 1
    17   17   16 1
    18   18   17 ar
    19   19   18 ar
    20   20   19 ar
    21   21   20 ar
    22   22   17 ar
    23   23   24 ar
    24   24   25 ar
    25   25   26 ar
    26   26   27 ar
    27   27   28 ar
    28   28   23 ar
    29   29    5 1
    30   30    9 1
    31   31   10 1
    32   32   11 1
    33   33   13 1
    34   35   19 1
    35   36   20 1
    36   37   21 1
    37   38   22 1
    38   39   24 1
    39   40   25 1
    40   41   26 1
    41   42   27 1
    42   43   28 1
    43   12   13 ar
    44   21   22 ar
@<TRIPOS>SUBSTRUCTURE
     1 RES1 1
     2 SUP2 34

@<TRIPOS>CRYSIN
  10.5810   10.5480   16.4590  90.0000 102.4000  90.0000 231 1

