# MOL2 file generated by ConQuest
# Please check atom types

@<TRIPOS>MOLECULE
YAXCUX
    49    52     1
SMALL
NO_CHARGES
****
Generated from CSD

@<TRIPOS>ATOM
      1 C1         7.2115    8.6850    2.6751 C.ar      1 RES1    0.0000
      2 C2         7.8860    9.2576    1.5806 C.ar      1 RES1    0.0000
      3 H1         7.5020   10.0051    1.1381 H         1 RES1    0.0000
      4 C3         9.0923    8.7574    1.1372 C.ar      1 RES1    0.0000
      5 H2         9.5286    9.1681    0.3996 H         1 RES1    0.0000
      6 C4         9.6715    7.6665    1.7538 C.ar      1 RES1    0.0000
      7 H3        10.5046    7.3249    1.4510 H         1 RES1    0.0000
      8 C5         9.0145    7.0792    2.8228 C.ar      1 RES1    0.0000
      9 H4         9.4110    6.3299    3.2499 H         1 RES1    0.0000
     10 C6         7.7931    7.5514    3.2904 C.ar      1 RES1    0.0000
     11 N1         6.0495    9.2211    3.1647 N.3       1 RES1    0.0000
     12 H5         5.6726    8.8026    3.9457 H         1 RES1    0.0000
     13 C7         5.4094   10.3870    2.5935 C.3       1 RES1    0.0000
     14 H6         6.1033   11.0706    2.4132 H         1 RES1    0.0000
     15 H7         4.7863   10.7644    3.2642 H         1 RES1    0.0000
     16 C8         4.6421   10.1302    1.3136 C.ar      1 RES1    0.0000
     17 C9         4.7097   11.0211    0.2571 C.ar      1 RES1    0.0000
     18 H8         5.2784   11.7791    0.3220 H         1 RES1    0.0000
     19 C10        3.9614   10.8262   -0.8957 C.ar      1 RES1    0.0000
     20 H9         4.0224   11.4460   -1.6127 H         1 RES1    0.0000
     21 C11        3.1297    9.7325   -0.9990 C.ar      1 RES1    0.0000
     22 H10        2.6058    9.6042   -1.7808 H         1 RES1    0.0000
     23 C12        3.0608    8.8252    0.0380 C.ar      1 RES1    0.0000
     24 H11        2.4976    8.0630   -0.0362 H         1 RES1    0.0000
     25 C13        3.8092    9.0205    1.1854 C.ar      1 RES1    0.0000
     26 H12        3.7548    8.3905    1.8946 H         1 RES1    0.0000
     27 C14        7.1611    6.8754    4.4665 C.ar      1 RES1    0.0000
     28 C15        5.9176    6.1749    4.3787 C.ar      1 RES1    0.0000
     29 C16        5.1668    6.0767    3.1850 C.ar      1 RES1    0.0000
     30 H13        5.4865    6.5106    2.4029 H         1 RES1    0.0000
     31 C17        3.9836    5.3706    3.1229 C.ar      1 RES1    0.0000
     32 C18        3.5205    4.7421    4.2981 C.ar      1 RES1    0.0000
     33 H14        2.7005    4.2623    4.2703 H         1 RES1    0.0000
     34 C19        4.2100    4.8000    5.4735 C.ar      1 RES1    0.0000
     35 H15        3.8751    4.3639    6.2490 H         1 RES1    0.0000
     36 C20        5.4190    5.5098    5.5257 C.ar      1 RES1    0.0000
     37 N2         6.1441    5.5264    6.7195 N.pl3     1 RES1    0.0000
     38 C21        7.3073    6.1923    6.8109 C.ar      1 RES1    0.0000
     39 C22        7.8009    6.8604    5.6792 C.ar      1 RES1    0.0000
     40 H16        8.6235    7.3277    5.7575 H         1 RES1    0.0000
     41 C23        3.2006    5.2777    1.8479 C.3       1 RES1    0.0000
     42 H17        2.4272    5.8783    1.8946 H         1 RES1    0.0000
     43 H18        2.8914    4.3568    1.7200 H         1 RES1    0.0000
     44 H19        3.7714    5.5381    1.0941 H         1 RES1    0.0000
     45 O1         5.6866    4.8668    7.7501 O.2       1 RES1    0.0000
     46 C24        7.9933    6.1782    8.1272 C.3       1 RES1    0.0000
     47 H20        8.8007    6.7321    8.0802 H         1 RES1    0.0000
     48 H21        8.2402    5.2587    8.3570 H         1 RES1    0.0000
     49 H22        7.3913    6.5360    8.8135 H         1 RES1    0.0000
@<TRIPOS>BOND
     1    1    2 ar
     2    2    3 1
     3    4    2 ar
     4    5    4 1
     5    6    4 ar
     6    7    6 1
     7    8    6 ar
     8    9    8 1
     9   10    1 ar
    10   11    1 1
    11   12   11 1
    12   13   11 1
    13   14   13 1
    14   15   13 1
    15   16   13 1
    16   17   16 ar
    17   18   17 1
    18   19   17 ar
    19   20   19 1
    20   21   19 ar
    21   22   21 1
    22   23   21 ar
    23   24   23 1
    24   25   16 ar
    25   26   25 1
    26   27   10 1
    27   28   27 ar
    28   29   28 ar
    29   30   29 1
    30   31   29 ar
    31   32   31 ar
    32   33   32 1
    33   34   32 ar
    34   35   34 1
    35   36   28 ar
    36   37   36 ar
    37   38   37 ar
    38   39   27 ar
    39   40   39 1
    40   41   31 1
    41   42   41 1
    42   43   41 1
    43   44   41 1
    44   45   37 1
    45   46   38 1
    46   47   46 1
    47   48   46 1
    48   49   46 1
    49    8   10 ar
    50   23   25 ar
    51   34   36 ar
    52   38   39 ar
@<TRIPOS>SUBSTRUCTURE
     1 RES1 1

@<TRIPOS>CRYSIN
  10.1656   14.1135   12.9372  90.0000  91.5470  90.0000 231 1

