# MOL2 file generated by ConQuest
# Please check atom types

@<TRIPOS>MOLECULE
YAXPOF
    43    45     1
SMALL
USER_CHARGES
****
Generated from CSD

@<TRIPOS>ATOM
      1 O1         3.6293    3.7533    3.6593 O.3       1 RES1    0.0000
      2 O2         3.3806   -2.3194    2.1608 O.3       1 RES1    0.0000
      3 O3         1.5815    4.7711    6.8992 O.2       1 RES1   -1.0000
      4 N1         2.1101    4.6274    5.7240 N.pl3     1 RES1    1.0000
      5 N2         0.1073    1.9605    6.3246 N.1       1 RES1    0.0000
      6 C1         3.6233    9.4895    6.4500 C.ar      1 RES1    0.0000
      7 H1         3.8052   10.3545    6.7388 H         1 RES1    0.0000
      8 C2         2.9802    8.6185    7.2672 C.ar      1 RES1    0.0000
      9 H2         2.7330    8.8955    8.1204 H         1 RES1    0.0000
     10 C3         2.6823    7.3309    6.8643 C.ar      1 RES1    0.0000
     11 H3         2.2325    6.7571    7.4420 H         1 RES1    0.0000
     12 C4         3.0521    6.8849    5.5948 C.ar      1 RES1    0.0000
     13 C5         2.7936    5.5453    5.0750 C.2       1 RES1    0.0000
     14 C6         3.2443    5.1457    3.6915 C.3       1 RES1    0.0000
     15 H4         4.0470    5.6705    3.4882 H         1 RES1    0.0000
     16 C7         2.7434    2.8775    4.1799 C.2       1 RES1    0.0000
     17 C8         2.8682    1.5315    3.6307 C.ar      1 RES1    0.0000
     18 C9         3.7015    1.3264    2.5560 C.ar      1 RES1    0.0000
     19 H5         4.1465    2.0513    2.1807 H         1 RES1    0.0000
     20 C10        3.8931    0.0518    2.0144 C.ar      1 RES1    0.0000
     21 H6         4.4593   -0.0740    1.2866 H         1 RES1    0.0000
     22 C11        3.2316   -1.0098    2.5741 C.ar      1 RES1    0.0000
     23 C12        4.1136   -2.5567    1.0006 C.3       1 RES1    0.0000
     24 H7         3.6891   -2.1188    0.2585 H         1 RES1    0.0000
     25 H8         4.1520   -3.5016    0.8333 H         1 RES1    0.0000
     26 H9         5.0037   -2.2146    1.1079 H         1 RES1    0.0000
     27 C13        4.0016    9.0893    5.2043 C.ar      1 RES1    0.0000
     28 H10        4.4424    9.6816    4.6389 H         1 RES1    0.0000
     29 C14        3.7305    7.8069    4.7843 C.ar      1 RES1    0.0000
     30 H11        4.0048    7.5432    3.9357 H         1 RES1    0.0000
     31 C15        1.9248    3.3274    5.1501 C.2       1 RES1    0.0000
     32 C16        2.2249    5.4629    2.6207 C.3       1 RES1    0.0000
     33 H12        1.4237    4.9432    2.7860 H         1 RES1    0.0000
     34 H13        1.9859    6.4000    2.6834 H         1 RES1    0.0000
     35 C17        2.7130    5.1764    1.2220 C.3       1 RES1    0.0000
     36 H14        3.5472    5.6269    1.0756 H         1 RES1    0.0000
     37 H15        2.0644    5.4897    0.5872 H         1 RES1    0.0000
     38 H16        2.8368    4.2311    1.1136 H         1 RES1    0.0000
     39 C18        2.4256   -0.8364    3.6526 C.ar      1 RES1    0.0000
     40 H17        2.0009   -1.5700    4.0355 H         1 RES1    0.0000
     41 C19        2.2367    0.4107    4.1761 C.ar      1 RES1    0.0000
     42 H18        1.6767    0.5161    4.9116 H         1 RES1    0.0000
     43 C20        0.9131    2.5715    5.8105 C.1       1 RES1    0.0000
@<TRIPOS>BOND
     1    1   14 1
     2    2   22 1
     3    3    4 1
     4    4   13 2
     5    5   43 3
     6    6    7 1
     7    8    6 ar
     8    9    8 1
     9   10    8 ar
    10   11   10 1
    11   12   10 ar
    12   13   12 1
    13   14   13 1
    14   15   14 1
    15   16    1 1
    16   17   16 1
    17   18   17 ar
    18   19   18 1
    19   20   18 ar
    20   21   20 1
    21   22   20 ar
    22   23    2 1
    23   24   23 1
    24   25   23 1
    25   26   23 1
    26   27    6 ar
    27   28   27 1
    28   29   12 ar
    29   30   29 1
    30   31    4 1
    31   32   14 1
    32   33   32 1
    33   34   32 1
    34   35   32 1
    35   36   35 1
    36   37   35 1
    37   38   35 1
    38   39   22 ar
    39   40   39 1
    40   41   17 ar
    41   42   41 1
    42   43   31 1
    43   16   31 2
    44   27   29 ar
    45   39   41 ar
@<TRIPOS>SUBSTRUCTURE
     1 RES1 1

@<TRIPOS>CRYSIN
   8.3106   21.7760    9.5196  90.0000  93.4810  90.0000 231 1

