# MOL2 file generated by ConQuest
# Please check atom types

@<TRIPOS>MOLECULE
YAYCIK
    59    62     1
SMALL
NO_CHARGES
****
Generated from CSD

@<TRIPOS>ATOM
      1 O1         6.2450    6.7818    4.6436 O.3       1 RES1    0.0000
      2 O2         8.1592    5.9641    5.4505 O.2       1 RES1    0.0000
      3 O3         1.3232    8.1012    5.9249 O.2       1 RES1    0.0000
      4 O4         2.2970    7.6557    7.7631 O.2       1 RES1    0.0000
      5 O5         1.8661    0.8112    6.5379 O.3       1 RES1    0.0000
      6 O6         3.3830    2.3787    6.9386 O.2       1 RES1    0.0000
      7 O7        10.7417   12.3381    4.9193 O.2       1 RES1    0.0000
      8 O8         8.8119   13.0696    4.3502 O.2       1 RES1    0.0000
      9 N1         2.0646    7.4524    6.5953 N.pl3     1 RES1    0.0000
     10 N2         9.5683   12.1811    4.6645 N.pl3     1 RES1    0.0000
     11 C1         3.5769    4.2062    4.2049 C.2       1 RES1    0.0000
     12 C2         4.2788    5.5528    4.0934 C.3       1 RES1    0.0000
     13 C3         3.4250    6.6956    4.6348 C.3       1 RES1    0.0000
     14 C4         2.7566    6.2648    5.9296 C.3       1 RES1    0.0000
     15 C5         1.7517    5.1625    5.6654 C.3       1 RES1    0.0000
     16 C6         1.0299    4.6725    6.9103 C.3       1 RES1    0.0000
     17 C7        -0.0275    3.6294    6.5919 C.3       1 RES1    0.0000
     18 C8         0.3083    2.8306    5.3336 C.3       1 RES1    0.0000
     19 C9         1.8226    2.6625    5.0997 C.3       1 RES1    0.0000
     20 C10        2.1195    1.7992    3.8670 C.3       1 RES1    0.0000
     21 C11        3.6037    1.7182    3.6231 C.3       1 RES1    0.0000
     22 C12        4.2197    3.0984    3.4021 C.3       1 RES1    0.0000
     23 C13        2.4672    4.0371    4.9369 C.2       1 RES1    0.0000
     24 C14        5.6170    5.4771    4.7848 C.3       1 RES1    0.0000
     25 C15        2.4668    1.9737    6.2993 C.2       1 RES1    0.0000
     26 C16        2.4730   -0.0016    7.5692 C.3       1 RES1    0.0000
     27 C17        7.5106    6.8855    5.0470 C.2       1 RES1    0.0000
     28 C18        8.0179    8.2771    4.9186 C.ar      1 RES1    0.0000
     29 C19        7.1864    9.3331    4.5564 C.ar      1 RES1    0.0000
     30 C20        7.6911   10.6056    4.4760 C.ar      1 RES1    0.0000
     31 C21        9.0162   10.8082    4.7564 C.ar      1 RES1    0.0000
     32 C22        9.8643    9.7905    5.1132 C.ar      1 RES1    0.0000
     33 C23        9.3395    8.5102    5.1923 C.ar      1 RES1    0.0000
     34 H1         4.4435    5.7287    3.1426 H         1 RES1    0.0000
     35 H2         3.9888    7.4782    4.8051 H         1 RES1    0.0000
     36 H3         2.7406    6.9280    3.9738 H         1 RES1    0.0000
     37 H4         3.4502    5.9193    6.5352 H         1 RES1    0.0000
     38 H5         1.0792    5.5178    5.0551 H         1 RES1    0.0000
     39 H6         1.6813    4.2798    7.5219 H         1 RES1    0.0000
     40 H7         0.5970    5.4390    7.3462 H         1 RES1    0.0000
     41 H8        -0.1004    3.0085    7.3462 H         1 RES1    0.0000
     42 H9        -0.8885    4.0785    6.4608 H         1 RES1    0.0000
     43 H10       -0.0947    1.9475    5.4133 H         1 RES1    0.0000
     44 H11       -0.0766    3.2957    4.5618 H         1 RES1    0.0000
     45 H12        1.7643    0.8972    4.0144 H         1 RES1    0.0000
     46 H13        1.6863    2.1998    3.0817 H         1 RES1    0.0000
     47 H14        4.0287    1.3024    4.3996 H         1 RES1    0.0000
     48 H15        3.7652    1.1711    2.8317 H         1 RES1    0.0000
     49 H16        5.1621    3.0610    3.6427 H         1 RES1    0.0000
     50 H17        4.1372    3.3184    2.4532 H         1 RES1    0.0000
     51 H18        6.1713    4.7832    4.3658 H         1 RES1    0.0000
     52 H19        5.4978    5.2686    5.7309 H         1 RES1    0.0000
     53 H20        2.0725   -0.8918    7.5557 H         1 RES1    0.0000
     54 H21        3.4348   -0.0759    7.4002 H         1 RES1    0.0000
     55 H22        2.3227    0.4083    8.4410 H         1 RES1    0.0000
     56 H23        6.2507    9.1749    4.3590 H         1 RES1    0.0000
     57 H24        7.1132   11.3533    4.2239 H         1 RES1    0.0000
     58 H25       10.8002    9.9582    5.3052 H         1 RES1    0.0000
     59 H26        9.9186    7.7660    5.4471 H         1 RES1    0.0000
@<TRIPOS>BOND
     1    1   24 1
     2    2   27 2
     3    3    9 2
     4    4    9 2
     5    5   25 1
     6    6   25 2
     7    7   10 2
     8    8   10 2
     9    9   14 1
    10   10   31 1
    11   11   12 1
    12   12   13 1
    13   13   14 1
    14   14   15 1
    15   15   16 1
    16   16   17 1
    17   17   18 1
    18   18   19 1
    19   19   20 1
    20   20   21 1
    21   21   22 1
    22   22   11 1
    23   23   11 2
    24   24   12 1
    25   25   19 1
    26   26    5 1
    27   27    1 1
    28   28   27 1
    29   29   28 ar
    30   30   29 ar
    31   31   30 ar
    32   32   31 ar
    33   33   28 ar
    34   34   12 1
    35   35   13 1
    36   36   13 1
    37   37   14 1
    38   38   15 1
    39   39   16 1
    40   40   16 1
    41   41   17 1
    42   42   17 1
    43   43   18 1
    44   44   18 1
    45   45   20 1
    46   46   20 1
    47   47   21 1
    48   48   21 1
    49   49   22 1
    50   50   22 1
    51   51   24 1
    52   52   24 1
    53   53   26 1
    54   54   26 1
    55   55   26 1
    56   56   29 1
    57   57   30 1
    58   58   32 1
    59   59   33 1
    60   15   23 1
    61   19   23 1
    62   32   33 ar
@<TRIPOS>SUBSTRUCTURE
     1 RES1 1

@<TRIPOS>CRYSIN
  11.0580   15.5119    6.9053  78.4150  95.0340 103.2950   2 1

