# MOL2 file generated by ConQuest
# Please check atom types

@<TRIPOS>MOLECULE
YAYCIM01
    27    28     1
SMALL
NO_CHARGES
****
Generated from CSD

@<TRIPOS>ATOM
      1 C1         5.3607    5.9881    7.3371 C.ar      1 RES1    0.0000
      2 C2         5.8465    6.2087    8.6242 C.ar      1 RES1    0.0000
      3 H1         6.1740    7.0650    8.8722 H         1 RES1    0.0000
      4 C3         5.8475    5.1769    9.5337 C.ar      1 RES1    0.0000
      5 H2         6.1782    5.3322   10.4112 H         1 RES1    0.0000
      6 C4         5.3668    3.8863    9.1929 C.ar      1 RES1    0.0000
      7 C5         4.9282    3.6933    7.8573 C.ar      1 RES1    0.0000
      8 H3         4.6383    2.8312    7.5842 H         1 RES1    0.0000
      9 C6         4.9146    4.7295    6.9480 C.ar      1 RES1    0.0000
     10 H4         4.6028    4.5849    6.0629 H         1 RES1    0.0000
     11 C7         6.0153    3.0311   11.4090 C.3       1 RES1    0.0000
     12 H5         5.9525    3.9689   11.7201 H         1 RES1    0.0000
     13 H6         6.9730    2.8145   11.2790 H         1 RES1    0.0000
     14 C8         5.4280    2.1140   12.4524 C.3       1 RES1    0.0000
     15 H7         5.9525    2.1901   13.2881 H         1 RES1    0.0000
     16 H8         4.4992    2.3940   12.6490 H         1 RES1    0.0000
     17 C9         4.5814    0.6575   10.8802 C.3       1 RES1    0.0000
     18 H9         3.6703    0.9571   11.1260 H         1 RES1    0.0000
     19 H10        4.5247   -0.2892   10.5980 H         1 RES1    0.0000
     20 C10        5.0882    1.4966    9.7191 C.3       1 RES1    0.0000
     21 H11        5.9398    1.1184    9.3857 H         1 RES1    0.0000
     22 H12        4.4296    1.4678    8.9800 H         1 RES1    0.0000
     23 N1         5.3367    7.0860    6.3992 N.pl3     1 RES1    0.0000
     24 N2         5.2998    2.8867   10.1308 N.3       1 RES1    0.0000
     25 O1         5.7558    8.1892    6.7646 O.2       1 RES1    0.0000
     26 O2         4.8963    6.8821    5.2650 O.2       1 RES1    0.0000
     27 O3         5.4298    0.7567   12.0171 O.3       1 RES1    0.0000
@<TRIPOS>BOND
     1    1    2 ar
     2    2    3 1
     3    4    2 ar
     4    5    4 1
     5    6    4 ar
     6    7    6 ar
     7    8    7 1
     8    9    1 ar
     9   10    9 1
    10   11   12 1
    11   13   11 1
    12   14   11 1
    13   15   14 1
    14   16   14 1
    15   17   18 1
    16   19   17 1
    17   20   17 1
    18   21   20 1
    19   22   20 1
    20   23    1 1
    21   24    6 1
    22   25   23 2
    23   26   23 2
    24   27   14 1
    25    7    9 ar
    26   11   24 1
    27   17   27 1
    28   20   24 1
@<TRIPOS>SUBSTRUCTURE
     1 RES1 1

@<TRIPOS>CRYSIN
  14.1930    8.3590   16.0990  90.0000  90.0000  90.0000  61 1

