# MOL2 file generated by ConQuest
# Please check atom types

@<TRIPOS>MOLECULE
YAYGAI
    70    74     1
SMALL
NO_CHARGES
****
Generated from CSD

@<TRIPOS>ATOM
      1 C1         1.0337    0.7252    3.1209 C.ar      1 RES1    0.0000
      2 H1         1.8649    0.5479    3.5459 H         1 RES1    0.0000
      3 C2         0.5282   -0.1358    2.1484 C.ar      1 RES1    0.0000
      4 C3        -0.7193    0.1262    1.5482 C.ar      1 RES1    0.0000
      5 H2        -1.0630   -0.4736    0.8973 H         1 RES1    0.0000
      6 C4        -1.4505    1.2508    1.8981 C.ar      1 RES1    0.0000
      7 H3        -2.2888    1.4209    1.4837 H         1 RES1    0.0000
      8 C5        -0.9549    2.1285    2.8536 C.ar      1 RES1    0.0000
      9 C6        -1.4395    3.3418    3.4530 C.ar      1 RES1    0.0000
     10 C7        -2.5918    4.1181    3.3259 C.ar      1 RES1    0.0000
     11 H4        -3.2694    3.8665    2.7116 H         1 RES1    0.0000
     12 C8        -2.7437    5.2554    4.0984 C.ar      1 RES1    0.0000
     13 H5        -3.5230    5.7890    3.9945 H         1 RES1    0.0000
     14 C9        -1.7700    5.6364    5.0339 C.ar      1 RES1    0.0000
     15 C10       -0.5998    4.8952    5.1547 C.ar      1 RES1    0.0000
     16 H6         0.0861    5.1652    5.7537 H         1 RES1    0.0000
     17 C11       -0.4566    3.7547    4.3822 C.ar      1 RES1    0.0000
     18 N1         0.5957    2.8554    4.3586 N.pl3     1 RES1    0.0000
     19 C12        0.2918    1.8450    3.4530 C.ar      1 RES1    0.0000
     20 C13        1.7994    2.9496    5.1779 C.3       1 RES1    0.0000
     21 H7         2.1467    3.8753    5.1358 H         1 RES1    0.0000
     22 H8         2.4925    2.3490    4.8052 H         1 RES1    0.0000
     23 C14        1.5519    2.5766    6.6372 C.3       1 RES1    0.0000
     24 H9         0.8686    3.1844    7.0170 H         1 RES1    0.0000
     25 H10        1.1973    1.6541    6.6825 H         1 RES1    0.0000
     26 C15        2.8231    2.6661    7.4727 C.3       1 RES1    0.0000
     27 H11        3.4318    1.9289    7.2177 H         1 RES1    0.0000
     28 H12        3.2809    3.5207    7.2767 H         1 RES1    0.0000
     29 C16        2.5453    2.5846    8.9603 C.3       1 RES1    0.0000
     30 H13        2.0443    1.7500    9.1422 H         1 RES1    0.0000
     31 H14        1.9630    3.3442    9.2130 H         1 RES1    0.0000
     32 C17        3.7845    2.6086    9.8423 C.3       1 RES1    0.0000
     33 H15        4.3149    1.7891    9.6735 H         1 RES1    0.0000
     34 H16        4.3431    3.3865    9.5908 H         1 RES1    0.0000
     35 C18        3.4640    2.6908   11.3193 C.3       1 RES1    0.0000
     36 H17        2.8771    1.9297   11.5546 H         1 RES1    0.0000
     37 H18        2.9540    3.5231   11.4838 H         1 RES1    0.0000
     38 C19        4.6685    2.6748   12.2378 C.3       1 RES1    0.0000
     39 H19        5.2809    3.4089   11.9797 H         1 RES1    0.0000
     40 H20        5.1536    1.8202   12.1174 H         1 RES1    0.0000
     41 C20        4.2942    2.8330   13.7026 C.3       1 RES1    0.0000
     42 H21        3.8404    3.6916   13.8333 H         1 RES1    0.0000
     43 H22        5.1058    2.8050   14.2504 H         1 RES1    0.0000
     44 H23        3.6952    2.1038   13.9671 H         1 RES1    0.0000
     45 C21        1.3049   -1.3378    1.7485 C.ar      1 RES1    0.0000
     46 C22        2.6917   -1.3242    1.5600 C.ar      1 RES1    0.0000
     47 C23        3.4373   -2.4504    1.2751 C.ar      1 RES1    0.0000
     48 H24        4.3820   -2.3953    1.1846 H         1 RES1    0.0000
     49 C24        2.7809   -3.6652    1.1232 C.ar      1 RES1    0.0000
     50 H25        3.2737   -4.4536    0.9248 H         1 RES1    0.0000
     51 C25        1.4064   -3.7227    1.2605 C.ar      1 RES1    0.0000
     52 H26        0.9506   -4.5470    1.1374 H         1 RES1    0.0000
     53 C26        0.6948   -2.5822    1.5746 C.ar      1 RES1    0.0000
     54 H27       -0.2474   -2.6469    1.6765 H         1 RES1    0.0000
     55 N2         3.4293   -0.0519    1.6029 N.pl3     1 RES1    0.0000
     56 O1         4.3121    0.0671    2.4420 O.2       1 RES1    0.0000
     57 O2         3.1432    0.8123    0.7836 O.2       1 RES1    0.0000
     58 C27       -1.9450    6.8329    5.8989 C.ar      1 RES1    0.0000
     59 C28       -1.6905    6.8201    7.2752 C.ar      1 RES1    0.0000
     60 C29       -1.6840    7.9566    8.0611 C.ar      1 RES1    0.0000
     61 H28       -1.4611    7.9071    8.9847 H         1 RES1    0.0000
     62 C30       -2.0084    9.1683    7.4775 C.ar      1 RES1    0.0000
     63 H29       -2.0162    9.9622    8.0009 H         1 RES1    0.0000
     64 C31       -2.3207    9.2202    6.1347 C.ar      1 RES1    0.0000
     65 H30       -2.5669   10.0484    5.7419 H         1 RES1    0.0000
     66 C32       -2.2784    8.0781    5.3582 C.ar      1 RES1    0.0000
     67 H31       -2.4827    8.1411    4.4314 H         1 RES1    0.0000
     68 N3        -1.4999    5.5382    7.9808 N.pl3     1 RES1    0.0000
     69 O3        -2.2487    4.6069    7.7100 O.2       1 RES1    0.0000
     70 O4        -0.6180    5.4951    8.8301 O.2       1 RES1    0.0000
@<TRIPOS>BOND
     1    1    2 1
     2    3    1 ar
     3    4    3 ar
     4    5    4 1
     5    6    4 ar
     6    7    6 1
     7    8    6 ar
     8    9    8 1
     9   10    9 ar
    10   11   10 1
    11   12   10 ar
    12   13   12 1
    13   14   12 ar
    14   15   14 ar
    15   16   15 1
    16   17    9 ar
    17   18   17 1
    18   19    1 ar
    19   20   18 1
    20   21   20 1
    21   22   20 1
    22   23   20 1
    23   24   23 1
    24   25   23 1
    25   26   23 1
    26   27   26 1
    27   28   26 1
    28   29   26 1
    29   30   29 1
    30   31   29 1
    31   32   29 1
    32   33   32 1
    33   34   32 1
    34   35   32 1
    35   36   35 1
    36   37   35 1
    37   38   35 1
    38   39   38 1
    39   40   38 1
    40   41   38 1
    41   42   41 1
    42   43   41 1
    43   44   41 1
    44   45    3 1
    45   46   45 ar
    46   47   46 ar
    47   48   47 1
    48   49   47 ar
    49   50   49 1
    50   51   49 ar
    51   52   51 1
    52   53   45 ar
    53   54   53 1
    54   55   46 1
    55   56   55 2
    56   57   55 2
    57   58   14 1
    58   59   58 ar
    59   60   59 ar
    60   61   60 1
    61   62   60 ar
    62   63   62 1
    63   64   62 ar
    64   65   64 1
    65   66   58 ar
    66   67   66 1
    67   68   59 1
    68   69   68 2
    69   70   68 2
    70    8   19 ar
    71   15   17 ar
    72   18   19 1
    73   51   53 ar
    74   64   66 ar
@<TRIPOS>SUBSTRUCTURE
     1 RES1 1

@<TRIPOS>CRYSIN
   8.7220    7.9870   39.5080  90.0000  95.0440  90.0000  14 1

