# MOL2 file generated by ConQuest
# Please check atom types

@<TRIPOS>MOLECULE
YAZYIH
    20    25     1
SMALL
USER_CHARGES
****
Generated from CSD

@<TRIPOS>ATOM
      1 C1         1.8050    2.6401    2.0243 C.3       1 RES1    0.0000
      2 C2         2.0217    2.1894    3.4619 C.3       1 RES1    0.0000
      3 C3         0.7450    1.3154    3.4174 C.3       1 RES1    0.0000
      4 C4         1.6343    0.1447    2.9021 C.3       1 RES1    0.0000
      5 C5         2.9192    1.0255    2.9923 C.3       1 RES1    0.0000
      6 C6         2.6945    1.4862    1.5061 C.3       1 RES1    0.0000
      7 C7         1.4138    0.6004    1.4357 C.3       1 RES1    0.0000
      8 C8         0.5124    1.7787    1.9262 C.3       1 RES1    0.0000
      9 N1         2.3047    3.3848    4.2189 N.am      1 RES1    0.0000
     10 C9         2.5825    3.4057    5.5675 C.2       1 RES1    0.0000
     11 O1         2.7072    4.3822    6.2571 O.2       1 RES1    0.0000
     12 N2         2.6766    2.0626    6.0024 N.2       1 RES1    0.0000
     13 N3         2.9324    1.9735    7.2271 N.1       1 RES1    1.0000
     14 N4         3.1670    1.7458    8.2982 N.2       1 RES1   -1.0000
     15 C10        2.2426    4.5321    3.4065 C.2       1 RES1    0.0000
     16 O2         2.3823    5.6682    3.7542 O.2       1 RES1    0.0000
     17 N5         1.9890    4.0541    2.1006 N.am      1 RES1    0.0000
     18 N6         1.7838    4.8626    0.9928 N.pl3     1 RES1    0.0000
     19 O3         1.6642    4.2751   -0.0654 O.2       1 RES1    0.0000
     20 O4         1.7474    6.0683    1.1593 O.2       1 RES1    0.0000
@<TRIPOS>BOND
     1    1    2 1
     2    2    3 1
     3    3    4 1
     4    4    5 1
     5    5    2 1
     6    6    1 1
     7    7    4 1
     8    8    1 1
     9    9    2 1
    10   10    9 1
    11   11   10 2
    12   12   10 1
    13   13   12 2
    14   14   13 2
    15   15    9 1
    16   16   15 2
    17   17    1 1
    18   18   17 1
    19   19   18 2
    20   20   18 2
    21    3    8 1
    22    5    6 1
    23    6    7 1
    24    7    8 1
    25   15   17 1
@<TRIPOS>SUBSTRUCTURE
     1 RES1 1

@<TRIPOS>CRYSIN
   6.0210    8.8400   10.0360  89.0100  80.8700  87.6500   2 1

