# MOL2 file generated by ConQuest
# Please check atom types

@<TRIPOS>MOLECULE
YAZZAD
    55    61     1
SMALL
NO_CHARGES
****
Generated from CSD

@<TRIPOS>ATOM
      1 N1        -0.0725    2.2269    5.9128 N.ar      1 RES1    0.0000
      2 C1        -0.1354   -0.3520   10.1910 C.ar      1 RES1    0.0000
      3 C2         0.6346    1.6561    6.8361 C.ar      1 RES1    0.0000
      4 N2         1.0130    1.4306   12.6374 N.pl3     1 RES1    0.0000
      5 O1         1.3838    0.3448   12.9804 O.2       1 RES1    0.0000
      6 C3         0.5464    1.9842    8.2106 C.ar      1 RES1    0.0000
      7 N3         2.5774    2.1879    9.4915 N.3       1 RES1    0.0000
      8 O2         0.6980    2.2972   13.4203 O.2       1 RES1    0.0000
      9 N4        -0.2921    2.8512    8.6852 N.ar      1 RES1    0.0000
     10 C4        -1.4287    0.0651   10.3559 C.ar      1 RES1    0.0000
     11 H1        -1.6020    0.9629   10.5261 H         1 RES1    0.0000
     12 C5        -1.0726    3.4691    7.7417 C.ar      1 RES1    0.0000
     13 C6        -2.0165    4.4136    8.1435 C.ar      1 RES1    0.0000
     14 H2        -2.1174    4.6115    9.0462 H         1 RES1    0.0000
     15 C7        -2.7824    5.0418    7.2316 C.ar      1 RES1    0.0000
     16 H3        -3.4085    5.6691    7.5127 H         1 RES1    0.0000
     17 C8        -2.6511    4.7654    5.8845 C.ar      1 RES1    0.0000
     18 H4        -3.1804    5.2148    5.2655 H         1 RES1    0.0000
     19 C9        -1.7579    3.8471    5.4612 C.ar      1 RES1    0.0000
     20 H5        -1.6787    3.6653    4.5529 H         1 RES1    0.0000
     21 C10       -0.9521    3.1669    6.3743 C.ar      1 RES1    0.0000
     22 C11        1.5767    1.2129    9.0048 C.3       1 RES1    0.0000
     23 C12        1.0510    0.5593   10.2889 C.3       1 RES1    0.0000
     24 C13        0.9322    1.7605   11.1958 C.3       1 RES1    0.0000
     25 C14        2.0688    2.7259   10.7632 C.3       1 RES1    0.0000
     26 C15        3.2824    2.8344   11.6672 C.3       1 RES1    0.0000
     27 H6         3.3084    3.6977   12.1083 H         1 RES1    0.0000
     28 H7         3.2728    2.1367   12.3421 H         1 RES1    0.0000
     29 C16        4.4475    2.6704   10.7527 C.3       1 RES1    0.0000
     30 H8         5.2168    2.3111   11.2215 H         1 RES1    0.0000
     31 H9         4.6926    3.5128   10.3397 H         1 RES1    0.0000
     32 C17        3.9260    1.7029    9.7447 C.3       1 RES1    0.0000
     33 H10        4.4612    1.7180    8.9353 H         1 RES1    0.0000
     34 H11        3.9127    0.8005   10.0998 H         1 RES1    0.0000
     35 C18        1.9851   -0.1138    5.5724 C.ar      1 RES1    0.0000
     36 H12        1.6443    0.1082    4.7356 H         1 RES1    0.0000
     37 C19        2.8744   -1.1342    5.7130 C.ar      1 RES1    0.0000
     38 H13        3.1531   -1.6087    4.9634 H         1 RES1    0.0000
     39 C20        3.3635   -1.4697    6.9469 C.ar      1 RES1    0.0000
     40 H14        3.9564   -2.1826    7.0243 H         1 RES1    0.0000
     41 C21        2.9954   -0.7727    8.0752 C.ar      1 RES1    0.0000
     42 H15        3.3308   -1.0078    8.9098 H         1 RES1    0.0000
     43 C22        2.1214    0.2783    7.9412 C.ar      1 RES1    0.0000
     44 C23        1.5992    0.5850    6.6986 C.ar      1 RES1    0.0000
     45 C24       -2.4784   -0.8240   10.2733 C.ar      1 RES1    0.0000
     46 H16       -3.3492   -0.5241   10.4018 H         1 RES1    0.0000
     47 C25       -2.2519   -2.1302   10.0061 C.ar      1 RES1    0.0000
     48 H17       -2.9607   -2.7290    9.9451 H         1 RES1    0.0000
     49 C26       -0.9811   -2.5556    9.8295 C.ar      1 RES1    0.0000
     50 H18       -0.8181   -3.4516    9.6381 H         1 RES1    0.0000
     51 C27        0.0680   -1.6835    9.9295 C.ar      1 RES1    0.0000
     52 H19        0.9354   -1.9985    9.8184 H         1 RES1    0.0000
     53 H20        1.7743    0.0476   10.6174 H         1 RES1    0.0000
     54 H21        0.0923    2.2532   11.0937 H         1 RES1    0.0000
     55 H22        1.6279    3.5600   10.6186 H         1 RES1    0.0000
@<TRIPOS>BOND
     1    1    3 ar
     2    2   10 ar
     3    3    6 ar
     4    4    5 2
     5    6    9 ar
     6    7   22 1
     7    8    4 2
     8    9   12 ar
     9   10   11 1
    10   12   13 ar
    11   13   14 1
    12   15   13 ar
    13   16   15 1
    14   17   15 ar
    15   18   17 1
    16   19   17 ar
    17   20   19 1
    18   21    1 ar
    19   22    6 1
    20   23    2 1
    21   24    4 1
    22   25    7 1
    23   26   25 1
    24   27   26 1
    25   28   26 1
    26   29   26 1
    27   30   29 1
    28   31   29 1
    29   32    7 1
    30   33   32 1
    31   34   32 1
    32   35   36 1
    33   37   35 ar
    34   38   37 1
    35   39   37 ar
    36   40   39 1
    37   41   39 ar
    38   42   41 1
    39   43   22 1
    40   44    3 1
    41   45   10 ar
    42   46   45 1
    43   47   45 ar
    44   48   47 1
    45   49   47 ar
    46   50   49 1
    47   51    2 ar
    48   52   51 1
    49   53   23 1
    50   54   24 1
    51   55   25 1
    52   12   21 ar
    53   19   21 ar
    54   22   23 1
    55   23   24 1
    56   24   25 1
    57   29   32 1
    58   35   44 ar
    59   41   43 ar
    60   43   44 ar
    61   49   51 ar
@<TRIPOS>SUBSTRUCTURE
     1 RES1 1

@<TRIPOS>CRYSIN
   9.3085   10.1859   13.3060 111.2880  90.5120 114.3290   2 1

