# MOL2 file generated by ConQuest
# Please check atom types

@<TRIPOS>MOLECULE
YEBQON
    47    50     1
SMALL
NO_CHARGES
****
Generated from CSD

@<TRIPOS>ATOM
      1 C1        -4.5526   -0.8913    1.4015 C.2       1 RES1    0.0000
      2 H1        -4.6678    0.0039    1.1768 H         1 RES1    0.0000
      3 C2        -4.8022   -3.0576    1.4820 C.2       1 RES1    0.0000
      4 H2        -5.1144   -3.9185    1.3179 H         1 RES1    0.0000
      5 C3        -3.8473   -2.7423    2.3504 C.2       1 RES1    0.0000
      6 H3        -3.3863   -3.3417    2.8918 H         1 RES1    0.0000
      7 C4        -3.6549   -1.3723    2.3149 C.2       1 RES1    0.0000
      8 C5        -2.7074   -0.5573    3.1470 C.3       1 RES1    0.0000
      9 H4        -3.2274   -0.0109    3.7728 H         1 RES1    0.0000
     10 C6        -1.7081    0.3557    2.4024 C.3       1 RES1    0.0000
     11 C7        -2.2346    1.7568    2.1174 C.3       1 RES1    0.0000
     12 H5        -2.7617    2.0682    2.8688 H         1 RES1    0.0000
     13 H6        -2.8040    1.7397    1.3325 H         1 RES1    0.0000
     14 C8        -1.0598    2.7081    1.8812 C.3       1 RES1    0.0000
     15 H7        -0.5375    2.3905    1.1277 H         1 RES1    0.0000
     16 H8        -1.3996    3.5884    1.6586 H         1 RES1    0.0000
     17 C9        -0.1628    2.8116    3.1008 C.3       1 RES1    0.0000
     18 H9         0.6819    3.2070    2.8364 H         1 RES1    0.0000
     19 H10       -0.5783    3.4063    3.7457 H         1 RES1    0.0000
     20 C10        0.1056    1.4844    3.7666 C.2       1 RES1    0.0000
     21 C11       -0.6225    0.4024    3.4520 C.2       1 RES1    0.0000
     22 C12       -0.6748   -0.8757    4.1763 C.2       1 RES1    0.0000
     23 C13        1.1292    1.4447    4.7929 C.2       1 RES1    0.0000
     24 H11        1.4052    0.6297    5.1461 H         1 RES1    0.0000
     25 C14        3.0843    3.4896    6.8277 C.ar      1 RES1    0.0000
     26 C15        2.5659    4.7545    6.5476 C.ar      1 RES1    0.0000
     27 H12        1.9481    4.8572    5.8599 H         1 RES1    0.0000
     28 C16        2.9590    5.8442    7.2740 C.ar      1 RES1    0.0000
     29 H13        2.6006    6.6771    7.0691 H         1 RES1    0.0000
     30 C17        3.8707    5.7438    8.3023 C.ar      1 RES1    0.0000
     31 H14        4.1185    6.4957    8.7894 H         1 RES1    0.0000
     32 C18        4.4051    4.5209    8.5939 C.ar      1 RES1    0.0000
     33 H15        5.0173    4.4384    9.2879 H         1 RES1    0.0000
     34 C19        4.0372    3.3977    7.8561 C.ar      1 RES1    0.0000
     35 C20       -1.1849   -0.3370    1.1371 C.3       1 RES1    0.0000
     36 H16       -0.4592    0.1736    0.7692 H         1 RES1    0.0000
     37 H17       -1.8920   -0.4009    0.4912 H         1 RES1    0.0000
     38 H18       -0.8750   -1.2182    1.3597 H         1 RES1    0.0000
     39 N1         1.6502    2.5360    5.2113 N.2       1 RES1    0.0000
     40 N2         2.6366    2.3936    6.1435 N.pl3     1 RES1    0.0000
     41 H19        2.9744    1.6183    6.2999 H         1 RES1    0.0000
     42 N3         4.6424    2.1492    8.2240 N.pl3     1 RES1    0.0000
     43 O1        -5.2509   -1.9382    0.8716 O.3       1 RES1    0.0000
     44 O2        -1.8694   -1.4758    3.9106 O.3       1 RES1    0.0000
     45 O3         0.1117   -1.4120    4.9197 O.2       1 RES1    0.0000
     46 O4         4.3340    1.1139    7.6335 O.2       1 RES1    0.0000
     47 O5         5.4596    2.1328    9.1238 O.2       1 RES1    0.0000
@<TRIPOS>BOND
     1    1    2 1
     2    3    4 1
     3    5    3 2
     4    6    5 1
     5    7    1 2
     6    8    7 1
     7    9    8 1
     8   10    8 1
     9   11   10 1
    10   12   11 1
    11   13   11 1
    12   14   11 1
    13   15   14 1
    14   16   14 1
    15   17   14 1
    16   18   17 1
    17   19   17 1
    18   20   17 1
    19   21   10 1
    20   22   21 1
    21   23   20 1
    22   24   23 1
    23   25   26 ar
    24   26   27 1
    25   28   26 ar
    26   29   28 1
    27   30   28 ar
    28   31   30 1
    29   32   30 ar
    30   33   32 1
    31   34   25 ar
    32   35   10 1
    33   36   35 1
    34   37   35 1
    35   38   35 1
    36   39   23 2
    37   40   25 1
    38   41   40 1
    39   42   34 1
    40   43    1 1
    41   44    8 1
    42   45   22 2
    43   46   42 2
    44   47   42 2
    45    3   43 1
    46    5    7 1
    47   20   21 2
    48   22   44 1
    49   32   34 ar
    50   39   40 1
@<TRIPOS>SUBSTRUCTURE
     1 RES1 1

@<TRIPOS>CRYSIN
  11.0850    7.7840   11.1100  90.0000 109.8320  90.0000   4 1

