# MOL2 file generated by ConQuest
# Please check atom types

@<TRIPOS>MOLECULE
YECFIX
    56    57     1
SMALL
NO_CHARGES
****
Generated from CSD

@<TRIPOS>ATOM
      1 O1         0.0321    0.3882    1.3870 O.3       1 RES1    0.0000
      2 H1        -0.2331    1.0655    1.7657 H         1 RES1    0.0000
      3 O2         2.1501    0.5374    4.5826 O.2       1 RES1    0.0000
      4 O3         1.6919   -1.6378    5.1029 O.3       1 RES1    0.0000
      5 O4        -0.7614   -3.7213    2.3490 O.2       1 RES1    0.0000
      6 O5        -1.0345   -2.0953    3.9204 O.3       1 RES1    0.0000
      7 O6         5.4952   -6.0503    4.0695 O.2       1 RES1    0.0000
      8 O7         4.6394   -4.2996    5.0111 O.2       1 RES1    0.0000
      9 N1         1.0653   -0.8225    3.1226 N.am      1 RES1    0.0000
     10 N2         0.8326   -2.1521    2.7059 N.am      1 RES1    0.0000
     11 N3         4.8398   -5.0105    4.0314 N.pl3     1 RES1    0.0000
     12 C1         1.2616   -0.0059    1.9400 C.3       1 RES1    0.0000
     13 H2         1.8252    0.7704    2.1366 H         1 RES1    0.0000
     14 C2         1.9613   -0.9645    0.9778 C.3       1 RES1    0.0000
     15 H3         2.9247   -0.8780    1.0487 H         1 RES1    0.0000
     16 H4         1.6979   -0.7843    0.0626 H         1 RES1    0.0000
     17 C3         1.5053   -2.3838    1.4096 C.3       1 RES1    0.0000
     18 H5         0.8521   -2.7238    0.7623 H         1 RES1    0.0000
     19 C4         2.6520   -3.3496    1.5080 C.ar      1 RES1    0.0000
     20 C5         3.1567   -3.9259    0.3367 C.ar      1 RES1    0.0000
     21 H6         2.7688   -3.7140   -0.4821 H         1 RES1    0.0000
     22 C6         4.2243   -4.8059    0.3769 C.ar      1 RES1    0.0000
     23 H7         4.5642   -5.1584   -0.4132 H         1 RES1    0.0000
     24 C7         4.7872   -5.1630    1.5858 C.ar      1 RES1    0.0000
     25 H8         5.4918   -5.7691    1.6248 H         1 RES1    0.0000
     26 C8         4.2765   -4.5966    2.7354 C.ar      1 RES1    0.0000
     27 C9         3.2315   -3.6830    2.7283 C.ar      1 RES1    0.0000
     28 H9         2.9257   -3.3034    3.5204 H         1 RES1    0.0000
     29 C10        1.7106   -0.5585    4.3194 C.2       1 RES1    0.0000
     30 C11        2.1186   -1.5500    6.5166 C.3       1 RES1    0.0000
     31 C12        3.6130   -1.3137    6.5866 C.3       1 RES1    0.0000
     32 H10        4.0655   -1.9679    6.0499 H         1 RES1    0.0000
     33 H11        3.9064   -1.3890    7.4978 H         1 RES1    0.0000
     34 H12        3.8137   -0.4344    6.2581 H         1 RES1    0.0000
     35 C13        1.3321   -0.4766    7.2420 C.3       1 RES1    0.0000
     36 H13        1.5657    0.3849    6.8889 H         1 RES1    0.0000
     37 H14        1.5394   -0.5063    8.1787 H         1 RES1    0.0000
     38 H15        0.3925   -0.6298    7.1174 H         1 RES1    0.0000
     39 C14        1.7607   -2.9324    7.0293 C.3       1 RES1    0.0000
     40 H16        0.8149   -3.0723    6.9374 H         1 RES1    0.0000
     41 H17        2.0064   -3.0043    7.9548 H         1 RES1    0.0000
     42 H18        2.2328   -3.5945    6.5195 H         1 RES1    0.0000
     43 C15       -0.3909   -2.7192    2.9476 C.2       1 RES1    0.0000
     44 C16       -2.3592   -2.5693    4.3810 C.3       1 RES1    0.0000
     45 C17       -3.3598   -2.3963    3.2485 C.3       1 RES1    0.0000
     46 H19       -3.2884   -1.5078    2.8911 H         1 RES1    0.0000
     47 H20       -4.2482   -2.5370    3.5830 H         1 RES1    0.0000
     48 H21       -3.1729   -3.0354    2.5561 H         1 RES1    0.0000
     49 C18       -2.2616   -4.0038    4.8720 C.3       1 RES1    0.0000
     50 H22       -2.0853   -4.5847    4.1293 H         1 RES1    0.0000
     51 H23       -3.0898   -4.2573    5.2860 H         1 RES1    0.0000
     52 H24       -1.5485   -4.0758    5.5114 H         1 RES1    0.0000
     53 C19       -2.6602   -1.6141    5.5166 C.3       1 RES1    0.0000
     54 H25       -2.0098   -1.7303    6.2127 H         1 RES1    0.0000
     55 H26       -3.5369   -1.7956    5.8636 H         1 RES1    0.0000
     56 H27       -2.6256   -0.7110    5.1937 H         1 RES1    0.0000
@<TRIPOS>BOND
     1    1    2 1
     2    3   29 2
     3    4   29 1
     4    5   43 2
     5    6   43 1
     6    7   11 2
     7    8   11 2
     8    9   10 1
     9   10   17 1
    10   11   26 1
    11   12    1 1
    12   13   12 1
    13   14   12 1
    14   15   14 1
    15   16   14 1
    16   17   14 1
    17   18   17 1
    18   19   17 1
    19   20   19 ar
    20   21   20 1
    21   22   20 ar
    22   23   22 1
    23   24   22 ar
    24   25   24 1
    25   26   24 ar
    26   27   19 ar
    27   28   27 1
    28   29    9 1
    29   30    4 1
    30   31   30 1
    31   32   31 1
    32   33   31 1
    33   34   31 1
    34   35   30 1
    35   36   35 1
    36   37   35 1
    37   38   35 1
    38   39   30 1
    39   40   39 1
    40   41   39 1
    41   42   39 1
    42   43   10 1
    43   44    6 1
    44   45   44 1
    45   46   45 1
    46   47   45 1
    47   48   45 1
    48   49   44 1
    49   50   49 1
    50   51   49 1
    51   52   49 1
    52   53   44 1
    53   54   53 1
    54   55   53 1
    55   56   53 1
    56    9   12 1
    57   26   27 ar
@<TRIPOS>SUBSTRUCTURE
     1 RES1 1

@<TRIPOS>CRYSIN
  10.4830    6.6015   15.8446  90.0000  98.9200  90.0000   4 1

