# MOL2 file generated by ConQuest
# Please check atom types

@<TRIPOS>MOLECULE
YEDKEA
    34    35     1
SMALL
NO_CHARGES
****
Generated from CSD

@<TRIPOS>ATOM
      1 O1        13.4901   11.9077    7.2667 O.2       1 RES1    0.0000
      2 O2        13.7197    9.8591    7.8753 O.2       1 RES1    0.0000
      3 O3        11.6816    7.0490    4.3987 O.2       1 RES1    0.0000
      4 O4         9.6352    6.7219    5.0201 O.2       1 RES1    0.0000
      5 O5         6.2574    8.2921    4.1645 O.2       1 RES1    0.0000
      6 O6         7.4177    9.2956    2.1937 O.3       1 RES1    0.0000
      7 H1         6.7668    8.8818    2.7277 H         1 RES1    0.0000
      8 N1         8.5230   11.7159    5.6423 N.ar      1 RES1    0.0000
      9 N2        13.0956   10.7565    7.3362 N.pl3     1 RES1    0.0000
     10 N3        10.6300    7.4117    4.9185 N.pl3     1 RES1    0.0000
     11 C1         8.5406   12.9160    6.1907 C.ar      1 RES1    0.0000
     12 H2         7.7740   13.4669    6.0883 H         1 RES1    0.0000
     13 C2         9.6330   13.4238    6.9181 C.ar      1 RES1    0.0000
     14 H3         9.5959   14.2988    7.2853 H         1 RES1    0.0000
     15 C3        10.7433   12.6576    7.0949 C.ar      1 RES1    0.0000
     16 H4        11.4870   12.9905    7.5825 H         1 RES1    0.0000
     17 C4        10.7695   11.3538    6.5365 C.ar      1 RES1    0.0000
     18 C5        11.8287   10.4078    6.6754 C.ar      1 RES1    0.0000
     19 C6        11.7471    9.1396    6.1935 C.ar      1 RES1    0.0000
     20 H5        12.4464    8.5153    6.3460 H         1 RES1    0.0000
     21 C7        10.6066    8.7764    5.4669 C.ar      1 RES1    0.0000
     22 C8         9.5440    9.6153    5.2163 C.ar      1 RES1    0.0000
     23 C9         9.6176   10.9235    5.8098 C.ar      1 RES1    0.0000
     24 C10        8.3973    9.2485    4.3393 C.2       1 RES1    0.0000
     25 C11        7.2037    8.6325    4.8977 C.2       1 RES1    0.0000
     26 C12        7.0891    8.4637    6.3747 C.3       1 RES1    0.0000
     27 H6         6.3377    7.8673    6.5773 H         1 RES1    0.0000
     28 H7         6.9334    9.3362    6.7921 H         1 RES1    0.0000
     29 H8         7.9174    8.0760    6.7241 H         1 RES1    0.0000
     30 C13        8.4170    9.5822    3.0062 C.2       1 RES1    0.0000
     31 C14        9.5242   10.3117    2.3232 C.3       1 RES1    0.0000
     32 H9         9.1645   11.1030    1.8715 H         1 RES1    0.0000
     33 H10        9.9447    9.7220    1.6631 H         1 RES1    0.0000
     34 H11       10.1908   10.5882    2.9862 H         1 RES1    0.0000
@<TRIPOS>BOND
     1    1    9 2
     2    2    9 2
     3    3   10 2
     4    4   10 2
     5    5   25 2
     6    6    7 1
     7    8   11 ar
     8    9   18 1
     9   10   21 1
    10   11   12 1
    11   13   11 ar
    12   14   13 1
    13   15   13 ar
    14   16   15 1
    15   17   15 ar
    16   18   17 ar
    17   19   18 ar
    18   20   19 1
    19   21   19 ar
    20   22   21 ar
    21   23    8 ar
    22   24   22 1
    23   25   24 1
    24   26   25 1
    25   27   26 1
    26   28   26 1
    27   29   26 1
    28   30    6 1
    29   31   30 1
    30   32   31 1
    31   33   31 1
    32   34   31 1
    33   17   23 ar
    34   22   23 ar
    35   24   30 2
@<TRIPOS>SUBSTRUCTURE
     1 RES1 1

@<TRIPOS>CRYSIN
  27.9251   13.7277    7.2282  90.0000  97.9150  90.0000  15 1

