# MOL2 file generated by ConQuest
# Please check atom types

@<TRIPOS>MOLECULE
YEFMIG
    54    55     2
SMALL
NO_CHARGES
****
Generated from CSD

@<TRIPOS>ATOM
      1 O1         2.2497    3.9857    5.8590 O.3       1 RES1    0.0000
      2 O2         2.5897    3.8402    3.6097 O.2       1 RES1    0.0000
      3 O3         1.0964    7.9349    8.1811 O.3       1 RES1    0.0000
      4 O4         0.7012    9.8831    7.2069 O.2       1 RES1    0.0000
      5 O5        -3.3280    4.3759    8.8176 O.2       1 RES1    0.0000
      6 O6        -1.3220    4.0710    9.4664 O.2       1 RES1    0.0000
      7 O7        -3.1457    3.8917    8.7331 Du        2 SUP2    0.0000
      8 O8        -1.3536    4.7328    9.5641 Du        2 SUP2    0.0000
      9 N1         3.1646    0.6844    5.7339 N.2       1 RES1    0.0000
     10 N2         3.4517    1.9634    5.8045 N.2       1 RES1    0.0000
     11 N3         2.2813    2.6198    5.8252 N.pl3     1 RES1    0.0000
     12 N4         2.2831    8.1150    3.6610 N.3       1 RES1    0.0000
     13 N5        -2.1201    4.4745    8.6281 N.pl3     1 RES1    0.0000
     14 C1         1.7935    0.5439    5.7055 C.ar      1 RES1    0.0000
     15 C2         0.9799   -0.5985    5.6349 C.ar      1 RES1    0.0000
     16 H1         1.3455   -1.4527    5.6087 H         1 RES1    0.0000
     17 C3        -0.3666   -0.4017    5.6043 C.ar      1 RES1    0.0000
     18 H2        -0.9281   -1.1406    5.5475 H         1 RES1    0.0000
     19 C4        -0.9376    0.8852    5.6554 C.ar      1 RES1    0.0000
     20 H3        -1.8641    0.9684    5.6495 H         1 RES1    0.0000
     21 C5        -0.1686    2.0143    5.7137 C.ar      1 RES1    0.0000
     22 H4        -0.5392    2.8676    5.7355 H         1 RES1    0.0000
     23 C6         1.2085    1.8000    5.7404 C.ar      1 RES1    0.0000
     24 C7         2.3526    4.5543    4.5341 C.2       1 RES1    0.0000
     25 C8         2.1464    5.9839    4.6387 C.2       1 RES1    0.0000
     26 C9         2.4356    6.7615    3.5689 C.2       1 RES1    0.0000
     27 C10        2.9024    6.2877    2.2235 C.3       1 RES1    0.0000
     28 H5         3.6949    5.7568    2.3283 H         1 RES1    0.0000
     29 H6         3.0959    7.0463    1.6664 H         1 RES1    0.0000
     30 H7         2.2144    5.7586    1.8137 H         1 RES1    0.0000
     31 C11        1.9175   10.2783    4.6858 C.3       1 RES1    0.0000
     32 H8         1.0345   10.6026    4.4919 H         1 RES1    0.0000
     33 H9         2.5119   10.5237    3.9729 H         1 RES1    0.0000
     34 H10        2.2261   10.6653    5.5081 H         1 RES1    0.0000
     35 C12        1.8843    8.7803    4.8181 C.2       1 RES1    0.0000
     36 C13        1.5339    8.0694    5.8955 C.2       1 RES1    0.0000
     37 C14        1.5211    6.5421    5.9114 C.3       1 RES1    0.0000
     38 H11        2.0521    6.2357    6.6759 H         1 RES1    0.0000
     39 C15        1.0794    8.7477    7.1250 C.2       1 RES1    0.0000
     40 C16        0.5370    8.4451    9.4008 C.3       1 RES1    0.0000
     41 H12        1.0205    9.2288    9.6720 H         1 RES1    0.0000
     42 H13        0.6018    7.7762   10.0875 H         1 RES1    0.0000
     43 H14       -0.3853    8.6711    9.2609 H         1 RES1    0.0000
     44 C17        0.0924    6.0152    6.0729 C.ar      1 RES1    0.0000
     45 C18       -0.3432    5.4876    7.2719 C.ar      1 RES1    0.0000
     46 H15        0.2298    5.4412    8.0026 H         1 RES1    0.0000
     47 C19       -1.6386    5.0314    7.3684 C.ar      1 RES1    0.0000
     48 C20       -2.5184    5.0597    6.3216 C.ar      1 RES1    0.0000
     49 H16       -3.3881    4.7435    6.4193 H         1 RES1    0.0000
     50 C21       -2.0783    5.5690    5.1247 C.ar      1 RES1    0.0000
     51 H17       -2.6483    5.5864    4.3899 H         1 RES1    0.0000
     52 C22       -0.7918    6.0549    5.0110 C.ar      1 RES1    0.0000
     53 H18       -0.5130    6.4168    4.2003 H         1 RES1    0.0000
     54 H19        2.5592    8.5778    3.0311 H         1 RES1    0.0000
@<TRIPOS>BOND
     1    1   11 1
     2    2   24 2
     3    3   39 1
     4    4   39 2
     5    5   13 2
     6    6   13 2
     7    9   10 2
     8   10   11 1
     9   11   23 1
    10   12   26 1
    11   13   47 1
    12   14    9 1
    13   15   14 ar
    14   16   15 1
    15   17   15 ar
    16   18   17 1
    17   19   17 ar
    18   20   19 1
    19   21   19 ar
    20   22   21 1
    21   23   14 ar
    22   24    1 1
    23   25   24 1
    24   26   25 2
    25   27   26 1
    26   28   27 1
    27   29   27 1
    28   30   27 1
    29   31   32 1
    30   33   31 1
    31   34   31 1
    32   35   12 1
    33   36   35 2
    34   37   25 1
    35   38   37 1
    36   39   36 1
    37   40    3 1
    38   41   40 1
    39   42   40 1
    40   43   40 1
    41   44   37 1
    42   45   44 ar
    43   46   45 1
    44   47   45 ar
    45   48   47 ar
    46   49   48 1
    47   50   48 ar
    48   51   50 1
    49   52   44 ar
    50   53   52 1
    51   54   12 1
    52   21   23 ar
    53   31   35 1
    54   36   37 1
    55   50   52 ar
@<TRIPOS>SUBSTRUCTURE
     1 RES1 1
     2 SUP2 7

@<TRIPOS>CRYSIN
   8.1130   17.9340   14.7230  90.0000  98.0080  90.0000  14 1

