# MOL2 file generated by ConQuest
# Please check atom types

@<TRIPOS>MOLECULE
YEFNON
    40    41     1
SMALL
NO_CHARGES
****
Generated from CSD

@<TRIPOS>ATOM
      1 O1         3.8818   10.9578    1.5741 O.2       1 RES1    0.0000
      2 O2        -0.3765   12.9579    4.7367 O.2       1 RES1    0.0000
      3 O3         1.1211   14.2123    5.6346 O.2       1 RES1    0.0000
      4 N1         2.7460   10.4829    3.9433 N.3       1 RES1    0.0000
      5 N2         3.0795   12.3804    5.0136 N.2       1 RES1    0.0000
      6 N3         0.7788   13.1916    5.0607 N.pl3     1 RES1    0.0000
      7 N4         3.3776    8.9418    0.7154 N.am      1 RES1    0.0000
      8 N5         2.8507    7.6768    0.9276 N.2       1 RES1    0.0000
      9 C1         3.6705   11.3058    4.5277 C.2       1 RES1    0.0000
     10 C2         1.7755   12.2143    4.7308 C.2       1 RES1    0.0000
     11 C3         1.5335   11.0466    4.0756 C.2       1 RES1    0.0000
     12 C4         3.0161    9.3236    3.1108 C.3       1 RES1    0.0000
     13 C5         3.4572    9.7996    1.7441 C.2       1 RES1    0.0000
     14 C6         2.7829    6.9015   -0.0934 C.2       1 RES1    0.0000
     15 C7         3.2370    7.2167   -1.4303 C.3       1 RES1    0.0000
     16 C8         2.1859    5.5423    0.1971 C.ar      1 RES1    0.0000
     17 C9         2.4169    4.4804   -0.6792 C.ar      1 RES1    0.0000
     18 C10        1.8609    3.2704   -0.4169 C.ar      1 RES1    0.0000
     19 C11        1.0046    3.0335    0.6918 C.ar      1 RES1    0.0000
     20 C12        0.7942    4.1134    1.5076 C.ar      1 RES1    0.0000
     21 C13        1.3521    5.3467    1.2758 C.ar      1 RES1    0.0000
     22 C14        0.3500    1.7177    0.8499 C.3       1 RES1    0.0000
     23 C15        5.1063   10.9948    4.5839 C.3       1 RES1    0.0000
     24 H1         0.7149   10.7146    3.7850 H         1 RES1    0.0000
     25 H2         3.7135    8.7823    3.5139 H         1 RES1    0.0000
     26 H3         2.2169    8.7800    3.0300 H         1 RES1    0.0000
     27 H4         3.6505    9.1737   -0.0667 H         1 RES1    0.0000
     28 H5         4.1785    7.4023   -1.4118 H         1 RES1    0.0000
     29 H6         3.0691    6.4694   -2.0091 H         1 RES1    0.0000
     30 H7         2.7648    7.9863   -1.7552 H         1 RES1    0.0000
     31 H8         2.9467    4.6014   -1.4336 H         1 RES1    0.0000
     32 H9         2.0484    2.5626   -0.9917 H         1 RES1    0.0000
     33 H10        0.2481    4.0067    2.2530 H         1 RES1    0.0000
     34 H11        1.1655    6.0533    1.8514 H         1 RES1    0.0000
     35 H12        0.6584    1.1223    0.1623 H         1 RES1    0.0000
     36 H13        0.5667    1.3530    1.7105 H         1 RES1    0.0000
     37 H14       -0.6017    1.8234    0.7772 H         1 RES1    0.0000
     38 H15        5.2669   10.1475    4.1611 H         1 RES1    0.0000
     39 H16        5.6003   11.6789    4.1266 H         1 RES1    0.0000
     40 H17        5.3892   10.9532    5.5006 H         1 RES1    0.0000
@<TRIPOS>BOND
     1    1   13 2
     2    2    6 2
     3    3    6 2
     4    4    9 1
     5    5    9 2
     6    6   10 1
     7    7    8 1
     8    8   14 2
     9    9   23 1
    10   10    5 1
    11   11    4 1
    12   12    4 1
    13   13    7 1
    14   14   15 1
    15   15   28 1
    16   16   14 1
    17   17   16 ar
    18   18   17 ar
    19   19   18 ar
    20   20   19 ar
    21   21   16 ar
    22   22   19 1
    23   23   38 1
    24   24   11 1
    25   25   12 1
    26   26   12 1
    27   27    7 1
    28   29   15 1
    29   30   15 1
    30   31   17 1
    31   32   18 1
    32   33   20 1
    33   34   21 1
    34   35   22 1
    35   36   22 1
    36   37   22 1
    37   39   23 1
    38   40   23 1
    39   10   11 2
    40   12   13 1
    41   20   21 ar
@<TRIPOS>SUBSTRUCTURE
     1 RES1 1

@<TRIPOS>CRYSIN
   8.4230   10.5770   17.9700  90.0000  89.4600  90.0000  14 1

