# MOL2 file generated by ConQuest
# Please check atom types

@<TRIPOS>MOLECULE
YEGFOF
    37    40     1
SMALL
NO_CHARGES
****
Generated from CSD

@<TRIPOS>ATOM
      1 O1        -3.0595   -2.3180   15.2653 O.2       1 RES1    0.0000
      2 O2        -1.0614   -2.7785   14.6101 O.2       1 RES1    0.0000
      3 O3         2.0196    1.1943   15.6813 O.2       1 RES1    0.0000
      4 O4         0.8717    2.7834   16.5706 O.2       1 RES1    0.0000
      5 O5         1.2978   -1.2348   17.8336 O.2       1 RES1    0.0000
      6 O6         1.2723    0.6198   18.9272 O.2       1 RES1    0.0000
      7 O7        -1.7208    0.1922   18.1126 O.3       1 RES1    0.0000
      8 O8        -1.7805    1.8855   16.7026 O.3       1 RES1    0.0000
      9 N1        -1.8499   -2.2054   15.3325 N.pl3     1 RES1    0.0000
     10 N2         1.0886    1.6254   16.3265 N.pl3     1 RES1    0.0000
     11 N3         0.9866   -0.0817   17.9830 N.pl3     1 RES1    0.0000
     12 N4        -0.9270    1.2431   17.6119 N.3       1 RES1    0.0000
     13 C1        -2.6264    0.8532   16.0574 C.3       1 RES1    0.0000
     14 C2        -2.3356   -0.3803   16.9393 C.3       1 RES1    0.0000
     15 C3        -1.3046   -1.3131   16.3912 C.3       1 RES1    0.0000
     16 C4        -0.2168   -0.4283   15.7959 C.3       1 RES1    0.0000
     17 C5        -0.1308    0.0954   13.3696 C.ar      1 RES1    0.0000
     18 C6        -0.7182    0.5731   12.2287 C.ar      1 RES1    0.0000
     19 C7        -1.9560    1.1360   12.2934 C.ar      1 RES1    0.0000
     20 C8        -2.6800    1.2479   13.4767 C.ar      1 RES1    0.0000
     21 C9        -2.0825    0.7564   14.6325 C.ar      1 RES1    0.0000
     22 C10       -0.8035    0.1997   14.5578 C.ar      1 RES1    0.0000
     23 C11       -4.0439    1.2918   16.2866 C.3       1 RES1    0.0000
     24 C12       -4.0144    1.9267   13.3820 C.3       1 RES1    0.0000
     25 C13        0.1518    0.5745   16.8745 C.3       1 RES1    0.0000
     26 H1        -3.1619   -0.8566   17.1685 H         1 RES1    0.0000
     27 H2        -0.9289   -1.8540   17.1161 H         1 RES1    0.0000
     28 H3         0.5653   -0.9699   15.5592 H         1 RES1    0.0000
     29 H4         0.7126   -0.2945   13.3372 H         1 RES1    0.0000
     30 H5        -0.2740    0.5127   11.4141 H         1 RES1    0.0000
     31 H6        -2.3369    1.4613   11.5087 H         1 RES1    0.0000
     32 H7        -4.6408    0.7008   15.8208 H         1 RES1    0.0000
     33 H8        -4.1591    2.1869   15.9578 H         1 RES1    0.0000
     34 H9        -4.2378    1.2685   17.2258 H         1 RES1    0.0000
     35 H10       -4.2275    2.0839   12.4578 H         1 RES1    0.0000
     36 H11       -3.9807    2.7641   13.8504 H         1 RES1    0.0000
     37 H12       -4.6864    1.3659   13.7756 H         1 RES1    0.0000
@<TRIPOS>BOND
     1    1    9 2
     2    2    9 2
     3    3   10 2
     4    4   10 2
     5    5   11 2
     6    6   11 2
     7    7   12 1
     8    8   12 1
     9    9   15 1
    10   10   25 1
    11   11   25 1
    12   12   25 1
    13   13    8 1
    14   14    7 1
    15   15   14 1
    16   16   15 1
    17   17   18 ar
    18   18   19 ar
    19   19   20 ar
    20   20   21 ar
    21   21   13 1
    22   22   16 1
    23   23   13 1
    24   24   20 1
    25   25   16 1
    26   26   14 1
    27   27   15 1
    28   28   16 1
    29   29   17 1
    30   30   18 1
    31   31   19 1
    32   32   23 1
    33   33   23 1
    34   34   23 1
    35   35   24 1
    36   36   24 1
    37   37   24 1
    38   13   14 1
    39   17   22 ar
    40   21   22 ar
@<TRIPOS>SUBSTRUCTURE
     1 RES1 1

@<TRIPOS>CRYSIN
  15.9800    6.8640   25.9120  90.0000 105.9800  90.0000  15 1

