# MOL2 file generated by ConQuest
# Please check atom types

@<TRIPOS>MOLECULE
YEHDOF
    45    47     1
SMALL
NO_CHARGES
****
Generated from CSD

@<TRIPOS>ATOM
      1 O1         5.2809    5.9551   10.7643 O.3       1 RES1    0.0000
      2 O2         3.5191    5.4916    9.4197 O.2       1 RES1    0.0000
      3 C1         7.4210    3.2408    7.2639 C.ar      1 RES1    0.0000
      4 O3         7.8697    1.6645    5.5908 O.2       1 RES1    0.0000
      5 O4         9.5469    2.6997    6.5057 O.2       1 RES1    0.0000
      6 N1         8.3425    2.4725    6.3898 N.pl3     1 RES1    0.0000
      7 C2         5.6742    4.6507    8.8552 C.ar      1 RES1    0.0000
      8 C3         5.4050    7.6337   12.5247 C.3       1 RES1    0.0000
      9 C4         7.9213    4.1211    8.1680 C.ar      1 RES1    0.0000
     10 H1         8.8541    4.3289    8.3180 H         1 RES1    0.0000
     11 C5         7.0509    4.8402    8.9738 C.ar      1 RES1    0.0000
     12 H2         7.4131    5.3682    9.6406 H         1 RES1    0.0000
     13 C6         5.2017    3.7485    7.9116 C.ar      1 RES1    0.0000
     14 H3         4.2785    3.7152    7.8543 H         1 RES1    0.0000
     15 C7         4.6830    5.3967    9.6706 C.2       1 RES1    0.0000
     16 C8         6.0666    3.0227    7.1221 C.ar      1 RES1    0.0000
     17 H4         5.7838    2.3896    6.5180 H         1 RES1    0.0000
     18 C9         4.5605    6.7905   11.6520 C.2       1 RES1    0.0000
     19 C10        4.3856    8.2579   13.4601 C.3       1 RES1    0.0000
     20 H5         4.5316    9.1120   13.7996 H         1 RES1    0.0000
     21 C11        6.6387    8.3401   12.0201 C.3       1 RES1    0.0000
     22 H6         7.0697    8.7682   12.7497 H         1 RES1    0.0000
     23 H7         7.3032    7.6431   11.6588 H         1 RES1    0.0000
     24 C12        5.3067    7.1782   13.9755 C.3       1 RES1    0.0000
     25 H8         6.0647    7.5175   14.5769 H         1 RES1    0.0000
     26 H9         4.7905    6.1743   14.0723 H         1 RES1    0.0000
     27 C13        6.0183    8.7848    9.5943 C.3       1 RES1    0.0000
     28 H10        6.7223    7.9993    9.3270 H         1 RES1    0.0000
     29 H11        5.0815    8.4727    9.6952 H         1 RES1    0.0000
     30 H12        5.9906    9.4677    8.9588 H         1 RES1    0.0000
     31 C14        3.0175    7.8518   12.9856 C.3       1 RES1    0.0000
     32 H13        2.5109    8.6561   12.7497 H         1 RES1    0.0000
     33 H14        2.4926    7.5508   13.7314 H         1 RES1    0.0000
     34 C15        6.4903    9.4210   10.9006 C.3       1 RES1    0.0000
     35 C16        7.8986    9.9946   10.6852 C.3       1 RES1    0.0000
     36 H15        8.2963   10.5428   11.6588 H         1 RES1    0.0000
     37 H16        8.5860    9.2617   10.4861 H         1 RES1    0.0000
     38 H17        7.9668   10.6612    9.9679 H         1 RES1    0.0000
     39 C17        5.5843   10.5141   11.3833 C.2       1 RES1    0.0000
     40 H18        5.9987   10.9729   12.1769 H         1 RES1    0.0000
     41 C18        4.4739   10.9542   10.8133 C.2       1 RES1    0.0000
     42 H19        3.9618   11.6724   11.1952 H         1 RES1    0.0000
     43 H20        4.0605   10.4218   10.0634 H         1 RES1    0.0000
     44 C19        3.2519    6.8635   11.8988 C.2       1 RES1    0.0000
     45 H21        2.4748    6.1755   11.4270 H         1 RES1    0.0000
@<TRIPOS>BOND
     1    1   15 1
     2    2   15 2
     3    3    6 1
     4    4    6 2
     5    5    6 2
     6    7   11 ar
     7    8   18 1
     8    9    3 ar
     9   10    9 1
    10   11    9 ar
    11   12   11 1
    12   13    7 ar
    13   14   13 1
    14   15    7 1
    15   16    3 ar
    16   17   16 1
    17   18    1 1
    18   19    8 1
    19   20   19 1
    20   21    8 1
    21   22   21 1
    22   23   21 1
    23   24    8 1
    24   25   24 1
    25   26   24 1
    26   27   28 1
    27   29   27 1
    28   30   27 1
    29   31   19 1
    30   32   31 1
    31   33   31 1
    32   34   21 1
    33   35   34 1
    34   36   35 1
    35   37   35 1
    36   38   35 1
    37   39   34 1
    38   40   39 1
    39   41   39 2
    40   42   41 1
    41   43   41 1
    42   44   18 2
    43   45   44 1
    44   13   16 ar
    45   19   24 1
    46   27   34 1
    47   31   44 1
@<TRIPOS>SUBSTRUCTURE
     1 RES1 1

@<TRIPOS>CRYSIN
   7.1943    8.7559   13.8750  82.2410  81.5360  80.2790   2 1

