# MOL2 file generated by ConQuest
# Please check atom types

@<TRIPOS>MOLECULE
YEHTEM
    31    33     1
SMALL
NO_CHARGES
****
Generated from CSD

@<TRIPOS>ATOM
      1 C1        -1.1992    6.7125   10.3857 C.ar      1 RES1    0.0000
      2 H1        -1.7528    6.8947    9.6601 H         1 RES1    0.0000
      3 C2        -0.0893    5.9222   10.2116 C.ar      1 RES1    0.0000
      4 H2         0.1053    5.5749    9.3716 H         1 RES1    0.0000
      5 C3         0.7169    5.6477   11.2500 C.ar      1 RES1    0.0000
      6 H3         1.4633    5.1067   11.1234 H         1 RES1    0.0000
      7 C4         0.4523    6.1552   12.4881 C.ar      1 RES1    0.0000
      8 H4         1.0158    5.9647   13.2027 H         1 RES1    0.0000
      9 C5        -0.6725    6.9642   12.6732 C.ar      1 RES1    0.0000
     10 H5        -0.8577    7.3180   13.5144 H         1 RES1    0.0000
     11 C6        -1.5017    7.2371   11.6231 C.ar      1 RES1    0.0000
     12 C7        -2.7289    8.0903   11.7862 C.3       1 RES1    0.0000
     13 H6        -2.5282    8.8339   12.3761 H         1 RES1    0.0000
     14 H7        -2.9869    8.4523   10.9237 H         1 RES1    0.0000
     15 C8        -4.7928    6.7435   11.6214 C.2       1 RES1    0.0000
     16 C9        -4.9167    6.8588   10.1299 C.2       1 RES1    0.0000
     17 C10       -6.6065    5.5610   10.9527 C.ar      1 RES1    0.0000
     18 C11       -7.7310    4.7823   11.0175 C.ar      1 RES1    0.0000
     19 H8        -8.2046    4.5494   10.2517 H         1 RES1    0.0000
     20 C12       -8.1350    4.3565   12.2690 C.ar      1 RES1    0.0000
     21 H9        -8.8957    3.8269   12.3457 H         1 RES1    0.0000
     22 C13       -7.4361    4.6989   13.4048 C.ar      1 RES1    0.0000
     23 H10       -7.7300    4.3916   14.2326 H         1 RES1    0.0000
     24 C14       -6.3041    5.4916   13.3385 C.ar      1 RES1    0.0000
     25 H11       -5.8369    5.7229   14.1085 H         1 RES1    0.0000
     26 C15       -5.8857    5.9312   12.0922 C.ar      1 RES1    0.0000
     27 N1        -3.8618    7.2990   12.3519 N.pl3     1 RES1    0.0000
     28 N2        -6.0012    6.1086    9.8255 N.am      1 RES1    0.0000
     29 H12       -6.2855    5.9835    9.0234 H         1 RES1    0.0000
     30 O1        -3.8638    7.1805   13.6276 O.2       1 RES1    0.0000
     31 O2        -4.2335    7.4798    9.3383 O.2       1 RES1    0.0000
@<TRIPOS>BOND
     1    1    2 1
     2    3    1 ar
     3    4    3 1
     4    5    3 ar
     5    6    5 1
     6    7    5 ar
     7    8    7 1
     8    9    7 ar
     9   10    9 1
    10   11    1 ar
    11   12   11 1
    12   13   12 1
    13   14   12 1
    14   15   16 1
    15   16   28 1
    16   17   18 ar
    17   18   19 1
    18   20   18 ar
    19   21   20 1
    20   22   20 ar
    21   23   22 1
    22   24   22 ar
    23   25   24 1
    24   26   15 1
    25   27   12 1
    26   28   17 1
    27   29   28 1
    28   30   27 1
    29   31   16 2
    30    9   11 ar
    31   15   27 2
    32   17   26 ar
    33   24   26 ar
@<TRIPOS>SUBSTRUCTURE
     1 RES1 1

@<TRIPOS>CRYSIN
  12.3430    8.1720   13.3750  90.0000 114.4660  90.0000 231 1

