# MOL2 file generated by ConQuest
# Please check atom types

@<TRIPOS>MOLECULE
YEJFAW
    45    46     2
SMALL
NO_CHARGES
****
Generated from CSD

@<TRIPOS>ATOM
      1 C1         1.3508    0.6153    7.3426 C.3       1 RES1    0.0000
      2 H1         0.5375    0.5159    7.8806 H         1 RES1    0.0000
      3 C2         2.5196    1.1152    8.1585 C.3       1 RES1    0.0000
      4 H2         2.2260    1.7508    8.8286 H         1 RES1    0.0000
      5 H3         2.9736    0.3803    8.6001 H         1 RES1    0.0000
      6 C3         2.5352    2.4376    6.2906 C.3       1 RES1    0.0000
      7 H4         2.4172    3.3766    6.5466 H         1 RES1    0.0000
      8 C4         1.2032    1.6867    6.2572 C.3       1 RES1    0.0000
      9 H5         0.4702    2.2945    6.4848 H         1 RES1    0.0000
     10 C5         2.3154    1.1505    4.3235 C.3       1 RES1    0.0000
     11 H6         2.2293    1.2316    3.3597 H         1 RES1    0.0000
     12 H7         2.7630    0.3130    4.5239 H         1 RES1    0.0000
     13 C6         3.0953    2.2998    4.8744 C.3       1 RES1    0.0000
     14 H8         4.0567    2.1108    4.8852 H         1 RES1    0.0000
     15 C7         3.5898    4.5666    4.3294 C.2       1 RES1    0.0000
     16 C8         3.2224    5.6796    3.4783 C.2       1 RES1    0.0000
     17 H9         2.4846    5.5974    2.9182 H         1 RES1    0.0000
     18 C9         3.9043    6.8002    3.4768 C.2       1 RES1    0.0000
     19 H10        4.5964    6.8643    4.0947 H         1 RES1    0.0000
     20 C10        3.6953    7.9741    2.6007 C.ar      1 RES1    0.0000
     21 C11        4.5964    9.0145    2.6013 C.ar      1 RES1    0.0000
     22 H11        5.2885    9.0145    3.2239 H         1 RES1    0.0000
     23 C12        4.5000   10.0518    1.7098 C.ar      1 RES1    0.0000
     24 H12        5.1366   10.7290    1.7015 H         1 RES1    0.0000
     25 C13        3.4610   10.0710    0.8399 C.ar      1 RES1    0.0000
     26 C14        2.5282    9.0893    0.8291 C.ar      1 RES1    0.0000
     27 H13        1.8253    9.1214    0.2223 H         1 RES1    0.0000
     28 C15        2.6241    8.0457    1.7191 C.ar      1 RES1    0.0000
     29 H14        1.9697    7.3845    1.7293 H         1 RES1    0.0000
     30 C16        2.7307   11.7822   -0.5280 C.2       1 RES1    0.0000
     31 C17        2.7851   12.6817   -1.6289 C.3       1 RES1    0.0000
     32 H15        3.5127   13.2948   -1.5039 H         1 RES1    0.0000
     33 H16        1.9605   13.1698   -1.6860 H         1 RES1    0.0000
     34 H17        2.9192   12.1860   -2.4395 H         1 RES1    0.0000
     35 N1         0.7368   -1.3940    6.2013 N.pl3     1 RES1    0.0000
     36 O1         1.7801   -0.6345    6.7599 O.3       1 RES1    0.0000
     37 O2         1.1585   -2.2667    5.4664 O.2       1 RES1    0.0000
     38 O3        -0.3835   -1.1579    6.5191 O.2       1 RES1    0.0000
     39 O4         3.3722    1.7401    7.2080 O.3       1 RES1    0.0000
     40 O5         1.0255    1.1846    4.9433 O.3       1 RES1    0.0000
     41 O6         4.4838    4.5463    5.1431 O.2       1 RES1    0.0000
     42 O7         2.7964    3.5005    4.1126 O.3       1 RES1    0.0000
     43 O8         3.6307   10.9576   -0.3829 O.3       1 RES1    0.0000
     44 O9         1.8097   11.9425    0.3242 O.2       1 RES1    0.0000
     45 O10        2.7630   11.5237    0.5589 Du        2 SUP2    0.0000
@<TRIPOS>BOND
     1    1    2 1
     2    3    1 1
     3    4    3 1
     4    5    3 1
     5    6    7 1
     6    8    1 1
     7    9    8 1
     8   10   11 1
     9   12   10 1
    10   13    6 1
    11   14   13 1
    12   15   16 1
    13   16   17 1
    14   18   16 2
    15   19   18 1
    16   20   18 1
    17   21   20 ar
    18   22   21 1
    19   23   21 ar
    20   24   23 1
    21   25   23 ar
    22   26   25 ar
    23   27   26 1
    24   28   20 ar
    25   29   28 1
    26   30   31 1
    27   31   32 1
    28   33   31 1
    29   34   31 1
    30   35   36 1
    31   36    1 1
    32   37   35 2
    33   38   35 2
    34   39    3 1
    35   40    8 1
    36   41   15 2
    37   42   13 1
    38   43   25 1
    39   44   30 2
    40    6    8 1
    41    6   39 1
    42   10   13 1
    43   10   40 1
    44   15   42 1
    45   26   28 ar
    46   30   43 1
@<TRIPOS>SUBSTRUCTURE
     1 RES1 1
     2 SUP2 45

@<TRIPOS>CRYSIN
   5.3860   10.6820   30.8800  90.0000  90.0000  90.0000  19 1

